data_image0
_chemical_formula_structural       Zr6H24C52S10N4O42
_chemical_formula_sum              "Zr6 H24 C52 S10 N4 O42"
_cell_length_a       16.45027495412535
_cell_length_b       16.483203358570577
_cell_length_c       16.52276875582677
_cell_angle_alpha    62.112633537844566
_cell_angle_beta     59.9814302538782
_cell_angle_gamma    60.235652920147686

_space_group_name_H-M_alt    "P 1"
_space_group_IT_number       1

loop_
  _space_group_symop_operation_xyz
  'x, y, z'

loop_
  _atom_site_type_symbol
  _atom_site_label
  _atom_site_symmetry_multiplicity
  _atom_site_fract_x
  _atom_site_fract_y
  _atom_site_fract_z
  _atom_site_occupancy
  Zr  Zr1       1.0  0.8901506208198599  0.9011325398081886  0.5999284959087987  1.0000
  Zr  Zr2       1.0  0.10882485190656149  0.10544128337464544  0.3957022181452956  1.0000
  Zr  Zr3       1.0  0.10414114716349605  0.8979690034258782  0.6035320108691308  1.0000
  Zr  Zr4       1.0  0.894469733471787  0.10886233653226918  0.3925147029866523  1.0000
  Zr  Zr5       1.0  0.10889881933453457  0.8939157244642644  0.38850507592842826  1.0000
  Zr  Zr6       1.0  0.889994069877446  0.11275610484396055  0.6073269745562014  1.0000
  H   H1        1.0  0.08088602431110557  0.7544178020626192  0.5768447222960804  1.0000
  H   H2        1.0  0.088054519821803  0.08216709486479355  0.2489312124452141  1.0000
  H   H3        1.0  0.08318044389637438  0.08607410356168543  0.5863156208314635  1.0000
  H   H4        1.0  0.7445179455964135  0.09167300681854604  0.5806081704292722  1.0000
  H   H5        1.0  0.8667709588160762  0.6489363649926859  0.8294750900778421  1.0000
  H   H6        1.0  0.15443753383620876  0.3355253956626427  0.1435659450274969  1.0000
  H   H7        1.0  0.8082726492984449  0.45688797829776484  0.6732432485813644  1.0000
  H   H8        1.0  0.17758080906760637  0.5621858608707059  0.3095767335680932  1.0000
  H   H9        1.0  0.4520804173494072  0.8138730431253267  0.05774273174805704  1.0000
  H   H10       1.0  0.562284758381864  0.17817868910244536  0.9516487212766265  1.0000
  H   H11       1.0  0.17014364806283314  0.8137220017651074  0.9378533642863192  1.0000
  H   H12       1.0  0.8119150094568327  0.1765988227715952  0.07446567223309587  1.0000
  H   H13       1.0  0.4363302876346965  0.5788140037037411  0.6724206285357397  1.0000
  H   H14       1.0  0.5775252088847651  0.44291976209125045  0.3091054515115275  1.0000
  H   H15       1.0  0.4417976906636055  0.17130649524617086  0.316718600104295  1.0000
  H   H16       1.0  0.5702582569103994  0.8218970830885441  0.665868162069259  1.0000
  H   H17       1.0  0.23350319897446795  0.4969003201645706  0.9223169205899495  1.0000
  H   H18       1.0  0.24742393692221754  0.42688768167199237  0.029570184431186267  1.0000
  H   H19       1.0  0.10284933666253689  0.7203126888067145  0.8376467746926509  1.0000
  H   H20       1.0  0.136218931263528  0.6309379138164888  0.9400994350678288  1.0000
  H   H21       1.0  0.8470276777005168  0.42778130557739075  0.9906166022755444  1.0000
  H   H22       1.0  0.796455906722322  0.5351472639600421  0.9201879234336302  1.0000
  H   H23       1.0  0.8407063428504314  0.34092757254972395  0.21319677105588394  1.0000
  H   H24       1.0  0.7935079724479053  0.4437466245158747  0.12480470333659328  1.0000
  C   C1        1.0  0.997968273278374  0.7380436996702147  0.4843548783817295  1.0000
  C   C2        1.0  0.2799816917212252  0.989652930361267  0.232732428077135  1.0000
  C   C3        1.0  0.9936224557115098  0.2757771363915469  0.5039492077835064  1.0000
  C   C4        1.0  0.7270279484016768  0.009091968509871382  0.7704246094110304  1.0000
  C   C5        1.0  0.9853583449970176  0.743154377078959  0.7661638531226203  1.0000
  C   C6        1.0  0.731903090814086  0.9997919621985718  0.492260734442624  1.0000
  C   C7        1.0  0.005406294886981263  0.27142630388660655  0.2375133701753711  1.0000
  C   C8        1.0  0.2760770012936291  0.9976191929125521  0.4944908571843029  1.0000
  C   C9        1.0  0.2752201111919845  0.7344146952618901  0.4945197056950974  1.0000
  C   C10       1.0  0.9946580566932681  0.999232624967661  0.7749207300978541  1.0000
  C   C11       1.0  0.7310508253804285  0.28010934262200493  0.49408249005058735  1.0000
  C   C12       1.0  0.9959503139074286  0.9994109082157863  0.22924566243862182  1.0000
  C   C13       1.0  0.9237733931385251  0.4259067432342007  0.5629582666883266  1.0000
  C   C14       1.0  0.06304607047860607  0.5921611829626344  0.42094109597712753  1.0000
  C   C15       1.0  0.9908562232161844  0.36718264678015117  0.5008528415999081  1.0000
  C   C16       1.0  0.9968760436825973  0.6501432718790955  0.4838383938366845  1.0000
  C   C17       1.0  0.03597391919890933  0.5105240623053362  0.4498055757065488  1.0000
  C   C18       1.0  0.9500339048998826  0.5082175308297181  0.533429353279324  1.0000
  C   C19       1.0  0.4247581037506336  0.9256460244223776  0.0873492640111804  1.0000
  C   C20       1.0  0.5880280358401464  0.06787092752746576  0.9207165687906811  1.0000
  C   C21       1.0  0.3697475386709143  0.9888640882638242  0.14504088277310248  1.0000
  C   C22       1.0  0.6417803477573187  0.005696176031392531  0.86205898392614  1.0000
  C   C23       1.0  0.5091477450980122  0.038227707326370944  0.003187477080459245  1.0000
  C   C24       1.0  0.5047170860813491  0.9543856142406073  0.005769759991053895  1.0000
  C   C25       1.0  0.05805539796804029  0.9277885063133413  0.9177760538085097  1.0000
  C   C26       1.0  0.9253286753620387  0.0638776778473018  0.09325013806342496  1.0000
  C   C27       1.0  0.9931269725882431  0.9950617863644454  0.8661534247814797  1.0000
  C   C28       1.0  0.9918393110737326  0.9980752973442649  0.1433870058724904  1.0000
  C   C29       1.0  0.9493368224440459  0.03765222263294999  0.011331580238831301  1.0000
  C   C30       1.0  0.0328670879314856  0.9526897710543382  0.0009546306093710044  1.0000
  C   C31       1.0  0.41682219302252577  0.5977870840775736  0.5596320093095102  1.0000
  C   C32       1.0  0.5957231532812629  0.4226434479569507  0.4231976174978839  1.0000
  C   C33       1.0  0.3661239564389687  0.6481457768551595  0.4936626295452484  1.0000
  C   C34       1.0  0.6451499355420934  0.3710280870409194  0.49034034729633896  1.0000
  C   C35       1.0  0.5127361180283287  0.5056345546136144  0.4483313904560973  1.0000
  C   C36       1.0  0.5009078493284137  0.5158513631181876  0.5333993810891045  1.0000
  C   C37       1.0  0.041702514005649456  0.6131321727636561  0.9078576593068347  1.0000
  C   C38       1.0  0.9099805858066223  0.615381917113332  0.87695692351663  1.0000
  C   C39       1.0  0.89531111440256  0.536330015593059  0.9571310112542973  1.0000
  C   C40       1.0  0.9553508347048947  0.4905325053324605  0.01713211805338222  1.0000
  C   C41       1.0  0.9378515914209516  0.4122648342419312  0.10675279350541428  1.0000
  C   C42       1.0  0.09734577222158684  0.3826870227856603  0.10994455812147656  1.0000
  C   C43       1.0  0.11048184438681127  0.463096883587589  0.031095996276569265  1.0000
  C   C44       1.0  0.03616960281339502  0.5229512001375626  0.9854202571379745  1.0000
  C   C45       1.0  0.9795225690288948  0.6569843792987133  0.852126164726826  1.0000
  C   C46       1.0  0.011462185757387998  0.3572398729427065  0.15114551334580278  1.0000
  C   C47       1.0  0.4210401255632236  0.05981464767255332  0.42482993934117264  1.0000
  C   C48       1.0  0.5943694930804712  0.9301313334781443  0.5545315134687597  1.0000
  C   C49       1.0  0.3678850966057114  0.9958355914319555  0.4899204999594742  1.0000
  C   C50       1.0  0.6464306934402372  0.9952087137847628  0.49054374423445757  1.0000
  C   C51       1.0  0.5126471343070024  0.9533481944806043  0.5297796759092464  1.0000
  C   C52       1.0  0.5043340751707676  0.03506780011284863  0.4479908583395229  1.0000
  S   S1        1.0  0.08538752792316015  0.4127681749603767  0.4063215264311992  1.0000
  S   S2        1.0  0.9013206508971335  0.6054473590393673  0.5775363964753737  1.0000
  S   S3        1.0  0.4162703322371115  0.08264280813439481  0.10015909434300597  1.0000
  S   S4        1.0  0.596451044957085  0.9109226125838462  0.9079653270777966  1.0000
  S   S5        1.0  0.9007330357316761  0.08784205306668022  0.9201171979904574  1.0000
  S   S6        1.0  0.08274105824390433  0.9038121776375405  0.09098156625488224  1.0000
  S   S7        1.0  0.4218346162225261  0.5958011247316222  0.39936623470904203  1.0000
  S   S8        1.0  0.590739087874219  0.4247067576042628  0.5833719556431943  1.0000
  S   S9        1.0  0.4199447398622451  0.9053322325619747  0.5786343092548448  1.0000
  S   S10       1.0  0.5961853691545046  0.08393317562581608  0.4000174047287288  1.0000
  N   N1        1.0  0.19885859611977716  0.4839708638706172  0.9961905706251316  1.0000
  N   N2        1.0  0.10490318788324529  0.6548601072153487  0.8900129426746658  1.0000
  N   N3        1.0  0.8210176133940196  0.5016478706646482  0.9774965264977595  1.0000
  N   N4        1.0  0.851653987981358  0.39294801396354756  0.14743486185695776  1.0000
  O   O1        1.0  0.927184160155129  0.7744152690696782  0.5536639626953671  1.0000
  O   O2        1.0  0.24487942862572953  0.05916478664686053  0.26891116145323224  1.0000
  O   O3        1.0  0.0661278313414968  0.2377651404616969  0.4363692693315215  1.0000
  O   O4        1.0  0.7600560221197482  0.9415983097688353  0.732338759203692  1.0000
  O   O5        1.0  0.05450953665570781  0.7780338547163979  0.733828466071806  1.0000
  O   O6        1.0  0.7651789878800769  0.06861076896150578  0.4260281101828766  1.0000
  O   O7        1.0  0.9338167697434727  0.2389257330469762  0.27241708646939594  1.0000
  O   O8        1.0  0.2402066953122316  0.9313827863223593  0.5632738033883911  1.0000
  O   O9        1.0  0.24295650851371428  0.7659641825500502  0.4251925604631452  1.0000
  O   O10       1.0  0.9263432168048524  0.06998583507169111  0.7417567448885336  1.0000
  O   O11       1.0  0.7619380457864511  0.24702430884080706  0.5647265049295028  1.0000
  O   O12       1.0  0.06625410122624228  0.9303886826621479  0.2605820844033245  1.0000
  O   O13       1.0  0.06555137157239721  0.9324110896104615  0.7352697684763286  1.0000
  O   O14       1.0  0.7668026214124665  0.24064872441815077  0.42706718638977736  1.0000
  O   O15       1.0  0.9295959917376421  0.07033621337007667  0.26475293485044904  1.0000
  O   O16       1.0  0.23516033863562286  0.770068804796047  0.5653569690082209  1.0000
  O   O17       1.0  0.9209787940624421  0.7786629871399671  0.7251599459296614  1.0000
  O   O18       1.0  0.23870729384252345  0.06654511792774555  0.4299814545115908  1.0000
  O   O19       1.0  0.07506324776621642  0.23076584344984505  0.27324324643859654  1.0000
  O   O20       1.0  0.7648951567527505  0.9352631275527659  0.5611488578814914  1.0000
  O   O21       1.0  0.7605995213058777  0.0784498480780301  0.7356100626257175  1.0000
  O   O22       1.0  0.06907535158313746  0.7700423930584324  0.41812472943933426  1.0000
  O   O23       1.0  0.2430826965573376  0.9234349705525915  0.26474170821924753  1.0000
  O   O24       1.0  0.9253857518817697  0.24104746687877582  0.5731411674623813  1.0000
  O   O25       1.0  0.8169433597041618  0.06713717464754876  0.5571831482343227  1.0000
  O   O26       1.0  0.05874678048103036  0.06264794271776715  0.56174770285579  1.0000
  O   O27       1.0  0.06337327508890667  0.05845823038946923  0.31967666834462705  1.0000
  O   O28       1.0  0.05859823372971128  0.8251432530555222  0.5530581055461211  1.0000
  O   O29       1.0  0.13366747386477593  0.9563359116636505  0.4540935640102787  1.0000
  O   O30       1.0  0.9560447827578996  0.9594772979116688  0.4507794602010123  1.0000
  O   O31       1.0  0.9556979987476667  0.13446749121109777  0.4578687636943569  1.0000
  O   O32       1.0  0.952004584833482  0.9633368282824294  0.6290145595471796  1.0000
  O   O33       1.0  0.8441301970229704  0.40542173860470154  0.6416912493844293  1.0000
  O   O34       1.0  0.14312997742068473  0.6121655700102268  0.3427810911719503  1.0000
  O   O35       1.0  0.40307295379949437  0.8472774975523905  0.10752457058735108  1.0000
  O   O36       1.0  0.6092505022449259  0.14677310300850627  0.9000459018682038  1.0000
  O   O37       1.0  0.13590066896302494  0.8487945225391299  0.8908231735822554  1.0000
  O   O38       1.0  0.8481154021431861  0.14333314154514923  0.11961563790595157  1.0000
  O   O39       1.0  0.38820981605240257  0.6239808861699742  0.6392068435605437  1.0000
  O   O40       1.0  0.62387957720712  0.3959472466343642  0.3440158037858366  1.0000
  O   O41       1.0  0.3949463389258909  0.13635324274784477  0.3497755569982957  1.0000
  O   O42       1.0  0.6190101164251653  0.8549354470506645  0.630997112180573  1.0000
