data_image0
_chemical_formula_structural       Fe2H20C28S4N8
_chemical_formula_sum              "Fe2 H20 C28 S4 N8"
_cell_length_a       9.100370665182187
_cell_length_b       9.434721777579256
_cell_length_c       10.106439478697663
_cell_angle_alpha    115.1176361152887
_cell_angle_beta     109.49860415081974
_cell_angle_gamma    93.44670453511851

_space_group_name_H-M_alt    "P 1"
_space_group_IT_number       1

loop_
  _space_group_symop_operation_xyz
  'x, y, z'

loop_
  _atom_site_type_symbol
  _atom_site_label
  _atom_site_symmetry_multiplicity
  _atom_site_fract_x
  _atom_site_fract_y
  _atom_site_fract_z
  _atom_site_occupancy
  Fe  Fe1       1.0  0.9906488350517079  0.49213168664057605  0.003235592255194349  1.0000
  Fe  Fe2       1.0  0.4920006899972051  0.9923744901693826  0.5021429581834127  1.0000
  H   H1        1.0  0.34197039665803425  0.5117171264770236  0.1545979262993385  1.0000
  H   H2        1.0  0.646372498884098  0.48673804617727257  0.845941210264584  1.0000
  H   H3        1.0  0.5227324583482229  0.3269276678113897  0.1451893084340838  1.0000
  H   H4        1.0  0.475328280264428  0.6794259031660631  0.8509942835914401  1.0000
  H   H5        1.0  0.11023876198910189  0.9359328801919206  0.7856857534142704  1.0000
  H   H6        1.0  0.8959342449683447  0.06041023737938638  0.21112326216520208  1.0000
  H   H7        1.0  0.945296067283401  0.13784874557919122  0.8097679564510255  1.0000
  H   H8        1.0  0.051111457416318715  0.8509855641475995  0.19037377389305735  1.0000
  H   H9        1.0  0.3576890143518553  0.867933530874744  0.8596516552842458  1.0000
  H   H10       1.0  0.6496811037614661  0.13687703740060897  0.13672190546314764  1.0000
  H   H11       1.0  0.6484622591356412  0.8726628713723273  0.7292658581846679  1.0000
  H   H12       1.0  0.35034354584860944  0.12084393513084994  0.27573408951447215  1.0000
  H   H13       1.0  0.8373346492564478  0.6979954589736862  0.7558410930874684  1.0000
  H   H14       1.0  0.1684360256053949  0.3015711019948242  0.24854302109208257  1.0000
  H   H15       1.0  0.858116451286044  0.6389228897744348  0.31409382825169985  1.0000
  H   H16       1.0  0.14049118018733248  0.3658810798506451  0.6892500141693744  1.0000
  H   H17       1.0  0.6724464877114399  0.817836919438335  0.30783259546439706  1.0000
  H   H18       1.0  0.3190256868407885  0.18133747069133216  0.6959739162668723  1.0000
  H   H19       1.0  0.9974433989442771  0.5335155178774473  0.6619536544015006  1.0000
  H   H20       1.0  0.004482233072067687  0.46746800187798243  0.33910442527710666  1.0000
  C   C1        1.0  0.29505942018894155  0.3830297364649269  0.07459426608446047  1.0000
  C   C2        1.0  0.6971182426006236  0.6150787270414783  0.925306476467938  1.0000
  C   C3        1.0  0.39546709918541717  0.27784665041871653  0.06858668963848656  1.0000
  C   C4        1.0  0.6024735102988926  0.7249246405277461  0.9283647207329577  1.0000
  C   C5        1.0  0.3323215491603264  0.11123740156877197  0.9648069048628823  1.0000
  C   C6        1.0  0.6704661635830502  0.8909719304051295  0.03183993372422841  1.0000
  C   C7        1.0  0.16667692361298944  0.0626575037907102  0.8694396331377446  1.0000
  C   C8        1.0  0.8356520483383605  0.9344132581212962  0.1278241432740687  1.0000
  C   C9        1.0  0.07342824761740728  0.1745913505306689  0.8824314493513795  1.0000
  C   C10       1.0  0.9232770801887893  0.8178963364225853  0.11750513010824194  1.0000
  C   C11       1.0  0.4250855862695885  0.98999051086021  0.9516234326426128  1.0000
  C   C12       1.0  0.5814081982299014  0.015218583985408403  0.04397946904078505  1.0000
  C   C13       1.0  0.69793702935128  0.8186439806482468  0.6401662312722534  1.0000
  C   C14       1.0  0.30059993467109786  0.1771941178673302  0.36414979452402446  1.0000
  C   C15       1.0  0.8030170802406502  0.7207165969923041  0.6538560824787395  1.0000
  C   C16       1.0  0.1995372047981903  0.2787227262550331  0.35033401840893663  1.0000
  C   C17       1.0  0.8641237457590519  0.6491838050910204  0.5363028304067397  1.0000
  C   C18       1.0  0.1374388149779122  0.35255429844177394  0.4666953671824529  1.0000
  C   C19       1.0  0.8153918150682384  0.6867445782534602  0.40943212238825305  1.0000
  C   C20       1.0  0.183077959869955  0.315706897695705  0.5940272458661368  1.0000
  C   C21       1.0  0.7108631822163288  0.7868686679537759  0.4042710869079045  1.0000
  C   C22       1.0  0.2835379109339584  0.2120052477707048  0.5992460157379326  1.0000
  C   C23       1.0  0.9703666114691171  0.5441373783816132  0.5535607102639941  1.0000
  C   C24       1.0  0.032661135417171666  0.4586516256193817  0.4484448527874532  1.0000
  C   C25       1.0  0.19605382392558104  0.7032870470680876  0.35508814939549177  1.0000
  C   C26       1.0  0.8086826330769127  0.30141578201456554  0.6419724441234391  1.0000
  C   C27       1.0  0.6827972284396181  0.212193467153611  0.8548325357211507  1.0000
  C   C28       1.0  0.32252419504701624  0.7912496054803668  0.14105380393162648  1.0000
  S   S1        1.0  0.3159959667093943  0.8358521442292358  0.5369940015914594  1.0000
  S   S2        1.0  0.7058835267303536  0.18461151402551934  0.4529645704663209  1.0000
  S   S3        1.0  0.8126841313255114  0.3371215073078062  0.03598075034782515  1.0000
  S   S4        1.0  0.2072981278160526  0.6798390868752692  0.9537570946773853  1.0000
  N   N1        1.0  0.13461260672953304  0.3340622036252015  0.9848114413146971  1.0000
  N   N2        1.0  0.8565939800386673  0.6585871940054416  0.017901635240391914  1.0000
  N   N3        1.0  0.649889365108379  0.8522540588471728  0.5167180462697232  1.0000
  N   N4        1.0  0.34320660869786207  0.14199172628268295  0.4866423762254611  1.0000
  N   N5        1.0  0.11137457447959778  0.61082485097279  0.22137419619090792  1.0000
  N   N6        1.0  0.8832534591689979  0.3851967791940041  0.7802984666560987  1.0000
  N   N7        1.0  0.5956319064586849  0.12484442535762243  0.7206291660144399  1.0000
  N   N8        1.0  0.4009496216487846  0.8703426536433981  0.27917843299076844  1.0000
