data_image0
_chemical_formula_structural       Mn2H44C52N8O8
_chemical_formula_sum              "Mn2 H44 C52 N8 O8"
_cell_length_a       8.655337596190941
_cell_length_b       11.197061386530489
_cell_length_c       13.618924345227148
_cell_angle_alpha    81.04414924450407
_cell_angle_beta     71.45371576238155
_cell_angle_gamma    67.28819177872217

_space_group_name_H-M_alt    "P 1"
_space_group_IT_number       1

loop_
  _space_group_symop_operation_xyz
  'x, y, z'

loop_
  _atom_site_type_symbol
  _atom_site_label
  _atom_site_symmetry_multiplicity
  _atom_site_fract_x
  _atom_site_fract_y
  _atom_site_fract_z
  _atom_site_occupancy
  Mn  Mn1       1.0  0.004800492246509863  0.4956033381748169  0.008538407413887224  1.0000
  Mn  Mn2       1.0  0.5087960042513161  0.004644050214125199  0.4913413599463541  1.0000
  H   H1        1.0  0.2970095974870902  0.8953929571068144  0.25115981799411463  1.0000
  H   H2        1.0  0.4440988766183622  0.6047641718515564  0.24870679763657932  1.0000
  H   H3        1.0  0.703044263432446  0.1005748857498006  0.7472926809328868  1.0000
  H   H4        1.0  0.5506359388411254  0.39889303238217605  0.7529355891134132  1.0000
  H   H5        1.0  0.10297553530637077  0.9026181800343166  0.3513672362131218  1.0000
  H   H6        1.0  0.35708134874075637  0.5978337396904789  0.1486238089094485  1.0000
  H   H7        1.0  0.8982728820353216  0.0973638020385863  0.6499210193926148  1.0000
  H   H8        1.0  0.6458713671628263  0.40187316729868156  0.8500442685039433  1.0000
  H   H9        1.0  0.30722830720670674  0.7791823645025884  0.3558098030177704  1.0000
  H   H10       1.0  0.4431422687500801  0.7209340333788247  0.14404673099370072  1.0000
  H   H11       1.0  0.6942384223070734  0.22095177589059029  0.6454603428984316  1.0000
  H   H12       1.0  0.5597425396061128  0.27876438315640667  0.8549153272958139  1.0000
  H   H13       1.0  0.02214088805290271  0.10808664741840347  0.41191067680674825  1.0000
  H   H14       1.0  0.5423820903179009  0.39171411321735405  0.08822580148029155  1.0000
  H   H15       1.0  0.9783505439043694  0.8885215593256462  0.5909464691041111  1.0000
  H   H16       1.0  0.4584984050760216  0.6113004042618115  0.9092454268349074  1.0000
  H   H17       1.0  0.11744101226097568  0.3258765027401154  0.626427041233896  1.0000
  H   H18       1.0  0.07029409626148464  0.17396739265779357  0.8739272347993465  1.0000
  H   H19       1.0  0.8835056809106379  0.6756585141377014  0.3711681938791501  1.0000
  H   H20       1.0  0.9314583754584552  0.8241905221497557  0.1290076317259122  1.0000
  H   H21       1.0  0.6148939014888128  0.6117811685990232  0.6163835255186783  1.0000
  H   H22       1.0  0.8437105041721296  0.8879743725247522  0.8835933893535713  1.0000
  H   H23       1.0  0.3832799865731856  0.3853612110573437  0.3815445083515315  1.0000
  H   H24       1.0  0.15087073118768762  0.11501240216047386  0.11820477772229053  1.0000
  H   H25       1.0  0.6317882862065646  0.506446596374701  0.46437283317050776  1.0000
  H   H26       1.0  0.6031475195901312  0.9930732573447966  0.035623380930317715  1.0000
  H   H27       1.0  0.3687960520864737  0.48970759988265655  0.5331562702344926  1.0000
  H   H28       1.0  0.3921008679025346  0.010886722994534597  0.9664419027466241  1.0000
  H   H29       1.0  0.8821837858858004  0.3061528674825239  0.39883951161665737  1.0000
  H   H30       1.0  0.5873424650136273  0.19347129916446448  0.10123573696358795  1.0000
  H   H31       1.0  0.12103299565016822  0.6914127982989553  0.5988167501246835  1.0000
  H   H32       1.0  0.4121403762052725  0.8088201720950887  0.9010127607943731  1.0000
  H   H33       1.0  0.04924127006152905  0.38285474106825024  0.783162534932302  1.0000
  H   H34       1.0  0.2162773446691873  0.11701273439570768  0.7169166273594314  1.0000
  H   H35       1.0  0.9450483097781872  0.6183120695746566  0.21725535962882261  1.0000
  H   H36       1.0  0.7814775938956448  0.8814907032851164  0.28303247145333205  1.0000
  H   H37       1.0  0.7179427990004331  0.7522408058483306  0.893561350497251  1.0000
  H   H38       1.0  0.36358582791957184  0.7481168112839567  0.6060534866781921  1.0000
  H   H39       1.0  0.2798569485357732  0.25112066071004335  0.10124659672712266  1.0000
  H   H40       1.0  0.6319028773813927  0.24926197519508966  0.39834548070258086  1.0000
  H   H41       1.0  0.6566393334762639  0.7248342543193329  0.7114859534700033  1.0000
  H   H42       1.0  0.09344482810173839  0.7750076074460067  0.7885250406587687  1.0000
  H   H43       1.0  0.3417179622242943  0.2751915117312008  0.28374123940803037  1.0000
  H   H44       1.0  0.9008876515864518  0.22512491753662536  0.21607153660434636  1.0000
  C   C1        1.0  0.24320837751378868  0.8811234134038199  0.3350635639802349  1.0000
  C   C2        1.0  0.4598089709811648  0.6190636606770495  0.1648252854404718  1.0000
  C   C3        1.0  0.7585693555507051  0.11833562542878434  0.6641228559573664  1.0000
  C   C4        1.0  0.5408732539704529  0.3812686609166178  0.8360889952569154  1.0000
  C   C5        1.0  0.27756419070039606  0.9671139730124947  0.39332886931885025  1.0000
  C   C6        1.0  0.638226467398404  0.5329338647286618  0.10653111351546588  1.0000
  C   C7        1.0  0.7287547529806349  0.03497751995079309  0.6009454088965285  1.0000
  C   C8        1.0  0.3648532989072064  0.4650144833897086  0.8992482703359174  1.0000
  C   C9        1.0  0.14718604901937488  0.08736176427179028  0.4256600767799484  1.0000
  C   C10       1.0  0.6603936199174856  0.41264403351576817  0.07426883984103243  1.0000
  C   C11       1.0  0.8567822447474996  0.9126844327544815  0.5717707909201268  1.0000
  C   C12       1.0  0.3417965498173745  0.5872191869841286  0.9284590371910969  1.0000
  C   C13       1.0  0.16389281297705346  0.17927991302413196  0.47712958279818457  1.0000
  C   C14       1.0  0.8204583492140076  0.32074498694599635  0.02286255860126129  1.0000
  C   C15       1.0  0.8414330152679953  0.8226015970827375  0.5177327426474677  1.0000
  C   C16       1.0  0.1824399756932423  0.6774305995010365  0.9823967399303015  1.0000
  C   C17       1.0  0.011968542589656187  0.29913777614039816  0.5127062077803687  1.0000
  C   C18       1.0  0.8241318790440676  0.2006818346613314  0.987425283641976  1.0000
  C   C19       1.0  0.9903512213997772  0.700280268257458  0.484821282262594  1.0000
  C   C20       1.0  0.17640169190157473  0.7997836865644882  0.0152343714195879  1.0000
  C   C21       1.0  0.005543329912150301  0.3632269866885238  0.5954336816263109  1.0000
  C   C22       1.0  0.9647062758790174  0.13655648151812014  0.904838471729555  1.0000
  C   C23       1.0  0.9951228095496917  0.6365581910902022  0.40237669901399914  1.0000
  C   C24       1.0  0.03511328755989526  0.8634340089298004  0.09771523186442016  1.0000
  C   C25       1.0  0.8624059547124933  0.47391847773237555  0.6335453397257638  1.0000
  C   C26       1.0  0.9705398703420657  0.025846324845609597  0.8666643693080475  1.0000
  C   C27       1.0  0.1364124877643891  0.5246678519248034  0.36444469601384816  1.0000
  C   C28       1.0  0.0263847258966268  0.9754194632796351  0.13560255610045863  1.0000
  C   C29       1.0  0.7253266413560979  0.5244353126590511  0.587801267501334  1.0000
  C   C30       1.0  0.8381418952653806  0.9752944926838575  0.9122918370157437  1.0000
  C   C31       1.0  0.2736181657538736  0.47309093244711425  0.41011973361310805  1.0000
  C   C32       1.0  0.15761762564608262  0.027153970542279596  0.08973818835845292  1.0000
  C   C33       1.0  0.7346689241814631  0.4636811224548082  0.5029728990368129  1.0000
  C   C34       1.0  0.7018165318380198  0.03595519777316979  0.9970802487234566  1.0000
  C   C35       1.0  0.26565069615199405  0.5333898783641401  0.494813139206734  1.0000
  C   C36       1.0  0.2945259915111721  0.9669672268286859  0.004967413411300536  1.0000
  C   C37       1.0  0.8751857702800123  0.3514194156304739  0.4660470215955927  1.0000
  C   C38       1.0  0.6929354105140391  0.1482842345067681  0.03405623160008289  1.0000
  C   C39       1.0  0.12658175890361179  0.6465007715297941  0.531822840146134  1.0000
  C   C40       1.0  0.30579137281360896  0.8536997878727985  0.968036680189421  1.0000
  C   C41       1.0  0.9530022155569571  0.4799830774869064  0.7880570286046835  1.0000
  C   C42       1.0  0.22177599827224279  0.019918078999737097  0.712079842061236  1.0000
  C   C43       1.0  0.04188236647016209  0.521600567821167  0.21126065116069986  1.0000
  C   C44       1.0  0.7752443422506377  0.9784173278707724  0.28873765240177834  1.0000
  C   C45       1.0  0.7795669490659735  0.6719092531123536  0.842036904174158  1.0000
  C   C46       1.0  0.2936562799216633  0.8282210714304834  0.6578088994471261  1.0000
  C   C47       1.0  0.21786815354172276  0.33009853696292873  0.15399725023164731  1.0000
  C   C48       1.0  0.7019387304757815  0.17017538738071633  0.3457029706810745  1.0000
  C   C49       1.0  0.745006618901989  0.658387939306145  0.7534732362049185  1.0000
  C   C50       1.0  0.15723350157690394  0.8415696346288044  0.7465402554095918  1.0000
  C   C51       1.0  0.2523949236354356  0.34241746847438037  0.2427011180860462  1.0000
  C   C52       1.0  0.8378085759595919  0.15779193564883795  0.2571297483399847  1.0000
  N   N1        1.0  0.9090305589804406  0.5603053528917598  0.862511560578348  1.0000
  N   N2        1.0  0.3320707400152121  0.9398132010026428  0.6374361556015202  1.0000
  N   N3        1.0  0.08691474430532521  0.4427696290432478  0.13432084732684763  1.0000
  N   N4        1.0  0.6641760437955571  0.05736590447497038  0.36552040427747573  1.0000
  N   N5        1.0  0.855808033632606  0.5352032465941575  0.719522304734497  1.0000
  N   N6        1.0  0.11123225189093937  0.9646195885953472  0.7806559522761205  1.0000
  N   N7        1.0  0.14119014730945176  0.464633674979666  0.2785005825419731  1.0000
  N   N8        1.0  0.8850345281145734  0.0354153911544444  0.2215140069327647  1.0000
  O   O1        1.0  0.4298739276397188  0.9223350952231821  0.4092951174288333  1.0000
  O   O2        1.0  0.7618372399319289  0.5776960411388712  0.09054298537076032  1.0000
  O   O3        1.0  0.5817962007731126  0.08348808871525648  0.5780448849906605  1.0000
  O   O4        1.0  0.24312373594885647  0.4168233682183454  0.9220618024014586  1.0000
  O   O5        1.0  0.30496859913029073  0.16568202914729813  0.49999314321183885  1.0000
  O   O6        1.0  0.9707738722849444  0.3344616747910222  0.9999164762986724  1.0000
  O   O7        1.0  0.7036300356780673  0.8402633643494681  0.4894195079744039  1.0000
  O   O8        1.0  0.03376315480072403  0.6600558997333221  0.010585617407841133  1.0000
