data_image0
_chemical_formula_structural       Zn8H72C100N40O16
_chemical_formula_sum              "Zn8 H72 C100 N40 O16"
_cell_length_a       14.88436331633147
_cell_length_b       15.023482302850852
_cell_length_c       23.329080873600436
_cell_angle_alpha    91.34917431536199
_cell_angle_beta     90.29568739375028
_cell_angle_gamma    102.89503643416587

_space_group_name_H-M_alt    "P 1"
_space_group_IT_number       1

loop_
  _space_group_symop_operation_xyz
  'x, y, z'

loop_
  _atom_site_type_symbol
  _atom_site_label
  _atom_site_symmetry_multiplicity
  _atom_site_fract_x
  _atom_site_fract_y
  _atom_site_fract_z
  _atom_site_occupancy
  Zn  Zn1       1.0  0.5658097576235336  0.4134532175914885  0.9345005626751615  1.0000
  Zn  Zn2       1.0  0.5750465193088273  0.4247699508183589  0.07219355396858161  1.0000
  Zn  Zn3       1.0  0.06900246968599079  0.9168423719781843  0.42967751163592294  1.0000
  Zn  Zn4       1.0  0.08030189512500381  0.9301990678141152  0.5669472329276958  1.0000
  Zn  Zn5       1.0  0.4133369107843876  0.5601274889683127  0.0708854512599189  1.0000
  Zn  Zn6       1.0  0.42602408008168874  0.5682175583731138  0.9296349669586733  1.0000
  Zn  Zn7       1.0  0.9166132174113032  0.06317636485358243  0.5670297321438653  1.0000
  Zn  Zn8       1.0  0.9294742532433203  0.07251821253542091  0.4262409475789113  1.0000
  H   H1        1.0  0.4081636073750161  0.2299909165172522  0.9107111996031707  1.0000
  H   H2        1.0  0.44057354799393517  0.2383416881776341  0.0915762655618906  1.0000
  H   H3        1.0  0.9102679975911983  0.7335820001356057  0.41070336664795803  1.0000
  H   H4        1.0  0.9495227963737208  0.7456710159713325  0.5981631125214264  1.0000
  H   H5        1.0  0.2317702928623646  0.3985168799346327  0.08665748654036783  1.0000
  H   H6        1.0  0.23362791039091493  0.4262104843667203  0.9134381171392222  1.0000
  H   H7        1.0  0.7379643922142733  0.9023882717458989  0.5912666676335192  1.0000
  H   H8        1.0  0.7375932908354911  0.9314429292045788  0.4133627578478354  1.0000
  H   H9        1.0  0.2315944465953379  0.6424639851389246  0.90362523374921  1.0000
  H   H10       1.0  0.21173203132818944  0.6135696707402049  0.0879283911687452  1.0000
  H   H11       1.0  0.7361044941595979  0.15012701556079833  0.40020391216398826  1.0000
  H   H12       1.0  0.7139179513157784  0.11357181653248465  0.5838403120146012  1.0000
  H   H13       1.0  0.6382161249806515  0.22929033145725705  0.09828415095982732  1.0000
  H   H14       1.0  0.6097765022862447  0.20865060816456804  0.9135181402552205  1.0000
  H   H15       1.0  0.14401501204962128  0.7358314570463164  0.5935461412569155  1.0000
  H   H16       1.0  0.11504178486438117  0.7122075168106435  0.4088717629644379  1.0000
  H   H17       1.0  0.7459778749661153  0.5684522703860467  0.9072797825432702  1.0000
  H   H18       1.0  0.7554694225168318  0.5870702411472378  0.09284676999642023  1.0000
  H   H19       1.0  0.2527140495143456  0.06999431366116941  0.40141202770390555  1.0000
  H   H20       1.0  0.2555350646998136  0.09600108013310661  0.5868004312727919  1.0000
  H   H21       1.0  0.551124906206276  0.7532635533942625  0.101020715715741  1.0000
  H   H22       1.0  0.5780243099920951  0.7514551773585155  0.9165099749624943  1.0000
  H   H23       1.0  0.0514683191194365  0.25830998958069534  0.5970384481310234  1.0000
  H   H24       1.0  0.08386132708213272  0.25566194797638536  0.4128606144474247  1.0000
  H   H25       1.0  0.6677362610387972  0.4858154069118826  0.2115519515126252  1.0000
  H   H26       1.0  0.6759517201257096  0.46296767095827124  0.8004847752147486  1.0000
  H   H27       1.0  0.17544055788646043  0.991803621303795  0.7070286010382815  1.0000
  H   H28       1.0  0.16627641319058734  0.9569504368078227  0.292787154086156  1.0000
  H   H29       1.0  0.48482663559598643  0.05906903165369932  0.041366136985104204  1.0000
  H   H30       1.0  0.7438097086067329  0.06813575372427043  0.9581160507997455  1.0000
  H   H31       1.0  0.9837626931904141  0.5637155958135339  0.5249187392187267  1.0000
  H   H32       1.0  0.2586336033741858  0.5738466707337723  0.4649892512386344  1.0000
  H   H33       1.0  0.4891291724807658  0.03824576835635441  0.9667944597075221  1.0000
  H   H34       1.0  0.6458104713440704  0.0689850564527461  0.915609775985786  1.0000
  H   H35       1.0  0.004359804384456769  0.5441678772233018  0.4517879384157837  1.0000
  H   H36       1.0  0.1709240719058158  0.5761903935616387  0.41446272546583884  1.0000
  H   H37       1.0  0.459140161246779  0.8829055017786587  0.989520163850834  1.0000
  H   H38       1.0  0.5922326718472918  0.9117169663692694  0.9178940521769405  1.0000
  H   H39       1.0  0.9685617803794812  0.3884977190885409  0.4735557234104277  1.0000
  H   H40       1.0  0.1162372068665078  0.4184285921027211  0.41370864104753485  1.0000
  H   H41       1.0  0.4875202099798912  0.9074833238255524  0.062436261779943415  1.0000
  H   H42       1.0  0.7048383907828891  0.9090424262463089  0.9410617988810515  1.0000
  H   H43       1.0  0.9811006778468607  0.4115212946475638  0.5478803401419228  1.0000
  H   H44       1.0  0.2227174711290161  0.4150268188507199  0.44643378978469184  1.0000
  H   H45       1.0  0.6319225856938715  0.0627659453143394  0.10010007920092082  1.0000
  H   H46       1.0  0.7403650315750099  0.09082157905898212  0.0664776279156385  1.0000
  H   H47       1.0  0.11683167650524955  0.5657000108807964  0.5958347229329918  1.0000
  H   H48       1.0  0.2317936311226134  0.5943080000228209  0.5716716473001214  1.0000
  H   H49       1.0  0.6522799030775774  0.9129556413467627  0.09886903988873293  1.0000
  H   H50       1.0  0.7411469947475026  0.9363844336412015  0.04793640861006311  1.0000
  H   H51       1.0  0.1367615859649902  0.41613668358594685  0.5980517173776151  1.0000
  H   H52       1.0  0.23586378869808305  0.4403603848478569  0.5549171671281955  1.0000
  H   H53       1.0  0.36816689763597304  0.20549612148789012  0.1874236916214969  1.0000
  H   H54       1.0  0.25793301961620324  0.10713641648621322  0.8905263508280256  1.0000
  H   H55       1.0  0.8783368682581029  0.7141522159204997  0.696606285601746  1.0000
  H   H56       1.0  0.7489760137327154  0.610492796018818  0.3968058913839059  1.0000
  H   H57       1.0  0.5371401540144944  0.6357286791698941  0.6845057789138025  1.0000
  H   H58       1.0  0.5707580636512048  0.7492505087302066  0.2578595740319329  1.0000
  H   H59       1.0  0.027044228150082002  0.12738384623273902  0.1755105077815386  1.0000
  H   H60       1.0  0.0568348906719223  0.24161087287895816  0.7645595814973519  1.0000
  H   H61       1.0  0.11573345255683878  0.21736688255914774  0.0992230813432684  1.0000
  H   H62       1.0  0.15028716577792517  0.3375669689043336  0.8383687013795297  1.0000
  H   H63       1.0  0.6257976919274029  0.7260658787687503  0.6084651753209799  1.0000
  H   H64       1.0  0.6664049978468823  0.846571289600682  0.33038630062030455  1.0000
  H   H65       1.0  0.9136820993206028  0.661734626882698  0.08813393008953341  1.0000
  H   H66       1.0  0.9012792238245239  0.6219102637804853  0.9041484191423521  1.0000
  H   H67       1.0  0.41441207996384577  0.1538034296719886  0.5847204879364725  1.0000
  H   H68       1.0  0.4078797859831269  0.1417735421796067  0.3996296928675065  1.0000
  H   H69       1.0  0.08107805495095025  0.6772557053079354  0.08605113270368041  1.0000
  H   H70       1.0  0.06768828231659536  0.6349939461824048  0.9024703522154525  1.0000
  H   H71       1.0  0.5814249647491608  0.16910405679278998  0.5836360379585201  1.0000
  H   H72       1.0  0.5745534335354491  0.15479160268892403  0.398812019548977  1.0000
  C   C1        1.0  0.37723886896252884  0.28885262567887093  0.914823196370044  1.0000
  C   C2        1.0  0.4001671286946972  0.2898521593415282  0.0871573826580061  1.0000
  C   C3        1.0  0.8798873100057705  0.7927934053194932  0.414965041918002  1.0000
  C   C4        1.0  0.9081029297506616  0.7960544178160024  0.5926124868153266  1.0000
  C   C5        1.0  0.2931364903634091  0.37088029428514363  0.08344700379582551  1.0000
  C   C6        1.0  0.28833468154408587  0.38904423376823877  0.9153969114591618  1.0000
  C   C7        1.0  0.7995708500570801  0.8751598725255152  0.5879034837523704  1.0000
  C   C8        1.0  0.792026066071905  0.8939197723667932  0.4153780031079535  1.0000
  C   C9        1.0  0.2398056769754149  0.6308198557139448  0.9489565598887352  1.0000
  C   C10       1.0  0.23014445295439148  0.61695599942216  0.0429086294671492  1.0000
  C   C11       1.0  0.7436357840584334  0.13662978306591367  0.4453254776260848  1.0000
  C   C12       1.0  0.7327001811203929  0.11860552003012971  0.5389102151640445  1.0000
  C   C13       1.0  0.6292821394859942  0.23881198685914737  0.0527363181951088  1.0000
  C   C14       1.0  0.614634023028202  0.2282511333526004  0.9587541850827322  1.0000
  C   C15       1.0  0.13494267360135836  0.7446598199976789  0.5479355647758839  1.0000
  C   C16       1.0  0.12018371050052679  0.7326546749579707  0.4539838054291252  1.0000
  C   C17       1.0  0.28680568014743807  0.29675613981402893  0.9017709780763993  1.0000
  C   C18       1.0  0.30712393120513326  0.28536478943261295  0.10003314445568628  1.0000
  C   C19       1.0  0.789819963552901  0.8015257943932924  0.4017538834280927  1.0000
  C   C20       1.0  0.8159437797602109  0.792182248580467  0.6075820924440053  1.0000
  C   C21       1.0  0.18130878338912737  0.6383137284552731  0.995236192184244  1.0000
  C   C22       1.0  0.6846743108275248  0.14256110464432237  0.49162307369329744  1.0000
  C   C23       1.0  0.6278117997467945  0.17728065933608422  0.006436440961586201  1.0000
  C   C24       1.0  0.13347099543374694  0.6824523242095208  0.5020353687099757  1.0000
  C   C25       1.0  0.7333355242814863  0.5641503185979391  0.9529817098192198  1.0000
  C   C26       1.0  0.738345150406616  0.5748323297470322  0.0475981356973421  1.0000
  C   C27       1.0  0.23841839596557426  0.06764903829201072  0.4469794337534054  1.0000
  C   C28       1.0  0.24020123731038717  0.08174138723272513  0.5414997780523477  1.0000
  C   C29       1.0  0.5514637448966653  0.7374538626880068  0.055323814465296606  1.0000
  C   C30       1.0  0.5649030360089996  0.7363819646708835  0.9613699213894336  1.0000
  C   C31       1.0  0.05293480408768401  0.2423675960762495  0.551413184192235  1.0000
  C   C32       1.0  0.0693275589499152  0.24092213805400317  0.4576410723029056  1.0000
  C   C33       1.0  0.5299429827559266  0.5941110311666125  0.8160053507756899  1.0000
  C   C34       1.0  0.4957238465524227  0.5842329518810063  0.1932726031535807  1.0000
  C   C35       1.0  0.024756937844877296  0.09240753148983322  0.30987579976658  1.0000
  C   C36       1.0  0.99907054273028  0.08465744460003316  0.6900865892774561  1.0000
  C   C37       1.0  0.6085218558587328  0.5130788431862925  0.2000953630947038  1.0000
  C   C38       1.0  0.6240608203457895  0.501314126849394  0.8109004122613257  1.0000
  C   C39       1.0  0.11506878476576077  0.017476033842378103  0.6959797560490486  1.0000
  C   C40       1.0  0.11614452831673824  0.9970100179841028  0.3039095881511926  1.0000
  C   C41       1.0  0.7929377045030178  0.6001422450878311  0.9990253559022476  1.0000
  C   C42       1.0  0.2963840339213987  0.1056107429018667  0.49341165364158  1.0000
  C   C43       1.0  0.5835945364803691  0.7949802736049207  0.0096763023658255  1.0000
  C   C44       1.0  0.08676375901885086  0.2996817686997775  0.5059633289430181  1.0000
  C   C45       1.0  0.603914754368013  0.5762503414021013  0.7828396612946379  1.0000
  C   C46       1.0  0.5671825766358368  0.5738277226931742  0.23145433910137572  1.0000
  C   C47       1.0  0.09507419445771599  0.07078847418048893  0.27504236115176894  1.0000
  C   C48       1.0  0.0697331735714926  0.0733434859830808  0.7287809868841111  1.0000
  C   C49       1.0  0.5204685612478883  0.027186636856697498  0.0081511195769863  1.0000
  C   C50       1.0  0.6687257367772191  0.04162564433986658  0.9550482327868934  1.0000
  C   C51       1.0  0.026227830137372597  0.5323556574493368  0.49561413789297154  1.0000
  C   C52       1.0  0.18473195709020016  0.5476214659216794  0.45571806297576967  1.0000
  C   C53       1.0  0.5108438573548924  0.9249487239469547  0.0185629268287428  1.0000
  C   C54       1.0  0.6439632932621321  0.9359338579959557  0.9519653065857128  1.0000
  C   C55       1.0  0.013800692117250383  0.42986956071637644  0.5062766930037412  1.0000
  C   C56       1.0  0.1601720698649913  0.44180863261842523  0.4516719190565865  1.0000
  C   C57       1.0  0.6699852387816703  0.04854695841484613  0.06182071926553331  1.0000
  C   C58       1.0  0.1628114082014065  0.552254700230833  0.5613955948803024  1.0000
  C   C59       1.0  0.623697165699234  0.07670171501089132  0.0078634966898505  1.0000
  C   C60       1.0  0.12886223289757479  0.5817722704492851  0.5037687548355195  1.0000
  C   C61       1.0  0.6046866554668427  0.8976679323160114  0.009699819222625201  1.0000
  C   C62       1.0  0.10851925841945587  0.40244668432741554  0.5058962172174902  1.0000
  C   C63       1.0  0.6713964611835124  0.9454905301013738  0.05757730863155071  1.0000
  C   C64       1.0  0.1646805743102959  0.44932583902647855  0.5584012148490558  1.0000
  C   C65       1.0  0.2934312390741241  0.1868154309457638  0.1828849457636679  1.0000
  C   C66       1.0  0.21468453695311496  0.13884722808052888  0.8634604867402089  1.0000
  C   C67       1.0  0.8035731764054574  0.6956756645769887  0.6920720762387731  1.0000
  C   C68       1.0  0.7107791958533268  0.6430804936056236  0.3668681882288141  1.0000
  C   C69       1.0  0.7521247486622258  0.647988564081672  0.7354499090469702  1.0000
  C   C70       1.0  0.6535043526933676  0.5882256076528378  0.32631400049135817  1.0000
  C   C71       1.0  0.24210653626354167  0.1397490065317655  0.22642437119432657  1.0000
  C   C72       1.0  0.1583510843078884  0.08438973934012493  0.8224070878121241  1.0000
  C   C73       1.0  0.6550403322801941  0.6258409532790667  0.7355013803573487  1.0000
  C   C74       1.0  0.6042783046888401  0.6239101200784845  0.2840103306311903  1.0000
  C   C75       1.0  0.14505228425213804  0.11806099126373232  0.2265908130916969  1.0000
  C   C76       1.0  0.10358076557638189  0.11955141534408402  0.7830424432064902  1.0000
  C   C77       1.0  0.6120616004048499  0.6534956009830707  0.6873554949306353  1.0000
  C   C78       1.0  0.6080027458292747  0.7181282527956159  0.2890984153506865  1.0000
  C   C79       1.0  0.10198724527574399  0.14497575179222372  0.17824602619671032  1.0000
  C   C80       1.0  0.09944093314798147  0.21128775625016522  0.7928455822784032  1.0000
  C   C81       1.0  0.15234094641549942  0.19534629849034252  0.1349505059993703  1.0000
  C   C82       1.0  0.15287541894667808  0.2657226941191126  0.8347327566494016  1.0000
  C   C83       1.0  0.6623939433401133  0.704140208818565  0.6442327863025669  1.0000
  C   C84       1.0  0.6625422835688893  0.7732537083605776  0.3302241364412026  1.0000
  C   C85       1.0  0.24927248861446571  0.21951592531802797  0.13714620832403313  1.0000
  C   C86       1.0  0.2163386363091391  0.23260107401254973  0.8687547259027683  1.0000
  C   C87       1.0  0.7593666728356891  0.7281257948525663  0.6462473398350497  1.0000
  C   C88       1.0  0.7191555652314675  0.738119550695167  0.36829995971194757  1.0000
  C   C89       1.0  0.946820346248252  0.6558664022975408  0.0470051682383712  1.0000
  C   C90       1.0  0.9398595941209892  0.6337719194409601  0.9444816258045421  1.0000
  C   C91       1.0  0.44884556213050797  0.1543594138047837  0.543492312407743  1.0000
  C   C92       1.0  0.44516548328953576  0.1473408516942456  0.44040914722046404  1.0000
  C   C93       1.0  0.04172948354917586  0.6642325919787027  0.0459387794147332  1.0000
  C   C94       1.0  0.03462797319058812  0.64166208726801  0.9435182350707834  1.0000
  C   C95       1.0  0.5436602346495292  0.16242444690852412  0.5429647056744927  1.0000
  C   C96       1.0  0.5400314029600538  0.15492866393825014  0.43997388165789186  1.0000
  C   C97       1.0  0.08705373472292881  0.651473984771073  0.9945782840185162  1.0000
  C   C98       1.0  0.5907146128463054  0.15670102714972964  0.491256588773247  1.0000
  C   C99       1.0  0.8928689986455112  0.6347445412885409  0.9966968852316925  1.0000
  C   C100      1.0  0.3964100040348484  0.14061194046563233  0.4923280559938449  1.0000
  N   N1        1.0  0.427972581127257  0.3705872832224345  0.9329282547639934  1.0000
  N   N2        1.0  0.43828893367396654  0.37212496246655047  0.0659693974519229  1.0000
  N   N3        1.0  0.9312092450797563  0.8743521937014267  0.43310618085528324  1.0000
  N   N4        1.0  0.9434496009908814  0.8756185532419996  0.5671728818961485  1.0000
  N   N5        1.0  0.37262725696068333  0.422285836659519  0.06412081447887631  1.0000
  N   N6        1.0  0.3729817585404973  0.4319345796540332  0.9335458023051402  1.0000
  N   N7        1.0  0.8769158410035586  0.9247478276059413  0.5647628311571538  1.0000
  N   N8        1.0  0.8768097450980078  0.9362403604347734  0.4337118314050983  1.0000
  N   N9        1.0  0.3164395268005293  0.6066568302475162  0.9679131442830881  1.0000
  N   N10       1.0  0.3101931638553027  0.5978709883413205  0.026113607108456404  1.0000
  N   N11       1.0  0.8196752704278153  0.11090480631195734  0.4639208208214144  1.0000
  N   N12       1.0  0.8126396495121  0.09954713199890364  0.5219006722878632  1.0000
  N   N13       1.0  0.6176707030534844  0.31997613556033133  0.0340031504636826  1.0000
  N   N14       1.0  0.6084508248630626  0.3132869778129077  0.9754574330719595  1.0000
  N   N15       1.0  0.12312873221257085  0.8254995379470388  0.5286804155816753  1.0000
  N   N16       1.0  0.11383225682416055  0.8178188657126956  0.47015095733534923  1.0000
  N   N17       1.0  0.6512724051457112  0.5195118923491293  0.9729766090186375  1.0000
  N   N18       1.0  0.6542056232888313  0.5261432221230038  0.0312703484343331  1.0000
  N   N19       1.0  0.1558064609831362  0.023420285571695808  0.4664359584023146  1.0000
  N   N20       1.0  0.15674193355658156  0.032017916853504906  0.5246688922607846  1.0000
  N   N21       1.0  0.5149380897245094  0.651833280860501  0.0351631175256699  1.0000
  N   N22       1.0  0.5230699653423229  0.6512121184823415  0.9770383521748303  1.0000
  N   N23       1.0  0.01679755777110609  0.15671980470919783  0.5311629164109064  1.0000
  N   N24       1.0  0.02669974552053839  0.15587049104082243  0.4731613015435485  1.0000
  N   N25       1.0  0.5106381924942268  0.536377051609385  0.8597693052340034  1.0000
  N   N26       1.0  0.49625011827591703  0.5347619709376163  0.1445211935959847  1.0000
  N   N27       1.0  0.008243704449981201  0.03778011066354031  0.3552994227619238  1.0000
  N   N28       1.0  0.004028570035949005  0.040276065942826705  0.6398823028993235  1.0000
  N   N29       1.0  0.5648919295850091  0.49083925716242066  0.14884645408820774  1.0000
  N   N30       1.0  0.5679660502401022  0.47909497006240553  0.856540486490772  1.0000
  N   N31       1.0  0.07429963184812752  0.9985944166066075  0.6436581399535726  1.0000
  N   N32       1.0  0.06396480196275434  0.9788945630677194  0.35152196615341325  1.0000
  N   N33       1.0  0.805589938725518  0.630913491174894  0.7857182665887237  1.0000
  N   N34       1.0  0.6459488667544875  0.4886738454997542  0.329273658775918  1.0000
  N   N35       1.0  0.29603982710354154  0.12428652694757862  0.2769433149013524  1.0000
  N   N36       1.0  0.15846595195917249  0.9860463309815799  0.8213237859436688  1.0000
  N   N37       1.0  0.4773172406214385  0.6624594130190717  0.8129803870981008  1.0000
  N   N38       1.0  0.42272708679290355  0.631230766385734  0.1979972344829051  1.0000
  N   N39       1.0  0.9736097527519264  0.16199798412411334  0.306767521179772  1.0000
  N   N40       1.0  0.9226966396130082  0.12682773572485936  0.6952997660071745  1.0000
  O   O1        1.0  0.7873822156933914  0.6630417200981925  0.8325905080323112  1.0000
  O   O2        1.0  0.8667278906901642  0.5879353936378209  0.7777273370320117  1.0000
  O   O3        1.0  0.5695846864424468  0.4377830496415813  0.31871997632427457  1.0000
  O   O4        1.0  0.7163665042583959  0.46237644364504155  0.3428961225042428  1.0000
  O   O5        1.0  0.27954322177915  0.15953131766702464  0.3231958687861081  1.0000
  O   O6        1.0  0.3561567885699687  0.07990410137010434  0.26959444411080824  1.0000
  O   O7        1.0  0.08404798848287238  0.9312122453554253  0.8117160651498241  1.0000
  O   O8        1.0  0.2329323205287182  0.9645243301545392  0.8309087186452401  1.0000
  O   O9        1.0  0.490614669939184  0.717069838919116  0.7734046408023333  1.0000
  O   O10       1.0  0.41872149788517987  0.6641255968759341  0.8519611794292247  1.0000
  O   O11       1.0  0.3716676338350879  0.6302379441325527  0.1541120109873972  1.0000
  O   O12       1.0  0.4108573669908894  0.6700298338403742  0.24376098665450033  1.0000
  O   O13       1.0  0.9838044898716303  0.21276060894633989  0.265175842303023  1.0000
  O   O14       1.0  0.9196749055685274  0.16850483999015614  0.3476297076697605  1.0000
  O   O15       1.0  0.8730000160653332  0.1271640588590941  0.6508586455656769  1.0000
  O   O16       1.0  0.9061894556781739  0.16019602014352333  0.741992079020605  1.0000
