data_image0
_chemical_formula_structural       Zn4B16H48C12N8O32
_chemical_formula_sum              "Zn4 B16 H48 C12 N8 O32"
_cell_length_a       7.980024432561403
_cell_length_b       9.312320020622327
_cell_length_c       14.22769699022135
_cell_angle_alpha    105.21581866674748
_cell_angle_beta     89.99984141263727
_cell_angle_gamma    90.00036111217133

_space_group_name_H-M_alt    "P 1"
_space_group_IT_number       1

loop_
  _space_group_symop_operation_xyz
  'x, y, z'

loop_
  _atom_site_type_symbol
  _atom_site_label
  _atom_site_symmetry_multiplicity
  _atom_site_fract_x
  _atom_site_fract_y
  _atom_site_fract_z
  _atom_site_occupancy
  Zn  Zn1       1.0  0.7195505830432866  0.04665016423888353  0.7691713556955475  1.0000
  Zn  Zn2       1.0  0.21954657165264993  0.45334867472716656  0.7308374031655305  1.0000
  Zn  Zn3       1.0  0.2804453200790604  0.953356470374814  0.2308289799971631  1.0000
  Zn  Zn4       1.0  0.7804480782769829  0.5466507570782467  0.26916778651865053  1.0000
  B   B1        1.0  0.3819509687605704  0.04371197954768044  0.8683922693760592  1.0000
  B   B2        1.0  0.881948449501998  0.45628266761706027  0.6316072449204383  1.0000
  B   B3        1.0  0.6180449342629261  0.9562891581907421  0.1316062324080604  1.0000
  B   B4        1.0  0.11804244084773793  0.5437109886183081  0.3683861995353793  1.0000
  B   B5        1.0  0.18881551146792938  0.143620332626277  0.7634600335949882  1.0000
  B   B6        1.0  0.6888081472328623  0.35638168987856034  0.7365440032693653  1.0000
  B   B7        1.0  0.8111866572379329  0.8563830275997688  0.23653892506256818  1.0000
  B   B8        1.0  0.3111940214222955  0.6436182770744239  0.2634549616586455  1.0000
  B   B9        1.0  0.44583754474826537  0.28501054276404864  0.8356944351898861  1.0000
  B   B10       1.0  0.9458384246915232  0.2149864890255202  0.6643043366676052  1.0000
  B   B11       1.0  0.5541608644343655  0.7149850980793105  0.16430223267119712  1.0000
  B   B12       1.0  0.05416625016525241  0.7850127829111812  0.3356895583478731  1.0000
  B   B13       1.0  0.3648137975413165  0.27618717441323787  0.0006815570694271906  1.0000
  B   B14       1.0  0.8648147522275594  0.22381687251203894  0.4993178527347835  1.0000
  B   B15       1.0  0.6351770931854405  0.7238247192455561  0.999323379099806  1.0000
  B   B16       1.0  0.13517739141688176  0.7761854954594656  0.5006794942562393  1.0000
  H   H1        1.0  0.515752982933016  0.8861666131608886  0.906795173348577  1.0000
  H   H2        1.0  0.0157513554754374  0.6138292342339822  0.5932008078477436  1.0000
  H   H3        1.0  0.48424291997263696  0.1138305552428491  0.0931968815383826  1.0000
  H   H4        1.0  0.9842420413569147  0.3861751183949806  0.406799762584633  1.0000
  H   H5        1.0  0.37109057957110286  0.44372368140618335  0.1233209014882704  1.0000
  H   H6        1.0  0.8710830445714565  0.056281556161074824  0.3766765895895503  1.0000
  H   H7        1.0  0.6289115892092457  0.5562867627031594  0.8766745864545553  1.0000
  H   H8        1.0  0.12892037719370822  0.9437199383226018  0.6233177623426797  1.0000
  H   H9        1.0  0.658321399617222  0.830942592204366  0.43753910637301624  1.0000
  H   H10       1.0  0.15832086689707844  0.6690599365726229  0.06247037451687022  1.0000
  H   H11       1.0  0.34169330019505395  0.16904302848080013  0.5624688748165311  1.0000
  H   H12       1.0  0.8416813019637248  0.33095225433432063  0.9375311034135762  1.0000
  H   H13       1.0  0.6742118023048178  0.40828006982169995  0.38578329841831754  1.0000
  H   H14       1.0  0.17421365378629627  0.0917160519784233  0.1142139481876754  1.0000
  H   H15       1.0  0.3257853536663974  0.5917072569448435  0.6142179949794622  1.0000
  H   H16       1.0  0.8257972868732326  0.9082907014514346  0.8857850041488858  1.0000
  H   H17       1.0  0.608574197354699  0.57372403065866  0.5317015776207085  1.0000
  H   H18       1.0  0.10856115165591973  0.9262687643858457  0.9682986387091856  1.0000
  H   H19       1.0  0.391416693014314  0.42626545922698966  0.46830086435746654  1.0000
  H   H20       1.0  0.8914410170924187  0.07373939771897402  0.0316970839588748  1.0000
  H   H21       1.0  0.5175621787464024  0.9733102300965297  0.5893187221704038  1.0000
  H   H22       1.0  0.017568715015308104  0.5266785456422839  0.9106933867271678  1.0000
  H   H23       1.0  0.48244374928810174  0.026685867814237  0.4106857820844994  1.0000
  H   H24       1.0  0.9824384661294944  0.47331644099003983  0.089310889065743  1.0000
  H   H25       1.0  0.5142836528559869  0.504461102188138  0.3578569783635571  1.0000
  H   H26       1.0  0.0142855607829162  0.995545763340246  0.14214332452163342  1.0000
  H   H27       1.0  0.4857122501357909  0.4955351147366258  0.6421461426795856  1.0000
  H   H28       1.0  0.9857178611612698  0.0044656136254417065  0.857854466773027  1.0000
  H   H29       1.0  0.4571706840666323  0.7585761901158392  0.4515464446500843  1.0000
  H   H30       1.0  0.9571639879431049  0.741419695370304  0.04845567762675526  1.0000
  H   H31       1.0  0.5428402565076383  0.24142359836559288  0.5484545951316732  1.0000
  H   H32       1.0  0.042836927697770505  0.25858822887467164  0.951542811587565  1.0000
  H   H33       1.0  0.49077701101028043  0.8123338057319812  0.6297040433959609  1.0000
  H   H34       1.0  0.9907770500791958  0.6876454549546905  0.8703000809896011  1.0000
  H   H35       1.0  0.5092301701212136  0.18766001016437175  0.3703006955769438  1.0000
  H   H36       1.0  0.009231384082149005  0.31234550286562524  0.1296984395336978  1.0000
  H   H37       1.0  0.796699382318842  0.6294759633606191  0.4891037242371325  1.0000
  H   H38       1.0  0.2966901571038322  0.8705287850358728  0.010892398146708547  1.0000
  H   H39       1.0  0.20329526742951032  0.3705096574828204  0.5109042570679279  1.0000
  H   H40       1.0  0.703312011666043  0.12947913919920503  0.9891060910603853  1.0000
  H   H41       1.0  0.7926945259395809  0.7958485738045554  0.6450892250340629  1.0000
  H   H42       1.0  0.29269784099270163  0.7041428826715902  0.8549169345211921  1.0000
  H   H43       1.0  0.2073139083744451  0.20414728621668135  0.3549180457454425  1.0000
  H   H44       1.0  0.7073080869987438  0.2958536909786531  0.14508203665562286  1.0000
  H   H45       1.0  0.8174443346939525  0.9416299014824222  0.5991686771332354  1.0000
  H   H46       1.0  0.31744286810641864  0.5583578304835587  0.9008365118994347  1.0000
  H   H47       1.0  0.18256159327115992  0.0583616918867378  0.40083560493735587  1.0000
  H   H48       1.0  0.6825630599331735  0.44164084676889803  0.09916429945643297  1.0000
  C   C1        1.0  0.5740641233355961  0.8649244667719742  0.5870550102223716  1.0000
  C   C2        1.0  0.07405765247090561  0.6350628409727576  0.9129499945248084  1.0000
  C   C3        1.0  0.42594055152714116  0.1350694680790383  0.412948345495451  1.0000
  C   C4        1.0  0.9259369975442695  0.3649409169719534  0.08705749224796477  1.0000
  C   C5        1.0  0.5853524590235466  0.7715042259741552  0.4812924211468611  1.0000
  C   C6        1.0  0.08534163252640073  0.7284867143468787  0.018708242800286688  1.0000
  C   C7        1.0  0.4146622407136676  0.22847958844597122  0.5187102616898258  1.0000
  C   C8        1.0  0.9146592830634861  0.2715204554341639  0.9812858681506995  1.0000
  C   C9        1.0  0.6619752065259237  0.6196601303140027  0.47469558829371994  1.0000
  C   C10       1.0  0.16197280203530803  0.880347558943413  0.02530577307223333  1.0000
  C   C11       1.0  0.33801944334253164  0.3803333883440985  0.5253126089251907  1.0000
  C   C12       1.0  0.8380318730109622  0.11966411534955065  0.9746885600414003  1.0000
  N   N1        1.0  0.737315147396508  0.8934828449883129  0.638894472852179  1.0000
  N   N2        1.0  0.23731816007085635  0.6065039294599189  0.8611111825536425  1.0000
  N   N3        1.0  0.26268827437462516  0.10651331240966748  0.36110933978240217  1.0000
  N   N4        1.0  0.7626852616733616  0.39349252527523493  0.138889171907131  1.0000
  N   N5        1.0  0.639078037270501  0.5107989288009948  0.3783086108214277  1.0000
  N   N6        1.0  0.13907562522797437  0.9892058476116786  0.12169163738383293  1.0000
  N   N7        1.0  0.36092287822649644  0.489197407019077  0.6216931269233114  1.0000
  N   N8        1.0  0.8609303028781813  0.010798683320665222  0.8783068580720651  1.0000
  O   O1        1.0  0.5071934135572393  0.13406963325151375  0.8267100301996562  1.0000
  O   O2        1.0  0.007188249471816702  0.365930930489867  0.6732938023492351  1.0000
  O   O3        1.0  0.4927999832218718  0.8659300364335324  0.17329239295270327  1.0000
  O   O4        1.0  0.992807653596991  0.634073659989049  0.3267040015296627  1.0000
  O   O5        1.0  0.28871188606605364  0.26862075500783794  0.7715959181465875  1.0000
  O   O6        1.0  0.7887043938215188  0.23137361742820428  0.7283986805614616  1.0000
  O   O7        1.0  0.7112940419732541  0.7313805610537472  0.22840050867548453  1.0000
  O   O8        1.0  0.21129276234457717  0.7686260522271694  0.2716037425692405  1.0000
  O   O9        1.0  0.43947214346965086  0.893258993891571  0.8541590787659031  1.0000
  O   O10       1.0  0.9394782220183446  0.606743142313988  0.6458389112423644  1.0000
  O   O11       1.0  0.5605174939490926  0.10674301729510921  0.14584241804812587  1.0000
  O   O12       1.0  0.060513921706252916  0.3932636112642527  0.3541600412024834  1.0000
  O   O13       1.0  0.22111387881826522  0.04311904957401684  0.8153787703389809  1.0000
  O   O14       1.0  0.7211160983838386  0.45688615354882234  0.6846214298599165  1.0000
  O   O15       1.0  0.7788770118470226  0.9568895697465861  0.1846247888311935  1.0000
  O   O16       1.0  0.2788823108656403  0.5431127021652956  0.3153773066349856  1.0000
  O   O17       1.0  0.05643649444228062  0.11704946308966409  0.6996425057614529  1.0000
  O   O18       1.0  0.5564498795431376  0.3829539542136402  0.8003579864554097  1.0000
  O   O19       1.0  0.9435619149298378  0.8829585801099569  0.3003546001977852  1.0000
  O   O20       1.0  0.4435547953753983  0.6170459532521234  0.19964167009292305  1.0000
  O   O21       1.0  0.35937046352891155  0.12280160179656723  0.9730740435252015  1.0000
  O   O22       1.0  0.8593711982860202  0.3771944536375856  0.526926651031566  1.0000
  O   O23       1.0  0.6406216802330819  0.8772073743187574  0.026925365829185855  1.0000
  O   O24       1.0  0.1406247046573128  0.6228022984941007  0.4730702452987217  1.0000
  O   O25       1.0  0.3979976097691066  0.35947009127277607  0.9360395994113659  1.0000
  O   O26       1.0  0.8980057201602207  0.14052366693961463  0.5639539683896259  1.0000
  O   O27       1.0  0.6019957869669316  0.6405300541517535  0.0639572906629056  1.0000
  O   O28       1.0  0.1019901827615755  0.8594733230618131  0.43604016140162116  1.0000
  O   O29       1.0  0.33513651929874305  0.3395126034900784  0.09789798696061067  1.0000
  O   O30       1.0  0.8351313099266665  0.1604883998115625  0.4021031543829209  1.0000
  O   O31       1.0  0.6648468525146713  0.6604955587631238  0.9020977358157436  1.0000
  O   O32       1.0  0.16486960559382174  0.8395142654278728  0.5978907343837605  1.0000
