data_image0
_chemical_formula_structural       Zn2H44C36N22O8
_chemical_formula_sum              "Zn2 H44 C36 N22 O8"
_cell_length_a       11.10842087039228
_cell_length_b       16.539221527556464
_cell_length_c       17.796781514849837
_cell_angle_alpha    94.98373134439109
_cell_angle_beta     90.84233145151939
_cell_angle_gamma    92.00089933634334

_space_group_name_H-M_alt    "P 1"
_space_group_IT_number       1

loop_
  _space_group_symop_operation_xyz
  'x, y, z'

loop_
  _atom_site_type_symbol
  _atom_site_label
  _atom_site_symmetry_multiplicity
  _atom_site_fract_x
  _atom_site_fract_y
  _atom_site_fract_z
  _atom_site_occupancy
  Zn  Zn1       1.0  0.4995677680313264  0.4112732147200547  0.4942485136051999  1.0000
  Zn  Zn2       1.0  0.5093864578055047  0.588405580255241  0.5033976130743056  1.0000
  H   H1        1.0  0.6234836174857817  0.9968659060985204  0.5221960947551452  1.0000
  H   H2        1.0  0.3543418003736321  0.009056634348823402  0.4885882638188902  1.0000
  H   H3        1.0  0.40587515892897835  0.42489239521755456  0.007038669927041503  1.0000
  H   H4        1.0  0.5837743998280374  0.5694116645127494  0.9955008162079153  1.0000
  H   H5        1.0  0.6859680104867678  0.6633951374915483  0.5845398553134585  1.0000
  H   H6        1.0  0.7174925028225657  0.7568573519134957  0.6339982894671364  1.0000
  H   H7        1.0  0.6644416042437128  0.9487410521911954  0.614878291420318  1.0000
  H   H8        1.0  0.7628641025011831  0.8756536722501382  0.5990316747028926  1.0000
  H   H9        1.0  0.3512804226135912  0.6466417881371312  0.4189542757560289  1.0000
  H   H10       1.0  0.26848787909242594  0.7267593029971523  0.4129311606356083  1.0000
  H   H11       1.0  0.3213456513306028  0.834175975711318  0.37073029156836407  1.0000
  H   H12       1.0  0.2774130284693967  0.900983490091413  0.4387869826380353  1.0000
  H   H13       1.0  0.6957061611395402  0.15693133146729113  0.6185738691744831  1.0000
  H   H14       1.0  0.5706956702739205  0.11764458155141  0.6525482401323542  1.0000
  H   H15       1.0  0.617077711152909  0.3540602736275531  0.6019719410206079  1.0000
  H   H16       1.0  0.6443695971716251  0.2711921664113888  0.645104118002436  1.0000
  H   H17       1.0  0.35902751225538754  0.05035570752016131  0.3786503685760038  1.0000
  H   H18       1.0  0.34890834798240883  0.1328069216018548  0.33299797003712667  1.0000
  H   H19       1.0  0.38685838586789595  0.33540273126220654  0.3762638962088188  1.0000
  H   H20       1.0  0.3007382815705739  0.2466680568811697  0.35515416528787097  1.0000
  H   H21       1.0  0.5555328914527705  0.3458725816331309  0.3079342257472603  1.0000
  H   H22       1.0  0.610233484719103  0.3088702172352029  0.224903890941988  1.0000
  H   H23       1.0  0.5473129233608275  0.333371805911483  0.05087747696923369  1.0000
  H   H24       1.0  0.5035353832191304  0.2871785656964435  0.1280491947895968  1.0000
  H   H25       1.0  0.524611262772737  0.6360914371395694  0.32486224520652474  1.0000
  H   H26       1.0  0.44085000896847504  0.6733347596575712  0.25799731316988067  1.0000
  H   H27       1.0  0.43762105530028333  0.630279735474396  0.0706475428029734  1.0000
  H   H28       1.0  0.4921724081672778  0.6822332911012197  0.15131114136042356  1.0000
  H   H29       1.0  0.42373117591286297  0.3559836283659764  0.9211078615135404  1.0000
  H   H30       1.0  0.4804366124223876  0.31666491261572116  0.8392318324906256  1.0000
  H   H31       1.0  0.44022292730168994  0.36586074305710525  0.6717215984421259  1.0000
  H   H32       1.0  0.3698567222959852  0.33391749203020993  0.7472986194300046  1.0000
  H   H33       1.0  0.5090038808842436  0.6636862652087315  0.951577824783186  1.0000
  H   H34       1.0  0.4851956848410309  0.7072668794327299  0.8712002604068445  1.0000
  H   H35       1.0  0.5181446185920108  0.6573799079290481  0.6892834713456679  1.0000
  H   H36       1.0  0.583767679056251  0.6983715406651639  0.7718755133217383  1.0000
  H   H37       1.0  0.22384207389094257  0.645636014709545  0.5211132817540473  1.0000
  H   H38       1.0  0.09417298592926927  0.6893954935093874  0.5496877965913001  1.0000
  H   H39       1.0  0.7860706825586872  0.35301740003856  0.500120794332467  1.0000
  H   H40       1.0  0.9178384758299315  0.3110018914698713  0.5250778913022457  1.0000
  H   H41       1.0  0.8087314189814732  0.6495992545660911  0.49203104378533874  1.0000
  H   H42       1.0  0.9463957452417446  0.6894796626671464  0.4712169619792518  1.0000
  H   H43       1.0  0.20238038370866457  0.34874956169309707  0.4837095783050955  1.0000
  H   H44       1.0  0.0637366157197619  0.3065516122602574  0.45483931873173583  1.0000
  C   C1        1.0  0.5159816044962682  0.4921567606887153  0.3492255712044141  1.0000
  C   C2        1.0  0.2668657330982355  0.49681548765396133  0.4961842453522749  1.0000
  C   C3        1.0  0.49283995347560244  0.5086440547228575  0.6479630959011686  1.0000
  C   C4        1.0  0.7429126858931099  0.5020556790657622  0.5018460652067063  1.0000
  C   C5        1.0  0.4316873280860846  0.7537396688647533  0.4617925221279505  1.0000
  C   C6        1.0  0.4284280438032297  0.8389746972117322  0.4643440212937973  1.0000
  C   C7        1.0  0.513892864381276  0.8860081202342941  0.5109082146279036  1.0000
  C   C8        1.0  0.5932328949535516  0.8457994876944142  0.5562171298131062  1.0000
  C   C9        1.0  0.5886447899324594  0.7601236379548979  0.5521645503936341  1.0000
  C   C10       1.0  0.5313792169199089  0.9734098148840646  0.5107670273139391  1.0000
  C   C11       1.0  0.448491418859156  0.028562062616671803  0.49853475235720157  1.0000
  C   C12       1.0  0.4129055485121071  0.1546503742060921  0.4405799127395795  1.0000
  C   C13       1.0  0.47270363892693706  0.11598464610509043  0.49672370653502895  1.0000
  C   C14       1.0  0.5494223653621119  0.16266424312708236  0.549002956938331  1.0000
  C   C15       1.0  0.5592162723292374  0.24713479225988524  0.5448012690924458  1.0000
  C   C16       1.0  0.42431723894529927  0.24007523794541194  0.4411168465357206  1.0000
  C   C17       1.0  0.5185009506817052  0.4894739977254475  0.26592885331245236  1.0000
  C   C18       1.0  0.5107040793517824  0.5625453814910202  0.22908434184782317  1.0000
  C   C19       1.0  0.5006235112691256  0.5590535887164662  0.1497189656922373  1.0000
  C   C20       1.0  0.49294751247152385  0.48346373994298386  0.1064237512182729  1.0000
  C   C21       1.0  0.5043255056707919  0.4113462614747477  0.1426646216298053  1.0000
  C   C22       1.0  0.5217627447964189  0.41362312142788243  0.2212025665103781  1.0000
  C   C23       1.0  0.46985900837639594  0.4748594677924132  0.024927553650201204  1.0000
  C   C24       1.0  0.5196264422099829  0.5210720057506251  0.9734417281934852  1.0000
  C   C25       1.0  0.51104578421252  0.5866224777191962  0.8553602683424799  1.0000
  C   C26       1.0  0.5020415791066597  0.514195039410218  0.8917956303909305  1.0000
  C   C27       1.0  0.48166010111030017  0.4394276319644845  0.8471383801296637  1.0000
  C   C28       1.0  0.4713038550788652  0.43799595340533426  0.7680161780840817  1.0000
  C   C29       1.0  0.4886550609140696  0.5107022362547867  0.731125926256297  1.0000
  C   C30       1.0  0.5067487995687612  0.5857904514316913  0.7761001501367701  1.0000
  C   C31       1.0  0.13379855979130886  0.4986138758340245  0.4988067450008059  1.0000
  C   C32       1.0  0.8760051723298048  0.5011525756893035  0.4992394235377873  1.0000
  C   C33       1.0  0.07380026391581399  0.5736303909325501  0.5042068589475617  1.0000
  C   C34       1.0  0.9355942055066109  0.4262069651514012  0.4961490237946791  1.0000
  C   C35       1.0  0.9472624181317852  0.5747915181722192  0.5014912442861998  1.0000
  C   C36       1.0  0.06322694783907679  0.4249451209660151  0.4942927754552926  1.0000
  N   N1        1.0  0.5107563351413232  0.7151564202507643  0.5043436973508406  1.0000
  N   N2        1.0  0.4967899357153271  0.2849431352153927  0.49226240048530906  1.0000
  N   N3        1.0  0.6609277996928213  0.7214248322082215  0.5992280505179507  1.0000
  N   N4        1.0  0.6747311883979634  0.8875952338510374  0.6090870097249591  1.0000
  N   N5        1.0  0.3546585695108249  0.7073153620998412  0.41155772076500335  1.0000
  N   N6        1.0  0.3502701378547357  0.8749516761129357  0.4139853256554815  1.0000
  N   N7        1.0  0.6173780943241454  0.12501033247201582  0.6044611554470973  1.0000
  N   N8        1.0  0.6367872917330856  0.29390355635619164  0.5939867418149588  1.0000
  N   N9        1.0  0.34014915123331946  0.1105092487338553  0.3843836942770195  1.0000
  N   N10       1.0  0.35899567943934585  0.2793383283530346  0.3908150539501775  1.0000
  N   N11       1.0  0.5413976443913312  0.33872162186420945  0.2510553600849406  1.0000
  N   N12       1.0  0.4976291556670915  0.3366209907978543  0.09845902094967578  1.0000
  N   N13       1.0  0.5138753852584512  0.639937989514422  0.26820105068112093  1.0000
  N   N14       1.0  0.49676701646330906  0.6318186365849812  0.11493710917694948  1.0000
  N   N15       1.0  0.48235292581381367  0.36451130782380403  0.8792000705840337  1.0000
  N   N16       1.0  0.44617870187680353  0.3610872863780444  0.728392779759467  1.0000
  N   N17       1.0  0.5287471547876875  0.6629867206867104  0.8960375287069978  1.0000
  N   N18       1.0  0.5173889569603104  0.661038307389788  0.7467702794993372  1.0000
  N   N19       1.0  0.1340448419537594  0.6504332642685283  0.5107324450385915  1.0000
  N   N20       1.0  0.8766370627155451  0.3504049185986844  0.4930054121108256  1.0000
  N   N21       1.0  0.8987593208071301  0.6521867909970638  0.5036309978510686  1.0000
  N   N22       1.0  0.11135841302463227  0.3481939245736143  0.49007321258926584  1.0000
  O   O1        1.0  0.48775366940732556  0.4261857451472792  0.3797974560748969  1.0000
  O   O2        1.0  0.5389605056608886  0.5592529904876714  0.38941816165605997  1.0000
  O   O3        1.0  0.32715584616028076  0.5625159098003537  0.4847383356569067  1.0000
  O   O4        1.0  0.3186854244222417  0.4302862868458845  0.5047423421241533  1.0000
  O   O5        1.0  0.4791363107723611  0.5740481644649621  0.6156008903359194  1.0000
  O   O6        1.0  0.5127664872390268  0.4405039438871441  0.610003969298276  1.0000
  O   O7        1.0  0.6817325038523234  0.4354837069906381  0.48679340450391356  1.0000
  O   O8        1.0  0.6915010689436584  0.5697759261242296  0.5195427495770985  1.0000
