data_image0
_chemical_formula_structural       Zn2H48C86N8O12
_chemical_formula_sum              "Zn2 H48 C86 N8 O12"
_cell_length_a       15.87307564353923
_cell_length_b       17.214909424926205
_cell_length_c       28.055201257680473
_cell_angle_alpha    90.0682790672317
_cell_angle_beta     88.17803455867936
_cell_angle_gamma    87.6137562051256

_space_group_name_H-M_alt    "P 1"
_space_group_IT_number       1

loop_
  _space_group_symop_operation_xyz
  'x, y, z'

loop_
  _atom_site_type_symbol
  _atom_site_label
  _atom_site_symmetry_multiplicity
  _atom_site_fract_x
  _atom_site_fract_y
  _atom_site_fract_z
  _atom_site_occupancy
  Zn  Zn1       1.0  0.587808434832219  0.5015761200273303  0.4979365249098395  1.0000
  Zn  Zn2       1.0  0.41201191643597224  0.4979814690992086  0.5015666826549536  1.0000
  H   H1        1.0  0.40251714581823717  0.44107320219009705  0.7483611849702714  1.0000
  H   H2        1.0  0.4027921637622073  0.5735660137892681  0.2558984064158879  1.0000
  H   H3        1.0  0.5492474594251958  0.30784901971162537  0.8737709254637808  1.0000
  H   H4        1.0  0.5559319246003726  0.6875584841291841  0.12402307826393164  1.0000
  H   H5        1.0  0.612539187821625  0.4249605404783382  0.35049221218188364  1.0000
  H   H6        1.0  0.6181787248502887  0.5608604444535742  0.6439052955517114  1.0000
  H   H7        1.0  0.6199369216757163  0.4164256639904168  0.26132400956319674  1.0000
  H   H8        1.0  0.6286776102851307  0.5689579844627489  0.732776654667241  1.0000
  H   H9        1.0  0.5034943468028035  0.30274396826838074  0.11929031526549491  1.0000
  H   H10       1.0  0.5191458713715918  0.6978624412810036  0.8795258436329053  1.0000
  H   H11       1.0  0.5160642570418335  0.3019537419465622  0.031106234038311704  1.0000
  H   H12       1.0  0.5286396115009284  0.6971574909445623  0.9674389425449521  1.0000
  H   H13       1.0  0.5479938037208357  0.30254213422826853  0.9620128196326265  1.0000
  H   H14       1.0  0.5579780654320816  0.692706882284199  0.03574950322892081  1.0000
  H   H15       1.0  0.6150024483320139  0.7489940571915952  0.4957396929805925  1.0000
  H   H16       1.0  0.3830251673340967  0.253260707669881  0.5123703938181168  1.0000
  H   H17       1.0  0.6094327177385138  0.8947585358555802  0.5055710764156913  1.0000
  H   H18       1.0  0.3876986805641637  0.10753226603357294  0.5223968969655602  1.0000
  H   H19       1.0  0.6582438881803299  0.10654281806957042  0.5223986172653812  1.0000
  H   H20       1.0  0.34279942290517357  0.8909961835920444  0.5360535951713105  1.0000
  H   H21       1.0  0.6531043840213898  0.2525729230436653  0.5124534492942062  1.0000
  H   H22       1.0  0.3487307882997542  0.7448176257989019  0.5258456235298397  1.0000
  H   H23       1.0  0.7266857048568557  0.40684598113400483  0.5371940332365384  1.0000
  H   H24       1.0  0.27166505817442754  0.607070516436579  0.47811329867516156  1.0000
  H   H25       1.0  0.12765896177026553  0.3801069329350214  0.5416601149625394  1.0000
  H   H26       1.0  0.8742493156697649  0.6038502938524531  0.4438274809021651  1.0000
  H   H27       1.0  0.28656893371902475  0.38404143884906006  0.5332269561160035  1.0000
  H   H28       1.0  0.7145415297932021  0.6034928754211679  0.45283369505610693  1.0000
  H   H29       1.0  0.45730130534655444  0.32823074668808533  0.6261796028076321  1.0000
  H   H30       1.0  0.3428714763830172  0.24395031304744225  0.6028854703039741  1.0000
  H   H31       1.0  0.1921318975854548  0.2854858203094751  0.6198313791127462  1.0000
  H   H32       1.0  0.15781306975259213  0.412456910675374  0.6602293469695298  1.0000
  H   H33       1.0  0.2733266751637516  0.4955693701017127  0.6850299732631697  1.0000
  H   H34       1.0  0.4665603663456325  0.6622599149493524  0.3890934003749679  1.0000
  H   H35       1.0  0.35932720829729453  0.7572721042953675  0.42284002257097353  1.0000
  H   H36       1.0  0.20808053307873564  0.7489146454660587  0.4021090539333728  1.0000
  H   H37       1.0  0.16622791818100782  0.645275402361129  0.3466027922181142  1.0000
  H   H38       1.0  0.2740057814434707  0.5499547361353052  0.3129946663424335  1.0000
  H   H39       1.0  0.9528193069476459  0.331354855872121  0.4741787885192468  1.0000
  H   H40       1.0  0.024194917374693106  0.21932216609024383  0.5140222363464917  1.0000
  H   H41       1.0  0.007899790339450903  0.20342072120899254  0.602191667547281  1.0000
  H   H42       1.0  0.9174499419335975  0.2988926822142518  0.6496067788783935  1.0000
  H   H43       1.0  0.845488857424627  0.4104915742377174  0.6094528756056976  1.0000
  H   H44       1.0  0.06182125455016062  0.5938327612069115  0.41204401813185143  1.0000
  H   H45       1.0  0.9915609491681112  0.720336783962594  0.3904705731651391  1.0000
  H   H46       1.0  0.9915848291011289  0.8324763842709971  0.44672832576558363  1.0000
  H   H47       1.0  0.06361169397998624  0.8177698974422826  0.5241167175137775  1.0000
  H   H48       1.0  0.13576129370696322  0.6918715870525463  0.5445507546486681  1.0000
  C   C1        1.0  0.5132108942715305  0.34717339804512903  0.504289400008844  1.0000
  C   C2        1.0  0.4867774978587392  0.6524475921328236  0.5036632119835006  1.0000
  C   C3        1.0  0.5022195935119455  0.49799116769558077  0.5930760443963267  1.0000
  C   C4        1.0  0.5021905270166941  0.5017772801684687  0.4067210486594847  1.0000
  C   C5        1.0  0.535280110799313  0.4318385475211671  0.8184072354361265  1.0000
  C   C6        1.0  0.5335445776833796  0.5658219300041696  0.17992100482022985  1.0000
  C   C7        1.0  0.5192011434232456  0.5773361883476653  0.8206645847873801  1.0000
  C   C8        1.0  0.5092758258995574  0.4229346696905694  0.17819579598712215  1.0000
  C   C9        1.0  0.5771480333074595  0.5396024079656601  0.7166710451264964  1.0000
  C   C10       1.0  0.5708177658453338  0.45210957022666787  0.2797560763288801  1.0000
  C   C11       1.0  0.571116109247022  0.5351770106995701  0.6674522474254871  1.0000
  C   C12       1.0  0.5664111818238952  0.4568591337405652  0.32926218660048795  1.0000
  C   C13       1.0  0.44226307742371773  0.46382565044116564  0.6757178204063907  1.0000
  C   C14       1.0  0.4424901592187639  0.5448712694291801  0.32676205817652  1.0000
  C   C15       1.0  0.4487095159226727  0.46901191027094313  0.7253103319189977  1.0000
  C   C16       1.0  0.44731040069100203  0.539241232823592  0.2768751700852548  1.0000
  C   C17       1.0  0.5156101605438438  0.5057323056778248  0.745390577535254  1.0000
  C   C18       1.0  0.510989423983439  0.49410070851921256  0.25379120393441923  1.0000
  C   C19       1.0  0.5336048610569791  0.5021234817280487  0.8972906640987689  1.0000
  C   C20       1.0  0.5296407146355194  0.49594210948183104  0.10103471685059162  1.0000
  C   C21       1.0  0.5377004468809476  0.4317360631104138  0.871028665963401  1.0000
  C   C22       1.0  0.5369872129304911  0.5655785721741396  0.12717718903768122  1.0000
  C   C23       1.0  0.5444944994772386  0.36116131302291893  0.8948655467030735  1.0000
  C   C24       1.0  0.5486023747972198  0.6350028890726874  0.10311309392850633  1.0000
  C   C25       1.0  0.5268268011101187  0.5741495388008246  0.8730598944064528  1.0000
  C   C26       1.0  0.5180568082732151  0.4250674969633295  0.12549570999968304  1.0000
  C   C27       1.0  0.5046823123680256  0.4977535357321158  0.6465282411794677  1.0000
  C   C28       1.0  0.5031268091485758  0.5025044539698557  0.3531387241943805  1.0000
  C   C29       1.0  0.5307362089832424  0.42572480645677063  0.02426975338580211  1.0000
  C   C30       1.0  0.5359467227977036  0.572047927196735  0.9740164024478591  1.0000
  C   C31       1.0  0.5404686880150749  0.5700020885807576  0.026010557865412003  1.0000
  C   C32       1.0  0.5374133978118182  0.4270559561974494  0.9721557677904048  1.0000
  C   C33       1.0  0.5337872049310167  0.4972041841850654  0.05002024568468501  1.0000
  C   C34       1.0  0.5358963227593991  0.5003957313699346  0.9482265526247462  1.0000
  C   C35       1.0  0.5201958535460279  0.3569185701923417  0.04996055105858231  1.0000
  C   C36       1.0  0.5303139011441473  0.6418592948286489  0.9485021933204651  1.0000
  C   C37       1.0  0.5130759495226728  0.3565097954070779  0.09973312907841601  1.0000
  C   C38       1.0  0.5250133466038136  0.6431310644355224  0.8988911837072919  1.0000
  C   C39       1.0  0.5436828037867941  0.35902542382882535  0.9446426614797548  1.0000
  C   C40       1.0  0.5496665783133068  0.6370687580655601  0.053333605083075504  1.0000
  C   C41       1.0  0.5176038958184749  0.2608847339852787  0.5116968595344106  1.0000
  C   C42       1.0  0.48224210416798763  0.7389738607568007  0.5101008883920956  1.0000
  C   C43       1.0  0.4426583097338651  0.22017983338427174  0.5150341170618092  1.0000
  C   C44       1.0  0.5559798764650736  0.7810303097885198  0.5046792352996264  1.0000
  C   C45       1.0  0.4450130267777582  0.14021611495041242  0.5205704377999966  1.0000
  C   C46       1.0  0.5532190610373604  0.8610453366834818  0.5102799164379521  1.0000
  C   C47       1.0  0.5235110295752677  0.09934818664596182  0.5227051191438292  1.0000
  C   C48       1.0  0.4757049942013155  0.9004903678581899  0.5216807114128132  1.0000
  C   C49       1.0  0.5985092439787537  0.1399150318095153  0.5205170888701147  1.0000
  C   C50       1.0  0.401885717168085  0.858708491493559  0.5273634134771897  1.0000
  C   C51       1.0  0.5955449984622092  0.2202603922883668  0.5149903730169572  1.0000
  C   C52       1.0  0.40521622671920465  0.778367007978659  0.5216640702669297  1.0000
  C   C53       1.0  0.23682021729436545  0.5576401220590557  0.4911993200873043  1.0000
  C   C54       1.0  0.762513574260062  0.4499335713661452  0.5176113799579625  1.0000
  C   C55       1.0  0.14857095658160804  0.5608082125472293  0.4927790901309735  1.0000
  C   C56       1.0  0.8507074731631193  0.4447647892505204  0.5154303875956431  1.0000
  C   C57       1.0  0.10927011741114974  0.4940958586953457  0.5104876353092536  1.0000
  C   C58       1.0  0.8908356824349398  0.502605253341578  0.4883507836585893  1.0000
  C   C59       1.0  0.15817609621815623  0.43032483001353944  0.5264483417620911  1.0000
  C   C60       1.0  0.8427056930326132  0.5598141464543573  0.4648420280739388  1.0000
  C   C61       1.0  0.2452145564435854  0.4323768172423002  0.5221199993505153  1.0000
  C   C62       1.0  0.755518258885033  0.5600763919276305  0.46983148210928516  1.0000
  C   C63       1.0  0.37303305737387404  0.4175107119995332  0.6573636011632831  1.0000
  C   C64       1.0  0.39161375016490757  0.34678063165384293  0.6336251636340439  1.0000
  C   C65       1.0  0.32698895587419236  0.29944190834272894  0.6204489061545999  1.0000
  C   C66       1.0  0.2426906696165362  0.322656600769129  0.6300598097221483  1.0000
  C   C67       1.0  0.22348911294006515  0.3936092158608062  0.6529732928179259  1.0000
  C   C68       1.0  0.28827152593776634  0.4403501148421257  0.6669025493812415  1.0000
  C   C69       1.0  0.3776519415952748  0.5994042118947862  0.34882749307542593  1.0000
  C   C70       1.0  0.40055762070187484  0.6582576362532536  0.3799498517161269  1.0000
  C   C71       1.0  0.34011541940330403  0.7118536679736495  0.39882661270975467  1.0000
  C   C72       1.0  0.25553585793775824  0.7074058384193052  0.38706419641751216  1.0000
  C   C73       1.0  0.23210080434715513  0.6491936850664575  0.35597661671608455  1.0000
  C   C74       1.0  0.29267109868175123  0.595846752248278  0.3368717447554916  1.0000
  C   C75       1.0  0.8952679826744047  0.37885104737296166  0.5392782619021972  1.0000
  C   C76       1.0  0.9455370484187928  0.32433167477950786  0.5126998224849046  1.0000
  C   C77       1.0  0.9857502943021077  0.26150717485278824  0.5351579077163608  1.0000
  C   C78       1.0  0.976343838654444  0.25244078643443413  0.5845437261863895  1.0000
  C   C79       1.0  0.925540538081002  0.3058847779724446  0.6111303869728673  1.0000
  C   C80       1.0  0.8847915587056011  0.3685354239571198  0.5886316766363466  1.0000
  C   C81       1.0  0.10291951829167802  0.6344969859805404  0.479697890230206  1.0000
  C   C82       1.0  0.06167225601489432  0.6430355332319523  0.43643939591012787  1.0000
  C   C83       1.0  0.0223099956669088  0.7140962128874551  0.42456470665757723  1.0000
  C   C84       1.0  0.022711166854456625  0.7771244426057253  0.4559863876944165  1.0000
  C   C85       1.0  0.06339065632874961  0.7690382814704934  0.4992351428467715  1.0000
  C   C86       1.0  0.10381084902452643  0.6982967545844334  0.510829556874839  1.0000
  N   N1        1.0  0.5227232070451323  0.5052130725782149  0.7964821653360661  1.0000
  N   N2        1.0  0.5171783407792392  0.49417510836738643  0.2023513518659571  1.0000
  N   N3        1.0  0.5337182619050582  0.017642110366473705  0.5242087077676701  1.0000
  N   N4        1.0  0.46531843449203353  0.982028859467903  0.5255097456755778  1.0000
  N   N5        1.0  0.2834715124921843  0.4951484002780476  0.5046959080475446  1.0000
  N   N6        1.0  0.716657444304559  0.5056987330846782  0.495740506076878  1.0000
  N   N7        1.0  0.021087885545355803  0.49068032034975334  0.5174747099484094  1.0000
  N   N8        1.0  0.9793703627341517  0.505481834026064  0.48102508680582207  1.0000
  O   O1        1.0  0.5827623891609125  0.38121381623440703  0.5002342361995886  1.0000
  O   O2        1.0  0.41740342671240444  0.6179321801651982  0.504374762937033  1.0000
  O   O3        1.0  0.43979018782797413  0.3797460129496103  0.5027792902851688  1.0000
  O   O4        1.0  0.5601595347256848  0.6201318671981966  0.4981464581208713  1.0000
  O   O5        1.0  0.5734341693501648  0.5000338424337513  0.5708071704987392  1.0000
  O   O6        1.0  0.4311713501989588  0.4998811862713526  0.42877049806615036  1.0000
  O   O7        1.0  0.4305493184513481  0.49775024645883553  0.5742979989739112  1.0000
  O   O8        1.0  0.5741439210263978  0.501257284954356  0.425697195145709  1.0000
  O   O9        1.0  0.5429874002523292  0.371886336533862  0.7944835216748913  1.0000
  O   O10       1.0  0.543906989756998  0.6247420103244323  0.20348717648049333  1.0000
  O   O11       1.0  0.4953985112221775  0.3628650701426397  0.20028813413487262  1.0000
  O   O12       1.0  0.5095228276420016  0.6388343627689113  0.7988121398272556  1.0000
