data_image0
_chemical_formula_structural       Cd4H18C18N2O24
_chemical_formula_sum              "Cd4 H18 C18 N2 O24"
_cell_length_a       8.300297960321998
_cell_length_b       8.697520224487047
_cell_length_c       11.570849583562074
_cell_angle_alpha    87.56521873268663
_cell_angle_beta     65.32685716647424
_cell_angle_gamma    66.61697476487782

_space_group_name_H-M_alt    "P 1"
_space_group_IT_number       1

loop_
  _space_group_symop_operation_xyz
  'x, y, z'

loop_
  _atom_site_type_symbol
  _atom_site_label
  _atom_site_symmetry_multiplicity
  _atom_site_fract_x
  _atom_site_fract_y
  _atom_site_fract_z
  _atom_site_occupancy
  Cd  Cd1       1.0  0.8056428744583356  0.19811515789479725  0.09947520448563557  1.0000
  Cd  Cd2       1.0  0.19435964215342244  0.8018846750852188  0.9005242366417864  1.0000
  Cd  Cd3       1.0  0.8365292658638025  0.5767167724586882  0.4195825593689549  1.0000
  Cd  Cd4       1.0  0.16347178644577542  0.42328057738309605  0.5804164793007661  1.0000
  H   H1        1.0  0.06075744843096224  0.9762496943333829  0.20309425202810175  1.0000
  H   H2        1.0  0.9392429828538413  0.023748916689690685  0.796905800152324  1.0000
  H   H3        1.0  0.9348498280953522  0.14679446694050566  0.3062151488390869  1.0000
  H   H4        1.0  0.06515200860241782  0.8532041321699138  0.6937827793337096  1.0000
  H   H5        1.0  0.8399800227265221  0.9360152953049761  0.380489368595484  1.0000
  H   H6        1.0  0.1600160480806565  0.0639871692844025  0.6195101017776354  1.0000
  H   H7        1.0  0.8116229056032225  0.897090877615632  0.5205352689459278  1.0000
  H   H8        1.0  0.18837140660385643  0.10291538591665268  0.4794646185077484  1.0000
  H   H9        1.0  0.4613681961760959  0.8495415149895676  0.505127146088583  1.0000
  H   H10       1.0  0.5386303479699136  0.1504583896595051  0.49487254567476685  1.0000
  H   H11       1.0  0.4832645474485346  0.7248605602706276  0.6082321495043532  1.0000
  H   H12       1.0  0.5167353324609749  0.27513932219976306  0.39176716721907223  1.0000
  H   H13       1.0  0.7862452213080646  0.31929247942682065  0.5765403708457486  1.0000
  H   H14       1.0  0.21375257327448333  0.6807061810866343  0.4234595569306736  1.0000
  H   H15       1.0  0.6847274555671066  0.3193095155905396  0.487106559136322  1.0000
  H   H16       1.0  0.31526920144010967  0.6806916826845393  0.512892772209952  1.0000
  H   H17       1.0  0.682127850235794  0.8719823140326425  0.8739318537495822  1.0000
  H   H18       1.0  0.31787727901373597  0.12801497953911678  0.12606431083266054  1.0000
  C   C1        1.0  0.7485764578549379  0.3113053463100427  0.8397174433517666  1.0000
  C   C2        1.0  0.2514290138214792  0.6886906450163222  0.16028470359057684  1.0000
  C   C3        1.0  0.732517138008703  0.4671089627407169  0.9051893311533451  1.0000
  C   C4        1.0  0.26748078511253226  0.532892203089652  0.09481137412070242  1.0000
  C   C5        1.0  0.7091261670256729  0.6169290673420988  0.850264920450748  1.0000
  C   C6        1.0  0.29087947877442133  0.38306694964933286  0.14973285407234027  1.0000
  C   C7        1.0  0.6864771833347659  0.632557610501145  0.7275149546995225  1.0000
  C   C8        1.0  0.3135309009794228  0.36743584141697033  0.2724839156976416  1.0000
  C   C9        1.0  0.7060714787670435  0.7525925154819005  0.9126645726834614  1.0000
  C   C10       1.0  0.2939316936942191  0.24740606144983698  0.08733298044940344  1.0000
  C   C11       1.0  0.7293323945070824  0.7360355193646553  0.026259799882765857  1.0000
  C   C12       1.0  0.27066351293667174  0.2639644347747989  0.9737397674765805  1.0000
  C   C13       1.0  0.7101955834151998  0.8883552451189299  0.09745748143023993  1.0000
  C   C14       1.0  0.28980951100960073  0.11164204331981857  0.9025395576358479  1.0000
  C   C15       1.0  0.7574520674950379  0.5803908589416621  0.07250854864128084  1.0000
  C   C16       1.0  0.242547940953159  0.4196115288456425  0.92749154557977  1.0000
  C   C17       1.0  0.7993535447724228  0.5430067007582904  0.1876157318184539  1.0000
  C   C18       1.0  0.20064340413690465  0.4569995132836199  0.8123842800392185  1.0000
  N   N1        1.0  0.7548818018923811  0.4529362025933778  0.013365574743581052  1.0000
  N   N2        1.0  0.24511804319238453  0.5470636747439951  0.9866346164636898  1.0000
  O   O1        1.0  0.7561874732174659  0.18485598294424926  0.9006635033917268  1.0000
  O   O2        1.0  0.24381497374481848  0.8151438397697388  0.09933768670339312  1.0000
  O   O3        1.0  0.7607991513601178  0.3165948803333691  0.727750935195765  1.0000
  O   O4        1.0  0.23920512385174675  0.6834011537037269  0.27224808885110013  1.0000
  O   O5        1.0  0.8403377468950878  0.6039802805907613  0.6218995030042651  1.0000
  O   O6        1.0  0.1596683217416128  0.39601195963643926  0.378098229478205  1.0000
  O   O7        1.0  0.5177081016225458  0.6836266181959942  0.7337398149583197  1.0000
  O   O8        1.0  0.4822916738127533  0.3163732488753581  0.2662621252166489  1.0000
  O   O9        1.0  0.8593432536039814  0.9263418481587351  0.05002661808338626  1.0000
  O   O10       1.0  0.14065662630552106  0.07365803431165568  0.9499726986400322  1.0000
  O   O11       1.0  0.5506435825463926  0.9722723948163503  0.18894080705825195  1.0000
  O   O12       1.0  0.4493531333500372  0.027731298509607382  0.8110610507533454  1.0000
  O   O13       1.0  0.8259631362614999  0.6549268511604537  0.23591805406198327  1.0000
  O   O14       1.0  0.17403169249613631  0.3450781357915033  0.7640834433325455  1.0000
  O   O15       1.0  0.8099100337447638  0.4042947886800476  0.22948186659546382  1.0000
  O   O16       1.0  0.19008733800117758  0.5957076485976313  0.7705181032215835  1.0000
  O   O17       1.0  0.9242861383100731  0.05883643071459941  0.2635077837444585  1.0000
  O   O18       1.0  0.07571407908653774  0.941165987870775  0.7364870635734848  1.0000
  O   O19       1.0  0.7696180251581239  0.8879649137310748  0.45502341076532116  1.0000
  O   O20       1.0  0.23037742462428673  0.11203881203959297  0.5449770731185029  1.0000
  O   O21       1.0  0.49005318507120416  0.7310743650310909  0.5187484754757608  1.0000
  O   O22       1.0  0.5099453242500686  0.2689255344849713  0.48125209077144177  1.0000
  O   O23       1.0  0.8001692217821699  0.329894957112053  0.48727614359290095  1.0000
  O   O24       1.0  0.19982853797564104  0.6701036982683917  0.5127246586673737  1.0000
