data_image0
_chemical_formula_structural       Cu4P4H100C124Br4N12
_chemical_formula_sum              "Cu4 P4 H100 C124 Br4 N12"
_cell_length_a       13.11312979176092
_cell_length_b       14.347657311741022
_cell_length_c       20.0712247748063
_cell_angle_alpha    81.60371082899242
_cell_angle_beta     71.37529798470825
_cell_angle_gamma    62.78126385624928

_space_group_name_H-M_alt    "P 1"
_space_group_IT_number       1

loop_
  _space_group_symop_operation_xyz
  'x, y, z'

loop_
  _atom_site_type_symbol
  _atom_site_label
  _atom_site_symmetry_multiplicity
  _atom_site_fract_x
  _atom_site_fract_y
  _atom_site_fract_z
  _atom_site_occupancy
  Cu  Cu1       1.0  0.06821526346757154  0.5483704258557012  0.46029082255643766  1.0000
  Cu  Cu2       1.0  0.3833869284458658  0.5483480803637236  0.03974060679212944  1.0000
  Cu  Cu3       1.0  0.931780758428054  0.4516436122365306  0.5397127740092387  1.0000
  Cu  Cu4       1.0  0.6166109087838406  0.4516447982665995  0.9602607637210525  1.0000
  P   P1        1.0  0.23576012359076495  0.5346045542440692  0.47061530626758946  1.0000
  P   P2        1.0  0.2296888602815982  0.5344767630727603  0.029373743688651584  1.0000
  P   P3        1.0  0.7642427691129112  0.4654055641897515  0.5293833183123124  1.0000
  P   P4        1.0  0.7703033133615163  0.46552081858967403  0.9706327760543159  1.0000
  H   H1        1.0  0.13673443915935468  0.5542384182053298  0.3065096475528151  1.0000
  H   H2        1.0  0.30922690983465617  0.5543290081153955  0.19350641659570295  1.0000
  H   H3        1.0  0.8632606641394743  0.4457630814025961  0.693492901039022  1.0000
  H   H4        1.0  0.6907838447009453  0.44566543504603834  0.8064912069638692  1.0000
  H   H5        1.0  0.044707306819397136  0.6533459732555543  0.2116521912835267  1.0000
  H   H6        1.0  0.30194357359486185  0.6536853409425303  0.2882777965970292  1.0000
  H   H7        1.0  0.9552870123435111  0.34665709388607274  0.7883503573454503  1.0000
  H   H8        1.0  0.6980651793470044  0.34630988634658894  0.711720150080147  1.0000
  H   H9        1.0  0.7307550734908613  0.8412843488855088  0.37355738194247573  1.0000
  H   H10       1.0  0.42718588234104965  0.841789155527465  0.12622162175981078  1.0000
  H   H11       1.0  0.2692413192288114  0.1587210689318681  0.6264430195707006  1.0000
  H   H12       1.0  0.572810592115317  0.15821469525960202  0.8737739380209673  1.0000
  H   H13       1.0  0.8385859204728515  0.7349448107858908  0.4628759097470122  1.0000
  H   H14       1.0  0.42581008764539496  0.7352631028930504  0.037006287257163664  1.0000
  H   H15       1.0  0.1614120921632035  0.26506217399161613  0.537124507479227  1.0000
  H   H16       1.0  0.5741958997310874  0.26473134154469585  0.962989303652641  1.0000
  H   H17       1.0  0.6580702112094765  0.9808436476751086  0.07565999267230687  1.0000
  H   H18       1.0  0.36097716208448094  0.9801754585639628  0.4246137537575975  1.0000
  H   H19       1.0  0.34193672470171776  0.0191554989004104  0.9243309495550207  1.0000
  H   H20       1.0  0.6390162369379339  0.01983152797430421  0.5753771259517036  1.0000
  H   H21       1.0  0.3486678263820479  0.20081482781145613  0.010960614171267478  1.0000
  H   H22       1.0  0.44945386148553007  0.20034145268747494  0.48982481718596904  1.0000
  H   H23       1.0  0.6513296687276476  0.79916629643774  0.989031541645474  1.0000
  H   H24       1.0  0.5505441299066118  0.7996576955820274  0.5101724050063439  1.0000
  H   H25       1.0  0.22213024639615495  0.21833104024582886  0.13551297649891583  1.0000
  H   H26       1.0  0.5587432715606225  0.2179739615783447  0.36537604743951124  1.0000
  H   H27       1.0  0.7778740692651738  0.7816555679155713  0.8644817437739077  1.0000
  H   H28       1.0  0.4412726212666269  0.782014994609284  0.6346220919904865  1.0000
  H   H29       1.0  0.4699931881846451  0.5477301121512498  0.414927352453553  1.0000
  H   H30       1.0  0.9821717605023107  0.5471341711865351  0.0854574090866933  1.0000
  H   H31       1.0  0.5300069905981742  0.4522839254587154  0.5850689321463207  1.0000
  H   H32       1.0  0.0178258307461404  0.45285557209130195  0.9145542909408063  1.0000
  H   H33       1.0  0.6392804972547879  0.4739989654832897  0.30851133713674966  1.0000
  H   H34       1.0  0.8873128737838198  0.4735106877270141  0.19218301322404585  1.0000
  H   H35       1.0  0.3607231177039054  0.526004883357004  0.6914877719431516  1.0000
  H   H36       1.0  0.112687100889964  0.5264774876239855  0.8078288639917656  1.0000
  H   H37       1.0  0.6257122170177138  0.37594019168610526  0.22047560962720072  1.0000
  H   H38       1.0  0.9995214833828138  0.37607900362294094  0.2801148978184215  1.0000
  H   H39       1.0  0.37429087218332296  0.6240581713464551  0.7795266471431858  1.0000
  H   H40       1.0  0.0004913467159611065  0.6239060341993367  0.7198937169809196  1.0000
  H   H41       1.0  0.44423056524187376  0.34947808296598026  0.24190255818918152  1.0000
  H   H42       1.0  0.20747309355839144  0.3499886466546087  0.2581733409508615  1.0000
  H   H43       1.0  0.5557689542478244  0.6505257665503522  0.758100860909657  1.0000
  H   H44       1.0  0.7925370744182983  0.6500065796600367  0.7418337887923626  1.0000
  H   H45       1.0  0.27703010059339306  0.4159899976191356  0.3529075575726424  1.0000
  H   H46       1.0  0.3075062346252152  0.41628543660404926  0.1468614775714272  1.0000
  H   H47       1.0  0.7229674894198368  0.5840193381170167  0.6470951997821784  1.0000
  H   H48       1.0  0.6924956065631418  0.5837137102142976  0.8531434423894309  1.0000
  H   H49       1.0  0.47563599643763854  0.3638253004364458  0.47681452989225886  1.0000
  H   H50       1.0  0.16058463897871172  0.36396002416906004  0.023243443255488192  1.0000
  H   H51       1.0  0.5243651021772066  0.6361816831995172  0.5231917453541328  1.0000
  H   H52       1.0  0.8394102481225472  0.6360289364511759  0.9767628990577746  1.0000
  H   H53       1.0  0.5435637234146  0.2514055117051229  0.5749161085299902  1.0000
  H   H54       1.0  0.20511998841327983  0.25138890363935223  0.9252291181208321  1.0000
  H   H55       1.0  0.45642328246164954  0.7486100951436897  0.4250981094086013  1.0000
  H   H56       1.0  0.794881346873211  0.7485984882811183  0.07477459233524539  1.0000
  H   H57       1.0  0.4020498992001506  0.27551239898744484  0.6946732704076197  1.0000
  H   H58       1.0  0.32248355432368214  0.2753253864264806  0.8054468097977149  1.0000
  H   H59       1.0  0.5979236617603758  0.7245094808261004  0.3053355429560725  1.0000
  H   H60       1.0  0.6775213923907867  0.7246643555828172  0.19455793271487207  1.0000
  H   H61       1.0  0.19095768994973372  0.4128576290334181  0.7162447192583483  1.0000
  H   H62       1.0  0.39622971881762936  0.41260265958963777  0.7837149312512536  1.0000
  H   H63       1.0  0.8090140018728744  0.5871587661729478  0.2837545564584189  1.0000
  H   H64       1.0  0.6037728652527076  0.5873917849884622  0.21629031169722165  1.0000
  H   H65       1.0  0.12067445571693715  0.5216794087580682  0.6172971495482784  1.0000
  H   H66       1.0  0.3577620834926236  0.521497169969578  0.8825959693444786  1.0000
  H   H67       1.0  0.8793093688129403  0.47833541664705587  0.38269586184228627  1.0000
  H   H68       1.0  0.6422348261378089  0.4784957084536075  0.11741156661195616  1.0000
  H   H69       1.0  0.12645238456597924  0.7399405810599619  0.4129856454300976  1.0000
  H   H70       1.0  0.1336045165323226  0.7397593238915476  0.0869610158194689  1.0000
  H   H71       1.0  0.8735481656578302  0.260071105429887  0.5870108006635846  1.0000
  H   H72       1.0  0.8663780820013044  0.26023982748301944  0.9130442790584538  1.0000
  H   H73       1.0  0.1119592997529534  0.9142929276201531  0.43048418430779367  1.0000
  H   H74       1.0  0.9738432103318072  0.9141872102023074  0.06931351353212264  1.0000
  H   H75       1.0  0.8880427881878318  0.08571719099408881  0.5695146018216233  1.0000
  H   H76       1.0  0.026143575952353598  0.0858135080755744  0.9306838075431401  1.0000
  H   H77       1.0  0.19885828894002328  0.9351557706382823  0.5178357601934066  1.0000
  H   H78       1.0  0.8660992847279584  0.935064187606436  0.9819407035922222  1.0000
  H   H79       1.0  0.8011361640668184  0.06485513336661342  0.48216447990023426  1.0000
  H   H80       1.0  0.1338983856338416  0.064929475501259  0.018049659801007974  1.0000
  H   H81       1.0  0.30209122052989557  0.7805092023715403  0.5865983075675558  1.0000
  H   H82       1.0  0.9173368719503682  0.7803306050772818  0.9133615703206386  1.0000
  H   H83       1.0  0.6978980118316683  0.21950248648273876  0.41340290184175627  1.0000
  H   H84       1.0  0.08266745394732306  0.21965600311641253  0.08663264962770258  1.0000
  H   H85       1.0  0.3216040187386467  0.6060461059321869  0.5667986487692358  1.0000
  H   H86       1.0  0.07227000825822216  0.6058175065534214  0.9332829426263203  1.0000
  H   H87       1.0  0.6783903931685059  0.3939632306548404  0.4332027534857373  1.0000
  H   H88       1.0  0.9277314092276612  0.3941730202027856  0.06671844350707794  1.0000
  H   H89       1.0  0.31276984464265206  0.11590817184274735  0.22923595188296989  1.0000
  H   H90       1.0  0.5711190265150847  0.11558745882058473  0.2714580694902509  1.0000
  H   H91       1.0  0.6872410331920517  0.8840909735722847  0.7707581851925908  1.0000
  H   H92       1.0  0.4289064411131701  0.8843967930775493  0.7285396165316341  1.0000
  H   H93       1.0  0.5664718128474461  0.08195340181487862  0.9811470454745431  1.0000
  H   H94       1.0  0.35111841280742334  0.08105088149394389  0.519358622825365  1.0000
  H   H95       1.0  0.43352740562193026  0.9180402607381951  0.018845996766522377  1.0000
  H   H96       1.0  0.6488725204360289  0.9189529708467461  0.48063356488172104  1.0000
  H   H97       1.0  0.8708416530669183  0.798541941482327  0.17628661164313525  1.0000
  H   H98       1.0  0.33007492852809844  0.7989512328883068  0.3235573274463021  1.0000
  H   H99       1.0  0.12916623369386568  0.20145328579344127  0.8237144985304211  1.0000
  H   H100      1.0  0.6699370844107833  0.2010439938083124  0.6764379717348844  1.0000
  C   C1        1.0  0.04782211719160025  0.6198380810276876  0.3191078407229853  1.0000
  C   C2        1.0  0.3323123690253951  0.6200307097424513  0.18084383477610536  1.0000
  C   C3        1.0  0.9521741626195775  0.3801642018570561  0.6808963860862958  1.0000
  C   C4        1.0  0.6676987671875666  0.3799613823311461  0.8191534499528004  1.0000
  C   C5        1.0  0.996003258819556  0.6752857529918758  0.26655427083867517  1.0000
  C   C6        1.0  0.32856817107457903  0.6755990263297847  0.23335762334494345  1.0000
  C   C7        1.0  0.003993866699978758  0.3247165298416306  0.733447793123176  1.0000
  C   C8        1.0  0.6714422117115643  0.3243946333744034  0.7666381604476625  1.0000
  C   C9        1.0  0.8794367835831379  0.7566825905990769  0.28536448704036127  1.0000
  C   C10       1.0  0.36350416336123426  0.7570799539875636  0.21448238013735474  1.0000
  C   C11       1.0  0.12056083667648917  0.24332204336791818  0.7146342519312937  1.0000
  C   C12       1.0  0.636505486470817  0.24291527341181052  0.7855109020700013  1.0000
  C   C13       1.0  0.821849000233129  0.7795024723397717  0.3573789733242164  1.0000
  C   C14       1.0  0.39810457468394816  0.7799074741897203  0.14246230693424872  1.0000
  C   C15       1.0  0.17814734115048478  0.22050137802743563  0.6426230906747745  1.0000
  C   C16       1.0  0.6019030326089092  0.22008853720815585  0.8575332996886187  1.0000
  C   C17       1.0  0.8803473536180346  0.7212472259024879  0.40642158162590647  1.0000
  C   C18       1.0  0.3979179509008685  0.7215421345133849  0.0934744778101475  1.0000
  C   C19       1.0  0.11964817292055584  0.2787581919015309  0.5935819833836575  1.0000
  C   C20       1.0  0.6020903994282064  0.27845074193292874  0.9065222909369196  1.0000
  C   C21       1.0  0.8198588640695518  0.81285302520277  0.2321987742113904  1.0000
  C   C22       1.0  0.3669022250681734  0.8132186043836215  0.26767394589907667  1.0000
  C   C23       1.0  0.1801458859933192  0.1871469049191106  0.7678014969741368  1.0000
  C   C24       1.0  0.6331086422216925  0.18677740642175417  0.7323190132278083  1.0000
  C   C25       1.0  0.5628408447856401  0.0334833800791685  0.08789298853077547  1.0000
  C   C26       1.0  0.4034117749507826  0.032909486412087595  0.41250975390152433  1.0000
  C   C27       1.0  0.43716486343137684  0.9665149830580475  0.9120987771014907  1.0000
  C   C28       1.0  0.596587557198276  0.9670951475170214  0.5874836587263202  1.0000
  C   C29       1.0  0.3884811980965565  0.15650768519171981  0.052287060789019804  1.0000
  C   C30       1.0  0.45421296316764875  0.1560107858478403  0.4484032141609617  1.0000
  C   C31       1.0  0.6115187323914737  0.8434797077355328  0.9477069662765202  1.0000
  C   C32       1.0  0.5457907332192702  0.8439883613847811  0.5515893749133838  1.0000
  C   C33       1.0  0.31752535990825237  0.1656080071652326  0.12194871698864766  1.0000
  C   C34       1.0  0.5161887970082049  0.16521215796500147  0.3787980100444698  1.0000
  C   C35       1.0  0.6824770465951102  0.8343825199918913  0.8780435017546252  1.0000
  C   C36       1.0  0.48382193690042613  0.8347807178431595  0.6211997750274774  1.0000
  C   C37       1.0  0.3619897953092277  0.48673127581494663  0.39092001219447775  1.0000
  C   C38       1.0  0.15152290405306687  0.48655253340306376  0.10911740239544085  1.0000
  C   C39       1.0  0.6380142632077224  0.5132749239973505  0.6090782735176247  1.0000
  C   C40       1.0  0.8484772247831456  0.5134419115871084  0.8908903264995016  1.0000
  C   C41       1.0  0.464452781647111  0.5028788824161624  0.3779033646743101  1.0000
  C   C42       1.0  0.03290161791230864  0.5024813782539113  0.12238560610397542  1.0000
  C   C43       1.0  0.5355452824792405  0.4971312371001917  0.6220962292026968  1.0000
  C   C44       1.0  0.9670956530769881  0.4975107163055341  0.8776234308073255  1.0000
  C   C45       1.0  0.5597349471229263  0.46178179651018797  0.31739833049530813  1.0000
  C   C46       1.0  0.9790587610434611  0.46147889247281176  0.18307906657035017  1.0000
  C   C47       1.0  0.4402670480736289  0.5382220526586537  0.6826016020081125  1.0000
  C   C48       1.0  0.02094371027261833  0.5385139844613392  0.8169308408108121  1.0000
  C   C49       1.0  0.5524563015445735  0.4066406101054625  0.26842388408717704  1.0000
  C   C50       1.0  0.041800450085695134  0.40668715709181674  0.23200412894649955  1.0000
  C   C51       1.0  0.4475484385904095  0.5933624545614862  0.7315785656959903  1.0000
  C   C52       1.0  0.9582075824533189  0.5933010164872529  0.7680056324496574  1.0000
  C   C53       1.0  0.44998503837944537  0.39173597562490414  0.280518671176992  1.0000
  C   C54       1.0  0.15915654175681465  0.3919897017645512  0.21964059811849518  1.0000
  C   C55       1.0  0.5500172977032347  0.6082670896156089  0.7194837629302455  1.0000
  C   C56       1.0  0.8408480339793626  0.608007093230917  0.7803665003100091  1.0000
  C   C57       1.0  0.35571116824956306  0.4305757879374427  0.34179930417807464  1.0000
  C   C58       1.0  0.21424749166308013  0.4307146965064633  0.15816649245100933  1.0000
  C   C59       1.0  0.6442900327289391  0.5694311960214834  0.6582019678235369  1.0000
  C   C60       1.0  0.7857543904707425  0.5692844504410673  0.841836426211934  1.0000
  C   C61       1.0  0.2941368574828118  0.4511378959312609  0.5405214939212896  1.0000
  C   C62       1.0  0.25486530461698464  0.451055470431413  0.9594487804874914  1.0000
  C   C63       1.0  0.7058567293429476  0.5488730080602764  0.45948190966873875  1.0000
  C   C64       1.0  0.7451271992131862  0.5489366254043517  0.04055822377404186  1.0000
  C   C65       1.0  0.4127871106582999  0.3745635529165058  0.5291945426799954  1.0000
  C   C66       1.0  0.21271977797184863  0.37458053414323444  0.9708431300517261  1.0000
  C   C67       1.0  0.5872071475491222  0.6254442158973887  0.47081352530558007  1.0000
  C   C68       1.0  0.7872812479087795  0.6254154782458701  0.02916077350997878  1.0000
  C   C69       1.0  0.451275610370139  0.3114601275883829  0.5845404385041775  1.0000
  C   C70       1.0  0.23733258901982873  0.3114269685344625  0.9155340699593424  1.0000
  C   C71       1.0  0.5487107137338468  0.6885570471170938  0.4154687762267669  1.0000
  C   C72       1.0  0.7626671472857179  0.6885635583565133  0.0844711415444408  1.0000
  C   C73       1.0  0.37188783501257916  0.3255608855664818  0.6519174477474792  1.0000
  C   C74       1.0  0.3026129814331214  0.32542426560128485  0.8481407092757537  1.0000
  C   C75       1.0  0.6280905438262038  0.6744562912661893  0.34808837923385016  1.0000
  C   C76       1.0  0.697390758059896  0.6745646930343059  0.15186385599282193  1.0000
  C   C77       1.0  0.25363691019437323  0.4025300636063848  0.6638395963406366  1.0000
  C   C78       1.0  0.3439015432076927  0.40234378993024933  0.8361542721537275  1.0000
  C   C79       1.0  0.7463451307915037  0.597484761610545  0.33616224366509323  1.0000
  C   C80       1.0  0.6560969967297153  0.5976522227740519  0.16385361832787018  1.0000
  C   C81       1.0  0.21423013498773702  0.46429205245924277  0.608582048086852  1.0000
  C   C82       1.0  0.3216038125640565  0.46414105532562644  0.8913738948569047  1.0000
  C   C83       1.0  0.7857595404693779  0.5357172855009864  0.3914158205449282  1.0000
  C   C84       1.0  0.6783906212052807  0.5358502561563655  0.10863628855837253  1.0000
  C   C85       1.0  0.2278057879642288  0.6604969461649973  0.48735725036190997  1.0000
  C   C86       1.0  0.1116310906774982  0.6603271657293707  0.012662085474921992  1.0000
  C   C87       1.0  0.7721955054500353  0.3395131726619597  0.5126411969925471  1.0000
  C   C88       1.0  0.8883666845170736  0.33965944355244193  0.9873389304388237  1.0000
  C   C89       1.0  0.16759897510418384  0.7485627426671472  0.44978385775030455  1.0000
  C   C90       1.0  0.08381940097254398  0.7484105988465118  0.0501702329531568  1.0000
  C   C91       1.0  0.8324023801909847  0.2514520782196428  0.5502141050670132  1.0000
  C   C92       1.0  0.9161688411376613  0.2515885512973952  0.9498334307536705  1.0000
  C   C93       1.0  0.1581721861653093  0.8465641997259398  0.4602225345871034  1.0000
  C   C94       1.0  0.9952758412744273  0.8464418621614341  0.03965054422566534  1.0000
  C   C95       1.0  0.8418278897911405  0.15344513569502283  0.5397762358478245  1.0000
  C   C96       1.0  0.004718436017604673  0.15355180111891542  0.9603489708817606  1.0000
  C   C97       1.0  0.2067148837763708  0.8584344169773886  0.509419303288979  1.0000
  C   C98       1.0  0.9348853331486139  0.8583091256360904  0.9904452379235165  1.0000
  C   C99       1.0  0.7932811275744241  0.1415764865051798  0.4905831153280216  1.0000
  C   C100      1.0  0.06511221422255889  0.1416829697953617  0.009550290226869193  1.0000
  C   C101      1.0  0.26455519261455845  0.7717523042851727  0.5479063660469379  1.0000
  C   C102      1.0  0.9636377030217744  0.7715773666597913  0.9520529668005793  1.0000
  C   C103      1.0  0.7354404472952396  0.22826095031751953  0.45209589107624737  1.0000
  C   C104      1.0  0.036361453875173255  0.22841472841081875  0.047942238250776384  1.0000
  C   C105      1.0  0.2756701370373876  0.6732309214333297  0.5367225665804651  1.0000
  C   C106      1.0  0.05101521444640137  0.6730408614710728  0.9632949631971356  1.0000
  C   C107      1.0  0.7243247801546813  0.3267839008968422  0.46327668863299454  1.0000
  C   C108      1.0  0.9489854497668943  0.32695280020440265  0.03670576113655237  1.0000
  C   C109      1.0  0.5474524684930911  0.9815571406753064  0.21299258585244724  1.0000
  C   C110      1.0  0.4708141060720476  0.9814072289658499  0.28728296106356044  1.0000
  C   C111      1.0  0.45255606670751547  0.0184420055070689  0.7869985336003182  1.0000
  C   C112      1.0  0.5291951516920363  0.018588782200367904  0.712710321162362  1.0000
  C   C113      1.0  0.4918645721196525  0.04185091811075382  0.15833388166043957  1.0000
  C   C114      1.0  0.4660308509963613  0.0414610945575333  0.34211916037917683  1.0000
  C   C115      1.0  0.5081434067684255  0.9581443094556834  0.841662725592819  1.0000
  C   C116      1.0  0.5339784067677299  0.9585349166086916  0.6578741218467455  1.0000
  C   C117      1.0  0.3684852793310183  0.10869201766705323  0.1748636281851148  1.0000
  C   C118      1.0  0.5224495869668785  0.1083102485853118  0.3257788464638764  1.0000
  C   C119      1.0  0.6315215745350069  0.8913055613614137  0.8251304775014602  1.0000
  C   C120      1.0  0.4775659545836459  0.8916779242096666  0.6742164525501975  1.0000
  C   C121      1.0  0.5112463784863052  0.09037988541167151  0.0356037010698884  1.0000
  C   C122      1.0  0.3978442641831776  0.08972193340969171  0.4649313406881318  1.0000
  C   C123      1.0  0.4887608359674046  0.9096090733096462  0.964387709888669  1.0000
  C   C124      1.0  0.6021494138444649  0.910279567140421  0.5350625251621322  1.0000
  Br  Br1       1.0  0.9087534655022365  0.6247217542241686  0.5744973698638987  1.0000
  Br  Br2       1.0  0.46647509321417846  0.6247321722514698  0.9255454243416988  1.0000
  Br  Br3       1.0  0.0912359521935641  0.37530090623222634  0.42550070766084497  1.0000
  Br  Br4       1.0  0.5335235790248163  0.375256004429275  0.07445176623880201  1.0000
  N   N1        1.0  0.9919105475087373  0.6413608980367087  0.3881418035471  1.0000
  N   N2        1.0  0.3665545611832074  0.6415156760228912  0.11179884593202151  1.0000
  N   N3        1.0  0.008084679243424332  0.35864687111350696  0.6118580976973078  1.0000
  N   N4        1.0  0.6334590096369156  0.3584748482853542  0.8881961143627989  1.0000
  N   N5        1.0  0.7073306549539278  0.8781522412888878  0.25110202344061605  1.0000
  N   N6        1.0  0.41431983175634446  0.8783279658606348  0.24888234839428944  1.0000
  N   N7        1.0  0.2926754358658599  0.1218531744926068  0.748894438180443  1.0000
  N   N8        1.0  0.5856918095873098  0.12166804466743027  0.7511119501565133  1.0000
  N   N9        1.0  0.6639416601418018  0.92880663656544  0.19541488625261394  1.0000
  N   N10       1.0  0.4070657353663234  0.9287309137699538  0.30469271708093965  1.0000
  N   N11       1.0  0.336067670048024  0.0711972112702668  0.8045790893848448  1.0000
  N   N12       1.0  0.592947546057971  0.07126352920547421  0.6952989182608177  1.0000
