data_image0
_chemical_formula_structural       Zn4H34C59N4Cl2O26
_chemical_formula_sum              "Zn4 H34 C59 N4 Cl2 O26"
_cell_length_a       9.766653426838447
_cell_length_b       11.069742320450459
_cell_length_c       21.834516658871323
_cell_angle_alpha    90.2664361386059
_cell_angle_beta     89.02449343042026
_cell_angle_gamma    90.33220762420561

_space_group_name_H-M_alt    "P 1"
_space_group_IT_number       1

loop_
  _space_group_symop_operation_xyz
  'x, y, z'

loop_
  _atom_site_type_symbol
  _atom_site_label
  _atom_site_symmetry_multiplicity
  _atom_site_fract_x
  _atom_site_fract_y
  _atom_site_fract_z
  _atom_site_occupancy
  Zn  Zn1       1.0  0.65616089324768  0.47420201613384455  0.4885449102697024  1.0000
  Zn  Zn2       1.0  0.3725782806896873  0.47242059106868334  0.5000427760113197  1.0000
  Zn  Zn3       1.0  0.33721984497113766  0.5250627908982466  0.9963120872771682  1.0000
  Zn  Zn4       1.0  0.6229477895651954  0.5254624158982111  0.9981334500825199  1.0000
  H   H1        1.0  0.16991099840173257  0.36920135103154195  0.4219598255415491  1.0000
  H   H2        1.0  0.10762971417377538  0.5614303291644447  0.6370050422147955  1.0000
  H   H3        1.0  0.11709446069362166  0.6945344382178078  0.5907717757153819  1.0000
  H   H4        1.0  0.8572192509872848  0.6866115118371781  0.5790292174557479  1.0000
  H   H5        1.0  0.850164910818954  0.5545881929340197  0.6256378301023418  1.0000
  H   H6        1.0  0.7321424128629487  0.8730668235108825  0.5250547662114471  1.0000
  H   H7        1.0  0.23496860770078598  0.8335260912528851  0.43016681166876225  1.0000
  H   H8        1.0  0.18590643841748286  0.8491233488814347  0.5087655021324125  1.0000
  H   H9        1.0  0.17605501841078558  0.0749279507824454  0.4976607806131881  1.0000
  H   H10       1.0  0.22860583964435216  0.05998342234541099  0.4188599207597221  1.0000
  H   H11       1.0  0.7012664479516033  0.3466974414468496  0.8717477203625065  1.0000
  H   H12       1.0  0.7525274937106302  0.32331975817015757  0.6450211493719351  1.0000
  H   H13       1.0  0.33592993350735156  0.5449431728276651  0.6828747819177607  1.0000
  H   H14       1.0  0.3178968709507401  0.5655158545052643  0.7967814363364099  1.0000
  H   H15       1.0  0.25900541177259123  0.5688372266626303  0.192317080600688  1.0000
  H   H16       1.0  0.8010221425897582  0.49447590516329837  0.19023041108368938  1.0000
  H   H17       1.0  0.7978973771698675  0.6550469359512405  0.18980025442266424  1.0000
  H   H18       1.0  0.7922002180145425  0.6533962558826191  0.3059023107810432  1.0000
  H   H19       1.0  0.7980770445426799  0.49301746193300033  0.3040707134062544  1.0000
  H   H20       1.0  0.8393173740702122  0.4583253267437258  0.0907642046992336  1.0000
  H   H21       1.0  0.862817177617643  0.5219184924866839  0.85441408306135  1.0000
  H   H22       1.0  0.8762381997873232  0.674228645115754  0.8806859124775598  1.0000
  H   H23       1.0  0.1360707454212786  0.6539785871880143  0.8825125580351028  1.0000
  H   H24       1.0  0.1199714873130944  0.49983433852726483  0.8577072396442063  1.0000
  H   H25       1.0  0.24835672008058648  0.9140891646276402  0.9729023115637928  1.0000
  H   H26       1.0  0.7614100735975384  0.8984251143368812  0.051966621639600405  1.0000
  H   H27       1.0  0.7960024005944389  0.9039307163469985  0.9715154015338641  1.0000
  H   H28       1.0  0.8019052466042353  0.1314745156849995  0.9760500020419727  1.0000
  H   H29       1.0  0.7687746341097039  0.1262287490060743  0.0565136804013235  1.0000
  H   H30       1.0  0.052881171414320194  0.2177901882556341  0.4055933057572929  1.0000
  H   H31       1.0  0.821128963723595  0.0752976175765454  0.441656793216147  1.0000
  H   H32       1.0  0.1332744362075218  0.46373768866165216  0.2543741225947542  1.0000
  H   H33       1.0  0.2575598984170924  0.33368121656221217  0.068388999733223  1.0000
  H   H34       1.0  0.14729968798870627  0.09588652460804069  0.0475089308152619  1.0000
  C   C1        1.0  0.5263304049293325  0.708305589751788  0.5079637739221282  1.0000
  C   C2        1.0  0.5246454654861665  0.44903543087393427  0.6143296155435465  1.0000
  C   C3        1.0  0.5016283484403343  0.23747928394194429  0.4881177618731627  1.0000
  C   C4        1.0  0.4848307483986146  0.5231335096738549  0.380531618777681  1.0000
  C   C5        1.0  0.4596310851280378  0.7576718555192417  0.987642700535723  1.0000
  C   C6        1.0  0.49389241710078124  0.49299387866877725  0.8799254295543975  1.0000
  C   C7        1.0  0.4779704315487335  0.2854360166110439  0.0007324233501862011  1.0000
  C   C8        1.0  0.47832477410462093  0.5506122805423601  0.1147816205258749  1.0000
  C   C9        1.0  0.07564836793908108  0.527128211509023  0.539121800310852  1.0000
  C   C10       1.0  0.9583814079221253  0.4017635756138063  0.4499208216431184  1.0000
  C   C11       1.0  0.9332779347200956  0.5221815987194701  0.5328532130897514  1.0000
  C   C12       1.0  0.1004478860290945  0.41040630106473963  0.4554537645729013  1.0000
  C   C13       1.0  0.0689346948223601  0.6052064615760244  0.5957991109358644  1.0000
  C   C14       1.0  0.9071730688683173  0.6005302039430588  0.5887472448898095  1.0000
  C   C15       1.0  0.5203141981601718  0.8429772673738827  0.5040316540021905  1.0000
  C   C16       1.0  0.5089224167065112  0.10324858898492553  0.4935048079617346  1.0000
  C   C17       1.0  0.4006205410902908  0.9032641232684853  0.4892103551854206  1.0000
  C   C18       1.0  0.6313015588518809  0.042866460205154104  0.5088295318305143  1.0000
  C   C19       1.0  0.3958124970767471  0.0289510416189671  0.4839282544108272  1.0000
  C   C20       1.0  0.6361904062657686  0.9166743126278264  0.513402733346993  1.0000
  C   C21       1.0  0.2520223578812945  0.8861998896101824  0.4721441899717362  1.0000
  C   C22       1.0  0.24645029352910086  0.028465746377577296  0.4657840254770491  1.0000
  C   C23       1.0  0.5023294898578854  0.4683054371616253  0.8126156714019288  1.0000
  C   C24       1.0  0.614297516092165  0.4033353175335891  0.7856438733584596  1.0000
  C   C25       1.0  0.40290773266486457  0.516360905715807  0.7757024066340321  1.0000
  C   C26       1.0  0.7128986432081347  0.34562868552679765  0.8221384383680287  1.0000
  C   C27       1.0  0.8253265399137318  0.28931886292009074  0.7961818512407035  1.0000
  C   C28       1.0  0.5235603544824058  0.4484183828104378  0.6833171286723996  1.0000
  C   C29       1.0  0.4135481273300242  0.5057680639005965  0.7118221874126149  1.0000
  C   C30       1.0  0.6273689979182535  0.3949725607483644  0.7198894929721716  1.0000
  C   C31       1.0  0.7420607337036031  0.33295090328421406  0.6944360201109632  1.0000
  C   C32       1.0  0.8408745835013889  0.28420530600706684  0.731333700470941  1.0000
  C   C33       1.0  0.4780368433404191  0.5644100582931912  0.18245495737830447  1.0000
  C   C34       1.0  0.4765215836041249  0.5564677137820198  0.3144565787550846  1.0000
  C   C35       1.0  0.5981280867723697  0.5708451099714152  0.2156204548787315  1.0000
  C   C36       1.0  0.3520621787490085  0.5622103759735709  0.281306443293083  1.0000
  C   C37       1.0  0.5963725406422996  0.5682274674656186  0.2797376907981359  1.0000
  C   C38       1.0  0.3547913274936149  0.5654920596699  0.21719124874872617  1.0000
  C   C39       1.0  0.753066345029552  0.574096784083203  0.2113185741605008  1.0000
  C   C40       1.0  0.7510708056972746  0.5722557458202147  0.2835394433505201  1.0000
  C   C41       1.0  0.9149932953853438  0.5386795179557424  0.9518708661114347  1.0000
  C   C42       1.0  0.0445706375383139  0.46568879103850264  0.0516575384161087  1.0000
  C   C43       1.0  0.05724204978516668  0.5284914214131291  0.9534037287937878  1.0000
  C   C44       1.0  0.9016244564851233  0.4780892322375081  0.0502082786585376  1.0000
  C   C45       1.0  0.9151666438775192  0.5822609195014365  0.886525427720727  1.0000
  C   C46       1.0  0.07711716635370888  0.5699208769781947  0.8879908113948147  1.0000
  C   C47       1.0  0.46346445075086956  0.892221957604832  0.9885531367225724  1.0000
  C   C48       1.0  0.4710474517270171  0.15209924488772944  0.994341111513407  1.0000
  C   C49       1.0  0.5843774384468644  0.956155831253028  0.9977716422432009  1.0000
  C   C50       1.0  0.3471375448322148  0.088096437408943  0.9837866632695764  1.0000
  C   C51       1.0  0.5877021343467702  0.08215714439593573  0.00041633181268710043  1.0000
  C   C52       1.0  0.34437468046834846  0.9616685066794801  0.9814241142182779  1.0000
  C   C53       1.0  0.7362763748709966  0.9447085062580598  0.009251409078409297  1.0000
  C   C54       1.0  0.740176185240294  0.0875079017071059  0.012093632744708298  1.0000
  C   C55       1.0  0.9000775479616363  0.3278963766814584  0.3984280803300564  1.0000
  C   C56       1.0  0.760079272637128  0.1110847606238181  0.524067473170902  1.0000
  C   C57       1.0  0.21573892290924587  0.5756258165126341  0.31363990501452577  1.0000
  C   C58       1.0  0.10306089467643889  0.4188802272480173  0.11094919400937188  1.0000
  C   C59       1.0  0.2163845379383602  0.1523890805415249  0.969464561187685  1.0000
  N   N1        1.0  0.16208577007101613  0.47386110904658807  0.5006088360342886  1.0000
  N   N2        1.0  0.8704438918698613  0.4621571026114495  0.4886256797851729  1.0000
  N   N3        1.0  0.8340242655796004  0.5157876796199544  0.999977963847634  1.0000
  N   N4        1.0  0.12603249250842907  0.4941007957854567  0.0021881636392037996  1.0000
  Cl  Cl1       1.0  0.9478351817828995  0.23064698812675027  0.8434883149839862  1.0000
  Cl  Cl2       1.0  0.9837522620905687  0.2177834139756385  0.6986145675663877  1.0000
  O   O1        1.0  0.6423050068158531  0.6585949765060308  0.514517628188031  1.0000
  O   O2        1.0  0.41117179716179914  0.6541263451881465  0.5033495093522973  1.0000
  O   O3        1.0  0.4066448056009762  0.4578319365659383  0.5905539487073952  1.0000
  O   O4        1.0  0.6377505703410974  0.4442481195776296  0.5848379654811495  1.0000
  O   O5        1.0  0.3836724308152596  0.2845547544233611  0.49329571377632675  1.0000
  O   O6        1.0  0.6145444309758757  0.2937000254500716  0.4792110859997151  1.0000
  O   O7        1.0  0.5995221213290237  0.5419557010812639  0.4058424393682145  1.0000
  O   O8        1.0  0.38105851783043215  0.4729545422090455  0.40582324225336913  1.0000
  O   O9        1.0  0.3449779860727488  0.7057340949369006  0.9777505288646252  1.0000
  O   O10       1.0  0.5730096051789816  0.7060187675118001  0.9978810752593007  1.0000
  O   O11       1.0  0.6050810357283751  0.5234481242950224  0.9058330921618777  1.0000
  O   O12       1.0  0.37686514354490436  0.48459464431662275  0.9063131593951539  1.0000
  O   O13       1.0  0.5924014798116346  0.3363600554380639  0.9915235561792173  1.0000
  O   O14       1.0  0.36673992105141195  0.3412656592614169  0.015384910638793797  1.0000
  O   O15       1.0  0.3661908152825646  0.5651182129109175  0.08666201069783598  1.0000
  O   O16       1.0  0.5927704744040837  0.5220565419805752  0.0894762780885046  1.0000
  O   O17       1.0  0.9807558086008471  0.23669205734974244  0.3766649313438108  1.0000
  O   O18       1.0  0.790535013790766  0.348319909163216  0.3756132155456696  1.0000
  O   O19       1.0  0.8600444350325559  0.1089337486001583  0.4790688163554009  1.0000
  O   O20       1.0  0.7842277858744707  0.1575737437619935  0.5731603029238244  1.0000
  O   O21       1.0  0.10922077921726007  0.5087282842706955  0.2918783776764968  1.0000
  O   O22       1.0  0.194870821126429  0.645491344723908  0.3560774184182733  1.0000
  O   O23       1.0  0.2049547262708842  0.340560701990661  0.10881239936320242  1.0000
  O   O24       1.0  0.04843990894392651  0.44865449531113916  0.1597561173242568  1.0000
  O   O25       1.0  0.1122988909418297  0.1386363429189785  0.012012399902694398  1.0000
  O   O26       1.0  0.196507649040548  0.2081217759560801  0.9227896128860067  1.0000
