data_image0
_chemical_formula_structural       Ag4H16C28S8N4O8
_chemical_formula_sum              "Ag4 H16 C28 S8 N4 O8"
_cell_length_a       8.104914566223215
_cell_length_b       8.089823110610551
_cell_length_c       12.754551755585895
_cell_angle_alpha    100.08521368356226
_cell_angle_beta     90.00073399444248
_cell_angle_gamma    89.99947474408845

_space_group_name_H-M_alt    "P 1"
_space_group_IT_number       1

loop_
  _space_group_symop_operation_xyz
  'x, y, z'

loop_
  _atom_site_type_symbol
  _atom_site_label
  _atom_site_symmetry_multiplicity
  _atom_site_fract_x
  _atom_site_fract_y
  _atom_site_fract_z
  _atom_site_occupancy
  Ag  Ag1       1.0  0.1470628783783283  0.5914798970313486  0.5385374615931229  1.0000
  Ag  Ag2       1.0  0.6470634980390957  0.9085165485278495  0.4614667721041813  1.0000
  Ag  Ag3       1.0  0.8529358833503552  0.40852118632486883  0.4614619935776077  1.0000
  Ag  Ag4       1.0  0.35293526372927186  0.0914819892172858  0.5385355255773592  1.0000
  H   H1        1.0  0.490947623653426  0.8257618028651663  0.7238653541633867  1.0000
  H   H2        1.0  0.9909515793345282  0.6742321301789364  0.276139865337072  1.0000
  H   H3        1.0  0.5090511380627731  0.17424304696380943  0.27613453556290324  1.0000
  H   H4        1.0  0.009050883967894703  0.3257575671722818  0.7238661167170054  1.0000
  H   H5        1.0  0.41990945004227603  0.0337543829911482  0.8850299780818747  1.0000
  H   H6        1.0  0.9199075877066961  0.4662495120632073  0.11497209818556804  1.0000
  H   H7        1.0  0.5800905454488898  0.9662567702598324  0.11496828674737716  1.0000
  H   H8        1.0  0.08009240790497071  0.5337464973809318  0.8850314759041072  1.0000
  H   H9        1.0  0.641300220998666  0.1819548611022768  0.0010814857100883  1.0000
  H   H10       1.0  0.14129441007036553  0.31805235638467616  0.9989171017854519  1.0000
  H   H11       1.0  0.3587010083842941  0.8180462049302407  0.9989195355770523  1.0000
  H   H12       1.0  0.8587043516384868  0.6819499997770748  0.001080932129873728  1.0000
  H   H13       1.0  0.9359225383280859  0.13220845184187627  0.953892057356349  1.0000
  H   H14       1.0  0.43591951305823784  0.36779539467357847  0.04610387330757253  1.0000
  H   H15       1.0  0.0640799249189925  0.8677838084350358  0.04610951607965327  1.0000
  H   H16       1.0  0.5640804824062329  0.6322120353911771  0.9538900416979604  1.0000
  C   C1        1.0  0.8267472583809339  0.7487314653900228  0.6565094641050139  1.0000
  C   C2        1.0  0.32675119728816077  0.7512649657282823  0.34349154953554273  1.0000
  C   C3        1.0  0.17324903572115602  0.2512683538270366  0.34349062925833357  1.0000
  C   C4        1.0  0.6732512659265881  0.24873233382693635  0.6565090372006211  1.0000
  C   C5        1.0  0.7533279715047031  0.8670965449150856  0.7461527215695302  1.0000
  C   C6        1.0  0.25332994804988124  0.632901673159296  0.2538486751397856  1.0000
  C   C7        1.0  0.24667202404695843  0.13290578527020364  0.2538476615112657  1.0000
  C   C8        1.0  0.7466725151408654  0.36709815469238544  0.7461506351928197  1.0000
  C   C9        1.0  0.5875052657803154  0.8946444377866882  0.7725892814323461  1.0000
  C   C10       1.0  0.08750696177258281  0.605353710057436  0.22741387210236755  1.0000
  C   C11       1.0  0.41249102830560974  0.10535790106952449  0.22741031858107877  1.0000
  C   C12       1.0  0.9124942676223781  0.39464609182685717  0.7725877873865559  1.0000
  C   C13       1.0  0.5488298952353078  0.009840371397679296  0.8643244789498257  1.0000
  C   C14       1.0  0.048828795148956806  0.49015993279108744  0.13567803462418485  1.0000
  C   C15       1.0  0.45117133415916305  0.9901619328111482  0.13567825329643315  1.0000
  C   C16       1.0  0.9511736680574644  0.509839877745968  0.8643228418156783  1.0000
  C   C17       1.0  0.6728043219187826  0.09466691777303281  0.9288253597673873  1.0000
  C   C18       1.0  0.17280146073371586  0.4053350286621651  0.07117444822439722  1.0000
  C   C19       1.0  0.3271944398339102  0.9053316372867217  0.07117537180688775  1.0000
  C   C20       1.0  0.8271985348142721  0.594666054689512  0.9288250069509092  1.0000
  C   C21       1.0  0.8396054527845039  0.0674146256630266  0.9031677586329183  1.0000
  C   C22       1.0  0.33960285928005624  0.4325886306382146  0.09683122769960315  1.0000
  C   C23       1.0  0.1603970104574302  0.9325838947538758  0.09683610516962207  1.0000
  C   C24       1.0  0.6603959024287961  0.5674137255235364  0.9031668062157155  1.0000
  C   C25       1.0  0.8752542555229257  0.9540750369624648  0.811354272219184  1.0000
  C   C26       1.0  0.3752544762183874  0.5459261025738867  0.18864376550730105  1.0000
  C   C27       1.0  0.1247432723911146  0.04592228858282971  0.18864396533776784  1.0000
  C   C28       1.0  0.6247467531092213  0.4540775263843315  0.8113528471617715  1.0000
  S   S1        1.0  0.7037522620893527  0.641689267894762  0.5597447724329144  1.0000
  S   S2        1.0  0.20375840633696646  0.858306786575753  0.4402575328042604  1.0000
  S   S3        1.0  0.2962415644018249  0.3583092698685277  0.4402575252303152  1.0000
  S   S4        1.0  0.7962440568856196  0.14169050432214905  0.5597438369855328  1.0000
  S   S5        1.0  0.06967117931380071  0.8885447629462464  0.757092242564106  1.0000
  S   S6        1.0  0.5696713323889497  0.6114459485267645  0.24291304172518124  1.0000
  S   S7        1.0  0.9303263485997492  0.1114550649235895  0.24290706775018836  1.0000
  S   S8        1.0  0.4303311307741212  0.38855516078776026  0.7570840642983898  1.0000
  N   N1        1.0  0.9906404666964905  0.7413854144370262  0.6588074279757169  1.0000
  N   N2        1.0  0.4906442942016866  0.7586136120893342  0.3411921042232891  1.0000
  N   N3        1.0  0.0093558274097632  0.2586131492891113  0.34119252053577054  1.0000
  N   N4        1.0  0.5093594028323594  0.2413836874613438  0.6588084825174505  1.0000
  O   O1        1.0  0.16671461018591324  0.8126531853650222  0.8310502926286036  1.0000
  O   O2        1.0  0.6667200151533735  0.6873457218191703  0.16894576303169376  1.0000
  O   O3        1.0  0.8332853853703953  0.18734538700481104  0.16894887284299645  1.0000
  O   O4        1.0  0.33328368184883334  0.3126541146852801  0.8310527642518651  1.0000
  O   O5        1.0  0.14883396475224941  0.0162217808445391  0.7080760935903927  1.0000
  O   O6        1.0  0.6488317690783988  0.4837815887618008  0.2919244644302595  1.0000
  O   O7        1.0  0.8511623293696858  0.9837767655669868  0.29192542102836694  1.0000
  O   O8        1.0  0.35116822646272544  0.516214498598103  0.7080720621767401  1.0000
