data_image0
_chemical_formula_structural       Cd4H32C56N8O36
_chemical_formula_sum              "Cd4 H32 C56 N8 O36"
_cell_length_a       6.881167732013428
_cell_length_b       11.260826116024697
_cell_length_c       17.933980748061266
_cell_angle_alpha    89.99977763834254
_cell_angle_beta     90.00020357126684
_cell_angle_gamma    90.00009157491736

_space_group_name_H-M_alt    "P 1"
_space_group_IT_number       1

loop_
  _space_group_symop_operation_xyz
  'x, y, z'

loop_
  _atom_site_type_symbol
  _atom_site_label
  _atom_site_symmetry_multiplicity
  _atom_site_fract_x
  _atom_site_fract_y
  _atom_site_fract_z
  _atom_site_occupancy
  Cd  Cd1       1.0  0.6787205822835531  0.1839104167924148  0.5903900840315688  1.0000
  Cd  Cd2       1.0  0.32127978558521164  0.8160918698743133  0.09038797246969922  1.0000
  Cd  Cd3       1.0  0.17872196093285453  0.8160929178091152  0.5903895258243497  1.0000
  Cd  Cd4       1.0  0.8212827666649931  0.1839084808219981  0.09038964588238943  1.0000
  H   H1        1.0  0.3287346892691901  0.2564806324151404  0.5178001808532644  1.0000
  H   H2        1.0  0.671266469489133  0.7435194389577473  0.017799287774693102  1.0000
  H   H3        1.0  0.8287318502495824  0.7435206351676059  0.5177988182201007  1.0000
  H   H4        1.0  0.1712664020137353  0.2564803242467875  0.017797862401330605  1.0000
  H   H5        1.0  0.2929834236409476  0.12299388867941022  0.5410979906553736  1.0000
  H   H6        1.0  0.7070179477056868  0.8770069266784406  0.041097937048164106  1.0000
  H   H7        1.0  0.7929823828204761  0.8770080875515943  0.5410979756448101  1.0000
  H   H8        1.0  0.20702044176277923  0.1229927278104199  0.0410968368583511  1.0000
  H   H9        1.0  0.7877969401599787  0.3387905310593595  0.9515133650630293  1.0000
  H   H10       1.0  0.21220236309974186  0.6612112989002057  0.45151259512472575  1.0000
  H   H11       1.0  0.2877993718073101  0.6612080144800387  0.9515120689560636  1.0000
  H   H12       1.0  0.7122042911641844  0.3387893753152725  0.45151221843804734  1.0000
  H   H13       1.0  0.34977992176671086  0.43818527781356664  0.9688175208138792  1.0000
  H   H14       1.0  0.6502195393955718  0.5618164451510026  0.4688187140655986  1.0000
  H   H15       1.0  0.8497737067090015  0.5618149980646193  0.9688160432197466  1.0000
  H   H16       1.0  0.15022866091406686  0.4381849488465406  0.4688157308583955  1.0000
  H   H17       1.0  0.5821718655327573  0.83813173548004  0.7900794091188106  1.0000
  H   H18       1.0  0.41783468414159597  0.1618684285095355  0.2900762368181874  1.0000
  H   H19       1.0  0.08216428735674702  0.16186582886953718  0.7900787718235167  1.0000
  H   H20       1.0  0.917832089622401  0.8381298949417156  0.29007743171253964  1.0000
  H   H21       1.0  0.639351792732839  0.9646292386174551  0.9030079314836573  1.0000
  H   H22       1.0  0.36064852116685137  0.0353737792854645  0.40300498823858544  1.0000
  H   H23       1.0  0.1393453409097987  0.0353694600975771  0.903007044740797  1.0000
  H   H24       1.0  0.8606549729871987  0.9646255654913389  0.4030075477932443  1.0000
  H   H25       1.0  0.4591401893126204  0.5891605378313471  0.8096112641758142  1.0000
  H   H26       1.0  0.5408563659145572  0.41084216947953683  0.3096126739415866  1.0000
  H   H27       1.0  0.9591364905982972  0.41083905441475826  0.8096107119676079  1.0000
  H   H28       1.0  0.0408586113737925  0.5891592127290082  0.30961155335213425  1.0000
  H   H29       1.0  0.5850659594057532  0.6353947308908872  0.6801191296232931  1.0000
  H   H30       1.0  0.41493522722237947  0.3646061129482661  0.18012103544528915  1.0000
  H   H31       1.0  0.08506326485954932  0.3646052922596538  0.6801179984517348  1.0000
  H   H32       1.0  0.9149306555449925  0.6353937755159009  0.18011937861054864  1.0000
  C   C1        1.0  0.576048804255379  0.9234962570798828  0.6444892037240565  1.0000
  C   C2        1.0  0.4239549637303099  0.076503030996264  0.14448792064585095  1.0000
  C   C3        1.0  0.0760497249313303  0.07650397745754133  0.6444871015812199  1.0000
  C   C4        1.0  0.9239511365667356  0.9234979747252866  0.14448834998137272  1.0000
  C   C5        1.0  0.576615987583388  0.9914937084293028  0.717084270039358  1.0000
  C   C6        1.0  0.4233811765919171  0.008506018836421  0.21708203661506795  1.0000
  C   C7        1.0  0.0766138260615676  0.0085051897862343  0.7170828911416154  1.0000
  C   C8        1.0  0.9233833381176737  0.991493649441729  0.21708453071526895  1.0000
  C   C9        1.0  0.5865825596671144  0.934433743663419  0.7859363217608364  1.0000
  C   C10       1.0  0.4134239522104792  0.0655673339723819  0.2859344931557573  1.0000
  C   C11       1.0  0.08657473263156132  0.06556473869688519  0.7859353614596787  1.0000
  C   C12       1.0  0.9134259662759733  0.9344318987627532  0.28593601105899324  1.0000
  C   C13       1.0  0.6172930005033663  0.004960906327639199  0.8483196096670086  1.0000
  C   C14       1.0  0.38270826762255444  0.995038009534113  0.3483165895456325  1.0000
  C   C15       1.0  0.11728757536485551  0.9950363326485033  0.8483180579326091  1.0000
  C   C16       1.0  0.8827107862792901  0.0049599191054241  0.34831925648264683  1.0000
  C   C17       1.0  0.6261520929273985  0.12907704661380848  0.841866351857725  1.0000
  C   C18       1.0  0.37384766307330614  0.870922797181862  0.3418630642323351  1.0000
  C   C19       1.0  0.12615216002281224  0.870922905124473  0.8418645448757405  1.0000
  C   C20       1.0  0.8738505024627161  0.1290760506365984  0.3418654288180961  1.0000
  C   C21       1.0  0.5922273616177164  0.18095976600076824  0.7709071168737938  1.0000
  C   C22       1.0  0.40777320015042323  0.8190405165250781  0.27090400256126673  1.0000
  C   C23       1.0  0.09223020111731732  0.8190388148730251  0.7709043210827107  1.0000
  C   C24       1.0  0.9077761736103016  0.18095969159051606  0.2709056831571672  1.0000
  C   C25       1.0  0.5758813765303401  0.3106163808154108  0.7512247585664938  1.0000
  C   C26       1.0  0.4241131926851979  0.6893831353600177  0.2512236555117937  1.0000
  C   C27       1.0  0.0758867874712692  0.6893814175544578  0.7512245090303581  1.0000
  C   C28       1.0  0.9241121414736071  0.3106154345150074  0.2512255778562605  1.0000
  C   C29       1.0  0.5009278564856956  0.4011735000748048  0.7974541542523498  1.0000
  C   C30       1.0  0.49906568133079093  0.5988283943640056  0.2974561634733065  1.0000
  C   C31       1.0  0.0009301269398350002  0.5988274905144877  0.7974552405128252  1.0000
  C   C32       1.0  0.999066317356899  0.4011699637524587  0.29745563482094184  1.0000
  C   C33       1.0  0.5113578123086597  0.5189731091194147  0.7728666156546498  1.0000
  C   C34       1.0  0.48863840764090594  0.4810289373409518  0.2728688974159752  1.0000
  C   C35       1.0  0.011358325101682004  0.4810253796984796  0.7728668736808262  1.0000
  C   C36       1.0  0.9886393480787633  0.518972226594471  0.2728675241948295  1.0000
  C   C37       1.0  0.5799229184696914  0.5448888684237118  0.7016950373181886  1.0000
  C   C38       1.0  0.4200770117823254  0.4551118420183257  0.20169561457544927  1.0000
  C   C39       1.0  0.07992191104654013  0.4551101282084176  0.701694243273302  1.0000
  C   C40       1.0  0.9200751127084318  0.5448879181361335  0.20169417821881555  1.0000
  C   C41       1.0  0.6331417538448891  0.44948306788601416  0.6564944057755825  1.0000
  C   C42       1.0  0.3668606704426766  0.5505152579274367  0.15649356181173601  1.0000
  C   C43       1.0  0.13314099296212592  0.5505144847476019  0.65649337931972  1.0000
  C   C44       1.0  0.8668585248394651  0.449483841066133  0.15649403066490214  1.0000
  C   C45       1.0  0.6858737343380952  0.46674051596239247  0.5752425218011085  1.0000
  C   C46       1.0  0.314127948562728  0.5332600882859069  0.07524220453655063  1.0000
  C   C47       1.0  0.18587874182834702  0.5332584791958226  0.5752415373874131  1.0000
  C   C48       1.0  0.8141185813436422  0.46674123701772885  0.07524263134762783  1.0000
  C   C49       1.0  0.394536319531163  0.37472135035786636  0.8683000682800073  1.0000
  C   C50       1.0  0.6054564114873459  0.6252818821192533  0.3683021602192299  1.0000
  C   C51       1.0  0.8945477073633086  0.6252707109071238  0.8682984361070185  1.0000
  C   C52       1.0  0.10545374307251623  0.37472275321063364  0.3682993316046464  1.0000
  C   C53       1.0  0.6846483785620238  0.19229424653847357  0.9116595206026193  1.0000
  C   C54       1.0  0.3153491078052681  0.8077104939358649  0.41165797886061756  1.0000
  C   C55       1.0  0.18464537581606072  0.8077071075607025  0.9116584252174963  1.0000
  C   C56       1.0  0.8153535637837663  0.19229052863983748  0.41165907425540393  1.0000
  N   N1        1.0  0.5761236253961428  0.10997936031412078  0.7110560071664127  1.0000
  N   N2        1.0  0.4238734837675367  0.8900212922626451  0.21105218461327274  1.0000
  N   N3        1.0  0.0761266483197431  0.8900195746940868  0.711053038463497  1.0000
  N   N4        1.0  0.923874820560549  0.10997841378534189  0.21105403812106976  1.0000
  N   N5        1.0  0.6344946929250741  0.3375542571538901  0.6818464159144499  1.0000
  N   N6        1.0  0.3655050562035172  0.6624447999474442  0.18184473981208535  1.0000
  N   N7        1.0  0.13449567452646247  0.662443140069243  0.6818456743969465  1.0000
  N   N8        1.0  0.8654997148823185  0.3375541409561365  0.18184715413080005  1.0000
  O   O1        1.0  0.3930260197233721  0.1793486564774867  0.5214425669578449  1.0000
  O   O2        1.0  0.6069766255132835  0.8206513923749484  0.021441954657220208  1.0000
  O   O3        1.0  0.8930248332707011  0.8206526521272935  0.5214421316301101  1.0000
  O   O4        1.0  0.10697781196710571  0.17934828475944897  0.021442389983874908  1.0000
  O   O5        1.0  0.6579024561333002  0.9740957762553324  0.5890062574642841  1.0000
  O   O6        1.0  0.3421066185567199  0.0259038548678703  0.08900442683270883  1.0000
  O   O7        1.0  0.15790615254051232  0.0259057702611045  0.589004836185204  1.0000
  O   O8        1.0  0.8420956559395378  0.974094748894544  0.08900529050499273  1.0000
  O   O9        1.0  0.4991809048145868  0.8217425836901601  0.6443437407216168  1.0000
  O   O10       1.0  0.500822861847098  0.17825581724804354  0.1443434312917162  1.0000
  O   O11       1.0  0.9991809647989031  0.1782580699576357  0.6443431974945641  1.0000
  O   O12       1.0  0.0008198953825485002  0.8217447711524243  0.14434341691066527  1.0000
  O   O13       1.0  0.661402542629567  0.1443179911192303  0.9731500940102155  1.0000
  O   O14       1.0  0.3385911450866601  0.855688145238567  0.4731473523434246  1.0000
  O   O15       1.0  0.1614054768464115  0.8556838478427269  0.9731527849610591  1.0000
  O   O16       1.0  0.8385983835743931  0.1443142961957591  0.47314967981554207  1.0000
  O   O17       1.0  0.766948450683046  0.2970699364227727  0.9011180088987348  1.0000
  O   O18       1.0  0.2330489395016926  0.7029339811899078  0.4011177237612672  1.0000
  O   O19       1.0  0.2669480836749827  0.702935116331247  0.9011182839506875  1.0000
  O   O20       1.0  0.7330507597494247  0.2970652491431665  0.40111800631532907  1.0000
  O   O21       1.0  0.2916234724010494  0.2859054132427161  0.8755238221965345  1.0000
  O   O22       1.0  0.708366418056123  0.7141004386693408  0.3755269553197068  1.0000
  O   O23       1.0  0.7916089314456727  0.7141078144375541  0.8755269920263233  1.0000
  O   O24       1.0  0.2083867719853458  0.2858935972971821  0.3755265735027892  1.0000
  O   O25       1.0  0.4201137132717322  0.4580277048947039  0.919131420800227  1.0000
  O   O26       1.0  0.5798852945230878  0.5419734372371892  0.41913256510481034  1.0000
  O   O27       1.0  0.9201103534310492  0.5419738357322714  0.9191316643456564  1.0000
  O   O28       1.0  0.0798915608375239  0.4580237542672449  0.41913120636434104  1.0000
  O   O29       1.0  0.7062918061864423  0.571430077560926  0.5512365835968185  1.0000
  O   O30       1.0  0.29371692387927345  0.4285706751152816  0.051236493123575116  1.0000
  O   O31       1.0  0.20631107556886263  0.42856908620436235  0.5512375270234176  1.0000
  O   O32       1.0  0.793687481815262  0.5714298903895667  0.05123833769553701  1.0000
  O   O33       1.0  0.7001442660356716  0.37287897053949604  0.5356412875480744  1.0000
  O   O34       1.0  0.2998614152497369  0.6271227665909153  0.03564183709647041  1.0000
  O   O35       1.0  0.20014370311362484  0.627120283568189  0.5356406320798683  1.0000
  O   O36       1.0  0.7998590716784336  0.3728796774973233  0.03564081976276871  1.0000
