data_image0
_chemical_formula_structural       Zn2H52C44N8O12
_chemical_formula_sum              "Zn2 H52 C44 N8 O12"
_cell_length_a       10.79118322275589
_cell_length_b       11.489619041316965
_cell_length_c       12.4354
_cell_angle_alpha    96.81763538203735
_cell_angle_beta     114.59032253525866
_cell_angle_gamma    107.4810794867057

_space_group_name_H-M_alt    "P 1"
_space_group_IT_number       1

loop_
  _space_group_symop_operation_xyz
  'x, y, z'

loop_
  _atom_site_type_symbol
  _atom_site_label
  _atom_site_symmetry_multiplicity
  _atom_site_fract_x
  _atom_site_fract_y
  _atom_site_fract_z
  _atom_site_occupancy
  Zn  Zn1       1.0  0.5527135926538875  0.9753601797776882  0.7149833709140125  1.0000
  Zn  Zn2       1.0  0.44728737189228  0.024640031680661402  0.28501724182972055  1.0000
  H   H1        1.0  0.18624286867481035  0.27723862618457673  0.21709217700542646  1.0000
  H   H2        1.0  0.8137570767622578  0.7227615852737728  0.7829080677312844  1.0000
  H   H3        1.0  0.22743113046837493  0.4253269755688863  0.314791321522236  1.0000
  H   H4        1.0  0.7725706906074734  0.5746751374932941  0.6852090049340802  1.0000
  H   H5        1.0  0.8665168510522606  0.38484848555381035  0.6572135900283769  1.0000
  H   H6        1.0  0.13348395091448853  0.6151536275083701  0.3427871725767986  1.0000
  H   H7        1.0  0.58526373373698  0.2150770984509052  0.5962131816749335  1.0000
  H   H8        1.0  0.41473374521702777  0.7849221622055255  0.4037868722693645  1.0000
  H   H9        1.0  0.8291371058013157  0.9635730884118702  0.8094181638401495  1.0000
  H   H10       1.0  0.17086283963574542  0.0364271230464723  0.19058127674068004  1.0000
  H   H11       1.0  0.9873261335818243  0.0991743447610602  0.9236936170272898  1.0000
  H   H12       1.0  0.012673383590396279  0.9008249158953703  0.07630636877518533  1.0000
  H   H13       1.0  0.9872357062907896  0.026560651553126004  0.7893765935658551  1.0000
  H   H14       1.0  0.012764829990537362  0.9734386091033045  0.21062376024363516  1.0000
  H   H15       1.0  0.12070371178353412  0.3561875125658958  0.7452558617271235  1.0000
  H   H16       1.0  0.8792968244977928  0.6438117480905348  0.25474368792649216  1.0000
  H   H17       1.0  0.13632882398161433  0.2359015620383929  0.8211435105779827  1.0000
  H   H18       1.0  0.8636706931906062  0.7640976986180377  0.17885647522448522  1.0000
  H   H19       1.0  0.2733915994879935  0.45684130510989723  0.9653332415567489  1.0000
  H   H20       1.0  0.7266068985751204  0.5431579555465262  0.034665572082822484  1.0000
  H   H21       1.0  0.1029896071469452  0.4788970571799851  0.9156365256643754  1.0000
  H   H22       1.0  0.8970099100252755  0.5211022034764455  0.08436346013809287  1.0000
  H   H23       1.0  0.14622665253386916  0.5075846526215743  0.12659749058473582  1.0000
  H   H24       1.0  0.8537743120122984  0.49241555883676824  0.873402318003116  1.0000
  H   H25       1.0  0.3105397707812116  0.4764363818186297  0.1714922973746695  1.0000
  H   H26       1.0  0.689461193764956  0.5235638296397199  0.8285083153690566  1.0000
  H   H27       1.0  0.5777521959884666  0.8138075244458634  0.9100120618596607  1.0000
  H   H28       1.0  0.42224732118375397  0.1861917362105601  0.08998953225457033  1.0000
  H   H29       1.0  0.706467588223184  0.9352496501045167  0.1621081285702033  1.0000
  H   H30       1.0  0.29353380458782413  0.06475151215575181  0.8378935472636329  1.0000
  H   H31       1.0  0.8103873503988269  0.2876831852435018  0.9584482686833908  1.0000
  H   H32       1.0  0.18961216677339374  0.7123160754129287  0.04155010880732144  1.0000
  H   H33       1.0  0.6917178836155032  0.3076291078596256  0.016972238029303834  1.0000
  H   H34       1.0  0.30828061444761096  0.6923701527968049  0.9830257714543862  1.0000
  H   H35       1.0  0.6144616202548577  0.227331984359914  0.8580518066830649  1.0000
  H   H36       1.0  0.38553704038768194  0.7726653746926786  0.1419468570950571  1.0000
  H   H37       1.0  0.768558139251283  0.15933348365739872  0.27637499129874504  1.0000
  H   H38       1.0  0.23144223445061854  0.8406676786028628  0.7236255123721875  1.0000
  H   H39       1.0  0.755914007849718  0.2756669506156726  0.19722208408563807  1.0000
  H   H40       1.0  0.2440859375873501  0.7243332608426769  0.8027773564951914  1.0000
  H   H41       1.0  0.018027580663499528  0.3178692445063831  0.3591781288923955  1.0000
  H   H42       1.0  0.9819711830850296  0.6821328685557972  0.6408218976987355  1.0000
  H   H43       1.0  0.0078013218272800985  0.1776487809857628  0.2714196584930377  1.0000
  H   H44       1.0  0.9922019466225224  0.8223542828783366  0.7285829032162923  1.0000
  H   H45       1.0  0.6029111019623699  0.7179571831868544  0.48353548923775963  1.0000
  H   H46       1.0  0.39709190080201046  0.2820430282714881  0.5164666636758923  1.0000
  H   H47       1.0  0.6107477794512732  0.5334749888231727  0.3606082178233478  1.0000
  H   H48       1.0  0.3892531850948942  0.4665252226351768  0.6393923949203781  1.0000
  H   H49       1.0  0.1855437638835724  0.2221206390524983  0.6050092283657662  1.0000
  H   H50       1.0  0.8144553250238004  0.7778776708020132  0.3949888901907173  1.0000
  H   H51       1.0  0.08897689252768261  0.8237890429711854  0.5008998602844841  1.0000
  H   H52       1.0  0.9110226246445379  0.1762102176852451  0.4990993213621096  1.0000
  C   C1        1.0  0.15697183619545296  0.3614910856592672  0.21989888775398472  1.0000
  C   C2        1.0  0.8430299848804027  0.6385110274029132  0.780102242858206  1.0000
  C   C3        1.0  0.8515171652600985  0.13492164443683663  0.758335517702669  1.0000
  C   C4        1.0  0.14848133280301573  0.865077616219594  0.24166329593690256  1.0000
  C   C5        1.0  0.8302397565265596  0.2964305628804667  0.6790369206177332  1.0000
  C   C6        1.0  0.16975541852381335  0.703565845370207  0.3209611843609679  1.0000
  C   C7        1.0  0.6926478360542206  0.21234069053360122  0.6494383762805214  1.0000
  C   C8        1.0  0.3073570423489543  0.7876614225285793  0.35056305419686856  1.0000
  C   C9        1.0  0.9176785806162828  0.05179968844153391  0.8244536806300575  1.0000
  C   C10       1.0  0.082320936555938  0.9481995722148967  0.17554630517241074  1.0000
  C   C11       1.0  0.08984250399357313  0.30909809682148653  0.8074252346042101  1.0000
  C   C12       1.0  0.9101570131786474  0.6909011638349443  0.19257475119825776  1.0000
  C   C13       1.0  0.1528875450961706  0.4070278418731093  0.9296306476673379  1.0000
  C   C14       1.0  0.8471124003408905  0.5929723695852331  0.07036959706936599  1.0000
  C   C15       1.0  0.18925034933581492  0.43116014533006114  0.13312165548707364  1.0000
  C   C16       1.0  0.810751043475193  0.5688410169302075  0.8668784120350067  1.0000
  C   C17       1.0  0.6838145626428869  0.1187646674601979  0.9804187374736912  1.0000
  C   C18       1.0  0.31618538279418135  0.8812355439981447  0.019581507263012686  1.0000
  C   C19       1.0  0.6254626173529374  0.9136692989929571  0.9601261037178831  1.0000
  C   C20       1.0  0.37453834719323  0.08633091246538531  0.039875313181724395  1.0000
  C   C21       1.0  0.6889090196658288  0.9725809857741156  0.08329847340008469  1.0000
  C   C22       1.0  0.31109237314518623  0.027420176486145902  0.9167032024337517  1.0000
  C   C23       1.0  0.7009843970825358  0.24227478728845853  0.9515744814077466  1.0000
  C   C24       1.0  0.29901613919879116  0.757724473367972  0.04842506824586939  1.0000
  C   C25       1.0  0.7993730007129614  0.20067720341700127  0.21153221555146476  1.0000
  C   C26       1.0  0.2006273729889401  0.7993239588432601  0.7884674839635935  1.0000
  C   C27       1.0  0.9663582301892079  0.25509635114003976  0.2645447287963024  1.0000
  C   C28       1.0  0.0336412869830128  0.744902909516391  0.7354560611620471  1.0000
  C   C29       1.0  0.495058763851887  0.6027390068772932  0.5688547583948136  1.0000
  C   C30       1.0  0.504943219803387  0.3972612045810493  0.4311478306676904  1.0000
  C   C31       1.0  0.557887065037491  0.6223626076435381  0.4904138541345021  1.0000
  C   C32       1.0  0.4421124521347295  0.37763665301289256  0.5095869358238474  1.0000
  C   C33       1.0  0.5628085942949  0.5202293673165812  0.42230569239666954  1.0000
  C   C34       1.0  0.4371888846591148  0.4797698933398493  0.5776935573917541  1.0000
  C   C35       1.0  0.49291722648558794  0.7126754785375766  0.6458710865923437  1.0000
  C   C36       1.0  0.507083309795739  0.2873237821188539  0.3541292672171465  1.0000
  C   C37       1.0  0.15142883265615129  0.0253845095817198  0.5592377063521425  1.0000
  C   C38       1.0  0.8485706845160692  0.974614751074711  0.4407606711385769  1.0000
  C   C39       1.0  0.10250787995941124  0.12541267446430032  0.5586572209783256  1.0000
  C   C40       1.0  0.8974910463685434  0.8745875369940493  0.4413402432837189  1.0000
  C   C41       1.0  0.04801433346571572  0.8997666733616825  0.499928073384396  1.0000
  C   C42       1.0  0.9519856119713453  0.10023353809666703  0.5000713671964336  1.0000
  C   C43       1.0  0.314120838622145  0.0536062120839489  0.6265529223082638  1.0000
  C   C44       1.0  0.6858791068149162  0.9463939993743937  0.3734473224284401  1.0000
  N   N1        1.0  0.7073060162864737  0.1130493971367414  0.6994364830083769  1.0000
  N   N2        1.0  0.2926918909323817  0.8869508143216009  0.3005622215584012  1.0000
  N   N3        1.0  0.9294848424719504  0.24657336275549827  0.7476482176738058  1.0000
  N   N4        1.0  0.07051306474690482  0.7534268487028513  0.252350486892972  1.0000
  N   N5        1.0  0.6227235245236145  0.0053644244160651  0.8973237522842724  1.0000
  N   N6        1.0  0.37727701175771255  0.9946348362403656  0.1026766015252179  1.0000
  N   N7        1.0  0.7251539979706011  0.10160839766873411  0.0949212886012916  1.0000
  N   N8        1.0  0.27484696657556634  0.8983918137896083  0.9050785199865603  1.0000
  O   O1        1.0  0.12454148477475262  0.3444783869572774  0.013821660538006608  1.0000
  O   O2        1.0  0.8754594797714148  0.6555218245010721  0.9861789522057194  1.0000
  O   O3        1.0  0.004104975134019572  0.3240085724848498  0.1871695140981657  1.0000
  O   O4        1.0  0.995895398567889  0.6759925897754117  0.8128317937286553  1.0000
  O   O5        1.0  0.5708181805237446  0.8232242666324512  0.644805194949278  1.0000
  O   O6        1.0  0.42918380313152943  0.1767759448258985  0.3551957858014774  1.0000
  O   O7        1.0  0.4224546414317417  0.6941262839376208  0.7047769234460404  1.0000
  O   O8        1.0  0.5775467513792734  0.30587487832264776  0.2952239482319214  1.0000
  O   O9        1.0  0.34657986393497714  0.9538035987140603  0.621258507702706  1.0000
  O   O10       1.0  0.6534206723463499  0.046195661942370216  0.37874104195091013  1.0000
  O   O11       1.0  0.4047729666858261  0.1655308105528093  0.6839343437399067  1.0000
  O   O12       1.0  0.5952245122681888  0.8344684501036213  0.31606571020439844  1.0000
