data_image0
_chemical_formula_structural       Cu4H16C16S4I4N8
_chemical_formula_sum              "Cu4 H16 C16 S4 I4 N8"
_cell_length_a       7.117553343717652
_cell_length_b       7.916691798492214
_cell_length_c       14.015410094343261
_cell_angle_alpha    74.74296507316296
_cell_angle_beta     80.65729901893539
_cell_angle_gamma    64.16370825692385

_space_group_name_H-M_alt    "P 1"
_space_group_IT_number       1

loop_
  _space_group_symop_operation_xyz
  'x, y, z'

loop_
  _atom_site_type_symbol
  _atom_site_label
  _atom_site_symmetry_multiplicity
  _atom_site_fract_x
  _atom_site_fract_y
  _atom_site_fract_z
  _atom_site_occupancy
  Cu  Cu1       1.0  0.8346422282123949  0.9736521479704977  0.7895765724377668  1.0000
  Cu  Cu2       1.0  0.16535203603162782  0.026365212575377904  0.2104212040838291  1.0000
  Cu  Cu3       1.0  0.16233968430375967  0.6818426865144646  0.750650000390948  1.0000
  Cu  Cu4       1.0  0.8376458491516557  0.31815300945749686  0.2493424731324936  1.0000
  H   H1        1.0  0.9471208920821965  0.7218246357603066  0.21834901387661182  1.0000
  H   H2        1.0  0.05287805051457181  0.2781697219618025  0.7816532607459905  1.0000
  H   H3        1.0  0.6373852365393728  0.035261040799028406  0.14929728196172934  1.0000
  H   H4        1.0  0.36261742038318084  0.9647534883730914  0.8507045108924559  1.0000
  H   H5        1.0  0.612129866557751  0.12419399020655673  0.9642058722535866  1.0000
  H   H6        1.0  0.3878791123785702  0.8758349356843029  0.035792524449377104  1.0000
  H   H7        1.0  0.49548449385861204  0.1732972515470692  0.4699004843832171  1.0000
  H   H8        1.0  0.5045254378086312  0.8266885196387365  0.5301057441963053  1.0000
  H   H9        1.0  0.19585583856019184  0.5046832005906766  0.42314461799590225  1.0000
  H   H10       1.0  0.8041458569814709  0.49529243276515444  0.5768566757456242  1.0000
  H   H11       1.0  0.07213656568509218  0.7127129988871133  0.5495578350821618  1.0000
  H   H12       1.0  0.9278572513142151  0.28726116493457715  0.4504421866999593  1.0000
  H   H13       1.0  0.17560039437992717  0.5472607777931701  0.10824812441376247  1.0000
  H   H14       1.0  0.8243926151453775  0.45274359109858153  0.8917459989935211  1.0000
  H   H15       1.0  0.6372022719796107  0.0902473452422257  0.6258551524481817  1.0000
  H   H16       1.0  0.36279780802414757  0.9097571114406054  0.3741490789946766  1.0000
  C   C1        1.0  0.047351116684374944  0.7266955008034232  0.9755301057639229  1.0000
  C   C2        1.0  0.952652079790468  0.2733146834311598  0.02446801444738609  1.0000
  C   C3        1.0  0.9187999694046096  0.7787153309587326  0.13981998127925271  1.0000
  C   C4        1.0  0.08120427228666224  0.22128622210696847  0.8601793496677105  1.0000
  C   C5        1.0  0.7522395733683847  0.9455941307766552  0.10175353346780011  1.0000
  C   C6        1.0  0.2477627090268726  0.0544117594527336  0.8982488745184938  1.0000
  C   C7        1.0  0.7407137242960999  0.994306493538801  0.9991286200233275  1.0000
  C   C8        1.0  0.2592962998566506  0.005713801183169701  0.0008709874152970052  1.0000
  C   C9        1.0  0.45540485798651537  0.3411025856768504  0.6721700550615424  1.0000
  C   C10       1.0  0.5445870975553788  0.6588946356537734  0.32783236384093334  1.0000
  C   C11       1.0  0.42859298735984913  0.2757017743300807  0.5182301118292898  1.0000
  C   C12       1.0  0.5714187668185317  0.7242925946504785  0.4817689672038341  1.0000
  C   C13       1.0  0.2675067446868056  0.45500523302190743  0.4938273567101774  1.0000
  C   C14       1.0  0.7325024438688317  0.544979043900632  0.5061713089044915  1.0000
  C   C15       1.0  0.20017370744987764  0.5696198827372357  0.5639338437980754  1.0000
  C   C16       1.0  0.7998233292121808  0.4303629257905258  0.43606532805547  1.0000
  S   S1        1.0  0.239484030731056  0.5836070757016004  0.9077138756970626  1.0000
  S   S2        1.0  0.7605124384335298  0.41639592009209286  0.09228873159168668  1.0000
  S   S3        1.0  0.582104587815536  0.27532810731284485  0.7758913357256247  1.0000
  S   S4        1.0  0.4178933293329051  0.7246748473328636  0.22410473714883494  1.0000
  I   I1        1.0  0.7316466337918327  0.7302123388979568  0.7371711923070237  1.0000
  I   I2        1.0  0.26834853576477974  0.26979353692310337  0.2628318026704477  1.0000
  I   I3        1.0  0.11525067655489352  0.025914954337558496  0.6398248484911662  1.0000
  I   I4        1.0  0.8847471063377341  0.974085136967851  0.3601738060999438  1.0000
  N   N1        1.0  0.8810377082126448  0.890883335603526  0.9368831053903149  1.0000
  N   N2        1.0  0.1189692248851415  0.10913118753704512  0.063116196263806  1.0000
  N   N3        1.0  0.05853838352269487  0.6765610662125213  0.0771721242456636  1.0000
  N   N4        1.0  0.9414604279372302  0.3234462166836635  0.9228246518663  1.0000
  N   N5        1.0  0.2870421347873133  0.5148601039724315  0.6510645715079947  1.0000
  N   N6        1.0  0.7129473837396105  0.4851298984248374  0.34893627826294704  1.0000
  N   N7        1.0  0.5184296872811984  0.22478109163565557  0.6049453012902859  1.0000
  N   N8        1.0  0.4815687327073591  0.7752175816708942  0.39505636796448584  1.0000
