data_image0
_chemical_formula_structural       Zn4Co4H144C212N32O32
_chemical_formula_sum              "Zn4 Co4 H144 C212 N32 O32"
_cell_length_a       14.182915353564315
_cell_length_b       20.38804077906173
_cell_length_c       21.415405118711305
_cell_angle_alpha    108.71541459654841
_cell_angle_beta     109.24058902070061
_cell_angle_gamma    90.01818176501415

_space_group_name_H-M_alt    "P 1"
_space_group_IT_number       1

loop_
  _space_group_symop_operation_xyz
  'x, y, z'

loop_
  _atom_site_type_symbol
  _atom_site_label
  _atom_site_symmetry_multiplicity
  _atom_site_fract_x
  _atom_site_fract_y
  _atom_site_fract_z
  _atom_site_occupancy
  Zn  Zn1       1.0  0.6194571479151278  0.1187513423290127  0.16869422970462727  1.0000
  Zn  Zn2       1.0  0.3798982726057146  0.8359412545834883  0.44535156768338174  1.0000
  Zn  Zn3       1.0  0.9352901586072805  0.663953027308338  0.5555803377753323  1.0000
  Zn  Zn4       1.0  0.38028340534082644  0.8813860070300519  0.8312932468967419  1.0000
  Co  Co1       1.0  0.4512329060464211  0.3808812668598802  0.8306214289671204  1.0000
  Co  Co2       1.0  0.6216690543247125  0.16483692881745068  0.5544351862659838  1.0000
  Co  Co3       1.0  0.06606767296737105  0.33522130544750434  0.4446077988486509  1.0000
  Co  Co4       1.0  0.5483893322836408  0.6190413065322813  0.16952801932966113  1.0000
  H   H1        1.0  0.41205983136551083  0.6340852620176207  0.8513066992306265  1.0000
  H   H2        1.0  0.37037618226570157  0.6825085778223252  0.6637882606528791  1.0000
  H   H3        1.0  0.38611854309056076  0.559195472832954  0.6007947804771022  1.0000
  H   H4        1.0  0.4126113795799711  0.47265912989816167  0.6636881720630543  1.0000
  H   H5        1.0  0.40902714130895396  0.32347372868721885  0.9432362865943987  1.0000
  H   H6        1.0  0.205629986816838  0.4753773812855825  0.9635267706303026  1.0000
  H   H7        1.0  0.2977798650918686  0.48696595362076767  0.8705105980850121  1.0000
  H   H8        1.0  0.4318113399093876  0.35126150425173813  0.06556085224546143  1.0000
  H   H9        1.0  0.40068515392111687  0.3232030328464574  0.1607686297772872  1.0000
  H   H10       1.0  0.09406850265646231  0.3664004286031997  0.08689019012810212  1.0000
  H   H11       1.0  0.12358719397374787  0.39028893967064693  0.9881461090956452  1.0000
  H   H12       1.0  0.7753196015428686  0.2202540771518144  0.15724031768510116  1.0000
  H   H13       1.0  0.9480673243661855  0.05147943045894718  0.1196048883488885  1.0000
  H   H14       1.0  0.759605311690585  0.0031873173286526995  0.11456726034991503  1.0000
  H   H15       1.0  0.9732317127924971  0.25598973663211666  0.25814328025906974  1.0000
  H   H16       1.0  0.11959490305470412  0.33814383240005697  0.2831579174030168  1.0000
  H   H17       1.0  0.12375508449081711  0.23362361726017156  0.0743176354549178  1.0000
  H   H18       1.0  0.9792596491889612  0.14939173273076276  0.05055525462456968  1.0000
  H   H19       1.0  0.38674359382621054  0.6756028351936506  0.356258119611944  1.0000
  H   H20       1.0  0.07509007018039433  0.6433959414166425  0.32451570945806213  1.0000
  H   H21       1.0  0.14858314380094134  0.7841265635012389  0.395106064171344  1.0000
  H   H22       1.0  0.38928600069129277  0.5671139985410817  0.31576416460897155  1.0000
  H   H23       1.0  0.3855487737298873  0.44187936852116383  0.2627152169861944  1.0000
  H   H24       1.0  0.06513474585192823  0.41453071092666954  0.21488355731914777  1.0000
  H   H25       1.0  0.06761445652912101  0.5399554991952227  0.2677835537608004  1.0000
  H   H26       1.0  0.45839895973064426  0.23460123186590207  0.4598803392793301  1.0000
  H   H27       1.0  0.6011513868734042  0.16517974486066575  0.3075144836194568  1.0000
  H   H28       1.0  0.6925389982781739  0.11982988061923545  0.41993273050786695  1.0000
  H   H29       1.0  0.4369157721436636  0.33035512243404946  0.41525413464068356  1.0000
  H   H30       1.0  0.3195056908723187  0.38567579048638817  0.3427312159015444  1.0000
  H   H31       1.0  0.3111204265065481  0.21795743345689533  0.15565199046362474  1.0000
  H   H32       1.0  0.42927288136863956  0.16131998551097837  0.22941499937849846  1.0000
  H   H33       1.0  0.6019343147532865  0.9561324801588638  0.490475455095762  1.0000
  H   H34       1.0  0.7714831507868282  0.7811598410648414  0.47360173815297213  1.0000
  H   H35       1.0  0.9311896625725851  0.8625446455696134  0.5220390246993319  1.0000
  H   H36       1.0  0.9238640918739734  0.9913608390656204  0.555300940770735  1.0000
  H   H37       1.0  0.5605373642077254  0.8628260744627378  0.14909827860083877  1.0000
  H   H38       1.0  0.7084614816908683  0.8165256547641276  0.33758306862763743  1.0000
  H   H39       1.0  0.7861351618280352  0.9400518080746562  0.39911678259649375  1.0000
  H   H40       1.0  0.7476072794018122  0.025702066418389794  0.33515043227540536  1.0000
  H   H41       1.0  0.4644877559710778  0.17694524593886024  0.05731930137845612  1.0000
  H   H42       1.0  0.2406104787069765  0.023213747190830195  0.03382485419819402  1.0000
  H   H43       1.0  0.42526318138868646  0.011068480119035896  0.126894769162476  1.0000
  H   H44       1.0  0.3652027338367747  0.14840185379437534  0.9333769733112052  1.0000
  H   H45       1.0  0.23910437133659476  0.17691335152102278  0.8385298846222043  1.0000
  H   H46       1.0  0.006538032272047214  0.13403739978905793  0.9130598230224223  1.0000
  H   H47       1.0  0.1347037577427628  0.10997922377993058  0.011628822252156109  1.0000
  H   H48       1.0  0.6161491125948758  0.2795192078886116  0.8386750091994559  1.0000
  H   H49       1.0  0.8292252431514698  0.4496696723019297  0.8839926445860657  1.0000
  H   H50       1.0  0.6451030645263743  0.4974171315663369  0.8874617855483111  1.0000
  H   H51       1.0  0.7147926642272183  0.24405732623544193  0.7417331221497677  1.0000
  H   H52       1.0  0.8358566957800234  0.16169100714212448  0.7169032296863804  1.0000
  H   H53       1.0  0.048799266899941296  0.26714992542449767  0.9251801167921203  1.0000
  H   H54       1.0  0.9282456155839256  0.35149444500490284  0.948834959968821  1.0000
  H   H55       1.0  0.03028039402573775  0.8243327559058781  0.6440929643171032  1.0000
  H   H56       1.0  0.7499037775532074  0.8566246196263164  0.6753057637279555  1.0000
  H   H57       1.0  0.753400804712939  0.7157835620739732  0.6053049841570229  1.0000
  H   H58       1.0  0.07284579713248006  0.9328119279227632  0.6839487076473816  1.0000
  H   H59       1.0  0.1220188252750846  0.05802685580936639  0.7367494103079083  1.0000
  H   H60       1.0  0.8496521875642175  0.08557357268154678  0.7851016512135873  1.0000
  H   H61       1.0  0.799284483960932  0.9601255118802495  0.7323285391308262  1.0000
  H   H62       1.0  0.9969943041874032  0.26529559361151195  0.5394839887878435  1.0000
  H   H63       1.0  0.29157938825836294  0.3356258942128746  0.691567206695048  1.0000
  H   H64       1.0  0.2702598225131538  0.38068144137872634  0.5789277161407824  1.0000
  H   H65       1.0  0.02034178049418496  0.16966661721000517  0.5841662209189735  1.0000
  H   H66       1.0  0.9761766568396623  0.11419923653622278  0.6569540993088054  1.0000
  H   H67       1.0  0.15466298756297206  0.28199082480033866  0.8437656649975126  1.0000
  H   H68       1.0  0.19852595395479977  0.33873418921596243  0.7698115889931503  1.0000
  H   H69       1.0  0.11160165204929481  0.5440551272332356  0.5101248526542008  1.0000
  H   H70       1.0  0.2982425881220649  0.7189525256449156  0.5269794919259212  1.0000
  H   H71       1.0  0.4089315614749723  0.6374925660143163  0.4777790169096009  1.0000
  H   H72       1.0  0.3679285564378676  0.5086729035871896  0.44409952077214865  1.0000
  H   H73       1.0  0.588050644614718  0.3661631169360575  0.14898142478922696  1.0000
  H   H74       1.0  0.6293809579880545  0.3173145742769207  0.3362291129799645  1.0000
  H   H75       1.0  0.6135243202895709  0.4405640858360085  0.39939260227441054  1.0000
  H   H76       1.0  0.5868946180324387  0.5272353596395404  0.3366464109053312  1.0000
  H   H77       1.0  0.5911761558505475  0.6763309774493818  0.05706711428805992  1.0000
  H   H78       1.0  0.794083975383714  0.5240891655695348  0.03679729904753506  1.0000
  H   H79       1.0  0.7016896731470939  0.5126853327844286  0.12976826980692382  1.0000
  H   H80       1.0  0.5684680537943195  0.648339074879736  0.9347356841358804  1.0000
  H   H81       1.0  0.5998229431512956  0.6762488670233677  0.8395146384619849  1.0000
  H   H82       1.0  0.9063383306629264  0.6329380464782587  0.9136015954735515  1.0000
  H   H83       1.0  0.8766345005230107  0.6092596985299178  0.012413496013472492  1.0000
  H   H84       1.0  0.22549585222995466  0.7796764055182376  0.8433048896882697  1.0000
  H   H85       1.0  0.051513842129154074  0.9477880541371417  0.8806258861373736  1.0000
  H   H86       1.0  0.23947967237992188  0.9966187036330678  0.8852941601226763  1.0000
  H   H87       1.0  0.02841743242223778  0.7426803579016902  0.742832323685171  1.0000
  H   H88       1.0  0.882081958240441  0.6604371266103042  0.7177536212373355  1.0000
  H   H89       1.0  0.876074312688516  0.7660992551271588  0.9258836278619924  1.0000
  H   H90       1.0  0.020272468054358454  0.8504841159057646  0.949593516644022  1.0000
  H   H91       1.0  0.6124182708945868  0.32360504563235537  0.6432948190335284  1.0000
  H   H92       1.0  0.9236249667500617  0.3559687452663382  0.6735955524838461  1.0000
  H   H93       1.0  0.8499499305758038  0.21556283972067544  0.6022639739985183  1.0000
  H   H94       1.0  0.6102282244166661  0.4323694664172634  0.6839365042563942  1.0000
  H   H95       1.0  0.6146190446419907  0.5575682606405152  0.7377467725415486  1.0000
  H   H96       1.0  0.9350543269928835  0.5842842738714394  0.7853657573501424  1.0000
  H   H97       1.0  0.9318936154347456  0.458964612887776  0.7317221101099279  1.0000
  H   H98       1.0  0.5433457750467667  0.7662548972510022  0.5414291139966423  1.0000
  H   H99       1.0  0.39901137599041886  0.8337204608830785  0.6930437585444977  1.0000
  H   H100      1.0  0.30898749755701976  0.8806984667416201  0.5814745731560437  1.0000
  H   H101      1.0  0.5626512752971279  0.6690452986225848  0.5853580737520048  1.0000
  H   H102      1.0  0.6799614756087778  0.6134696531061008  0.6576474676602688  1.0000
  H   H103      1.0  0.6904522292876507  0.7816687384457308  0.8449675127092108  1.0000
  H   H104      1.0  0.5725260664393304  0.8386568596887114  0.771413517591597  1.0000
  H   H105      1.0  0.39681208000618556  0.042563393936639195  0.5068672043891598  1.0000
  H   H106      1.0  0.2313817370200084  0.21967624991737003  0.5281851382149085  1.0000
  H   H107      1.0  0.0705524787358201  0.1396072038436529  0.4798710845931924  1.0000
  H   H108      1.0  0.07524976550036645  0.010482023388291899  0.44522066331062154  1.0000
  H   H109      1.0  0.4391144086973853  0.13693497653216716  0.8506295472869781  1.0000
  H   H110      1.0  0.2912832791319105  0.1835507941344972  0.6623169547462242  1.0000
  H   H111      1.0  0.21348333574349002  0.06006008086873038  0.6006408570705091  1.0000
  H   H112      1.0  0.25156301596511804  0.9743319930208255  0.6645316130651935  1.0000
  H   H113      1.0  0.535636176021555  0.8233726472625803  0.9424344490295198  1.0000
  H   H114      1.0  0.7591311783221713  0.9773027015772864  0.9658302090125518  1.0000
  H   H115      1.0  0.5742546962406081  0.9894028543043516  0.8729142300536239  1.0000
  H   H116      1.0  0.634867136969028  0.8522558437058547  0.06632104461787953  1.0000
  H   H117      1.0  0.7609787927170899  0.8237585147928568  0.16117929986990018  1.0000
  H   H118      1.0  0.9935010411369163  0.8664002911167824  0.0864946422530579  1.0000
  H   H119      1.0  0.8652551900196955  0.8903895588199756  0.9878594376955335  1.0000
  H   H120      1.0  0.3839137826659353  0.7206878233025478  0.16105768390625036  1.0000
  H   H121      1.0  0.1700786225006894  0.5509860630548854  0.11570872305316016  1.0000
  H   H122      1.0  0.3541712214223977  0.5028445949595052  0.11262037027415772  1.0000
  H   H123      1.0  0.28574082497286213  0.7571667167419914  0.2574716714660923  1.0000
  H   H124      1.0  0.16479201987093722  0.839649543556966  0.2823561386135438  1.0000
  H   H125      1.0  0.9507004397831338  0.7330425520418441  0.07477504642641716  1.0000
  H   H126      1.0  0.07109586931404266  0.6485977329073332  0.0511495175445802  1.0000
  H   H127      1.0  0.9689016561550545  0.1763271956185832  0.35633239924408144  1.0000
  H   H128      1.0  0.25021039279923946  0.14398924331108276  0.3264608241623393  1.0000
  H   H129      1.0  0.24724281363078401  0.28448166966585825  0.39720263608752765  1.0000
  H   H130      1.0  0.926551753138412  0.06752911842553286  0.3163157317636589  1.0000
  H   H131      1.0  0.8774287415304015  0.9423220669401214  0.2627637645986098  1.0000
  H   H132      1.0  0.15010182773027483  0.9155563087884815  0.21469027092896917  1.0000
  H   H133      1.0  0.20031804282068316  0.04094254324184728  0.2681033147911478  1.0000
  H   H134      1.0  0.003005897538962203  0.7340292210780602  0.45936336051449445  1.0000
  H   H135      1.0  0.7078388570598123  0.6652265136488891  0.3077496113974192  1.0000
  H   H136      1.0  0.7295849719130628  0.6186653297461076  0.41958857841095937  1.0000
  H   H137      1.0  0.9783234670204451  0.8309234985198157  0.41525054849388005  1.0000
  H   H138      1.0  0.022821114025809684  0.8865687485505162  0.3426777229734128  1.0000
  H   H139      1.0  0.845892235126378  0.7183896169183296  0.15563014081654108  1.0000
  H   H140      1.0  0.8019538004861744  0.6613636651649909  0.22938182809379984  1.0000
  H   H141      1.0  0.8891553733496451  0.4575421224286129  0.49233666349786637  1.0000
  H   H142      1.0  0.7027672467624556  0.2802769165346604  0.4711273965325022  1.0000
  H   H143      1.0  0.5905747680458333  0.36021620153461936  0.5201224871641302  1.0000
  H   H144      1.0  0.6298945931228063  0.4893829904098082  0.5551041272343796  1.0000
  C   C1        1.0  0.435152259405534  0.49780239516549324  0.8008070239443797  1.0000
  C   C2        1.0  0.41503849400474024  0.5479959638026273  0.7615586446278898  1.0000
  C   C3        1.0  0.40654985841219826  0.6173129123371196  0.7964110344246792  1.0000
  C   C4        1.0  0.390651569458491  0.6658650586051706  0.7614451909098038  1.0000
  C   C5        1.0  0.3833565060239864  0.644568185969163  0.690798102046955  1.0000
  C   C6        1.0  0.39183837589859394  0.5753851771997346  0.6556802539363532  1.0000
  C   C7        1.0  0.4067057649790371  0.5270223031290724  0.6905855539558701  1.0000
  C   C8        1.0  0.3845836475601203  0.7401241507434333  0.8013802736699561  1.0000
  C   C9        1.0  0.36733212349977873  0.36681376096562696  0.9366937030437585  1.0000
  C   C10       1.0  0.2586459208346526  0.44497275007253007  0.9438172970996206  1.0000
  C   C11       1.0  0.3050174292078084  0.45043049887252806  0.8985526837604143  1.0000
  C   C12       1.0  0.27942848427392153  0.37154462639957575  0.020322968729914202  1.0000
  C   C13       1.0  0.3563539037843384  0.3510721950984673  0.06792366766300972  1.0000
  C   C14       1.0  0.338416595926013  0.3361343038558359  0.1224382813756719  1.0000
  C   C15       1.0  0.2448146666265743  0.34201577671369415  0.13077316075311532  1.0000
  C   C16       1.0  0.16763769054977473  0.3611464410518223  0.0812170810497719  1.0000
  C   C17       1.0  0.1839966783956015  0.3754368795020253  0.026194125910627978  1.0000
  C   C18       1.0  0.2275171041149378  0.33985774667029733  0.1973786539427635  1.0000
  C   C19       1.0  0.7963833230564604  0.16773891535702026  0.14699449173834722  1.0000
  C   C20       1.0  0.883431323611923  0.07795976662318789  0.12471816706438693  1.0000
  C   C21       1.0  0.7913638032660799  0.05499689210406441  0.12306912468925196  1.0000
  C   C22       1.0  0.9682391151451027  0.19784040033410827  0.15297678550588506  1.0000
  C   C23       1.0  0.006023787685968762  0.251731833055217  0.21779437198255638  1.0000
  C   C24       1.0  0.08780738633542036  0.2983249431727869  0.23120685466626875  1.0000
  C   C25       1.0  0.13089929585112972  0.29301380573718205  0.1796937298733781  1.0000
  C   C26       1.0  0.0912051685124524  0.23881702352722556  0.1149156920392898  1.0000
  C   C27       1.0  0.010592619792362298  0.19102038981166194  0.1013495650865721  1.0000
  C   C28       1.0  0.31146842679042663  0.6854156454725594  0.3559807861143298  1.0000
  C   C29       1.0  0.14915408504323582  0.6703514546312446  0.3402127027383557  1.0000
  C   C30       1.0  0.18502099818964268  0.7393438793443107  0.3750857125069444  1.0000
  C   C31       1.0  0.22833098685681114  0.5631722176037497  0.296110099111516  1.0000
  C   C32       1.0  0.3175024585625793  0.5344403049947599  0.29411230760743484  1.0000
  C   C33       1.0  0.31532137606539123  0.46289635816007263  0.2642051421645917  1.0000
  C   C34       1.0  0.22542611650278127  0.4177082319071203  0.23593063594761793  1.0000
  C   C35       1.0  0.136971795985005  0.4472934477025489  0.23719975193884582  1.0000
  C   C36       1.0  0.13801964173669032  0.5191533484121817  0.26704635748826894  1.0000
  C   C37       1.0  0.509790839623939  0.20962640864546955  0.4340584307134634  1.0000
  C   C38       1.0  0.583775628852692  0.17055392091651805  0.3542842282696199  1.0000
  C   C39       1.0  0.628743827290073  0.14909250606952898  0.41043195603246846  1.0000
  C   C40       1.0  0.4417664081128904  0.24218285023682276  0.32717577785426505  1.0000
  C   C41       1.0  0.41045664416029143  0.305376898848884  0.35835104283019353  1.0000
  C   C42       1.0  0.3442828353005113  0.337451278076088  0.3163526335464796  1.0000
  C   C43       1.0  0.3090062755087359  0.307966435331579  0.24298830639290972  1.0000
  C   C44       1.0  0.34006264033340733  0.2437762807615371  0.21257999839890124  1.0000
  C   C45       1.0  0.40607970324430914  0.21109601427993138  0.25389227937024134  1.0000
  C   C46       1.0  0.7570182917287128  0.0590498899026173  0.546053192400983  1.0000
  C   C47       1.0  0.7627305970095507  0.9818184734696654  0.5271179388526833  1.0000
  C   C48       1.0  0.6741545742130625  0.935669976715559  0.4980981954574519  1.0000
  C   C49       1.0  0.6771287625657576  0.8635225993827471  0.4778396384271345  1.0000
  C   C50       1.0  0.7703345848140231  0.8373964143695573  0.4880059153303409  1.0000
  C   C51       1.0  0.8588883302856588  0.88315284461936  0.5154635355237148  1.0000
  C   C52       1.0  0.8554131983508951  0.9551710800302116  0.5347046241915338  1.0000
  C   C53       1.0  0.5800182944261465  0.8154748604320471  0.44772684199663365  1.0000
  C   C54       1.0  0.6321809184440212  0.9988095172346119  0.19745935769170594  1.0000
  C   C55       1.0  0.65258259385012  0.9495102682613845  0.2379854823102221  1.0000
  C   C56       1.0  0.6099405236437434  0.8800369980215094  0.20393181427327534  1.0000
  C   C57       1.0  0.6298387774793851  0.8320545506560675  0.23954421080877353  1.0000
  C   C58       1.0  0.6936156283457111  0.854013019089905  0.3100443022791169  1.0000
  C   C59       1.0  0.7366295551553533  0.9233324578014358  0.344353837964178  1.0000
  C   C60       1.0  0.7155085779007636  0.971184246729379  0.30882148883020494  1.0000
  C   C61       1.0  0.5841309109075682  0.7579165005817926  0.20060318732959811  1.0000
  C   C62       1.0  0.42897651439609064  0.13300390964818118  0.06285510672555725  1.0000
  C   C63       1.0  0.31324490147954975  0.053805911240019065  0.05413699081180574  1.0000
  C   C64       1.0  0.40443869810211197  0.04810150292212259  0.09946235141600115  1.0000
  C   C65       1.0  0.2580602433102471  0.12846620516427262  0.9789391314606777  1.0000
  C   C66       1.0  0.2875172876923529  0.14890947427332427  0.9313071001175713  1.0000
  C   C67       1.0  0.21516139404086235  0.16395017493956485  0.8769237255297355  1.0000
  C   C68       1.0  0.11331890029188697  0.1581141318263874  0.8688087814215636  1.0000
  C   C69       1.0  0.08568888471426574  0.13912069042947184  0.918525860752027  1.0000
  C   C70       1.0  0.15694801666398234  0.12473428358605787  0.9734068124721492  1.0000
  C   C71       1.0  0.029416612435632424  0.16018783168454578  0.8023211235017272  1.0000
  C   C72       1.0  0.6477987583564158  0.33231592344854016  0.8504152852801569  1.0000
  C   C73       1.0  0.7587472774108691  0.4227385503732035  0.877074507087464  1.0000
  C   C74       1.0  0.6679408647055993  0.44547927884186556  0.8778729371034403  1.0000
  C   C75       1.0  0.8146827513334856  0.30267857320284713  0.8466862508368325  1.0000
  C   C76       1.0  0.7877870977939809  0.2484170519755152  0.782078988736487  1.0000
  C   C77       1.0  0.8560298841100008  0.20168152548603044  0.7687630575743685  1.0000
  C   C78       1.0  0.9505660929064917  0.20710983398391383  0.8201409540201753  1.0000
  C   C79       1.0  0.9756460107084167  0.2616878562946354  0.8846852433708609  1.0000
  C   C80       1.0  0.9086667336200666  0.30961496717375064  0.8981708250014581  1.0000
  C   C81       1.0  0.9552615513318373  0.8145498871480114  0.6443782940934782  1.0000
  C   C82       1.0  0.8084833446596633  0.829633909723071  0.6598770808303982  1.0000
  C   C83       1.0  0.8097600506662702  0.7605905437686501  0.6252800735840296  1.0000
  C   C84       1.0  0.9316400676175078  0.9368356084248501  0.7038341235943477  1.0000
  C   C85       1.0  0.022747965140951017  0.965533378270123  0.705675279013164  1.0000
  C   C86       1.0  0.05039706034654068  0.037082359949842186  0.7354936045314064  1.0000
  C   C87       1.0  0.9888301771981818  0.08231310155537837  0.763897826807103  1.0000
  C   C88       1.0  0.8991595095086921  0.05274880217710629  0.7627640684438007  1.0000
  C   C89       1.0  0.870397282496221  0.9808898478849241  0.7329734713331606  1.0000
  C   C90       1.0  0.07403755389056242  0.2904209893967432  0.5651440358452007  1.0000
  C   C91       1.0  0.22748360519737798  0.32988287796630533  0.6447777940901036  1.0000
  C   C92       1.0  0.2161768392013812  0.35128092567882147  0.5885446230139877  1.0000
  C   C93       1.0  0.11318140154111245  0.2579125084086725  0.6721177444068119  1.0000
  C   C94       1.0  0.05093212654639977  0.19465216742378288  0.6410626860653609  1.0000
  C   C95       1.0  0.027097456712247833  0.16249853371423473  0.6832057278280246  1.0000
  C   C96       1.0  0.06525038646945097  0.19197972149036957  0.7565494256210102  1.0000
  C   C97       1.0  0.12655259676574818  0.25619167706209817  0.7868410389202652  1.0000
  C   C98       1.0  0.15097057591653143  0.28893998844435487  0.7454023731080498  1.0000
  C   C99       1.0  0.21035456186639584  0.4410579639651147  0.45355091448655577  1.0000
  C   C100      1.0  0.23539238137396276  0.5183047701204515  0.47291757198578216  1.0000
  C   C101      1.0  0.17616286920814173  0.5644928939456619  0.5023861349452903  1.0000
  C   C102      1.0  0.19964641669634625  0.6366469368786908  0.5228873685511958  1.0000
  C   C103      1.0  0.2825685321542937  0.6627219048181628  0.5124830024361345  1.0000
  C   C104      1.0  0.34333943208739737  0.6169232937847652  0.4845895625345733  1.0000
  C   C105      1.0  0.3203958806443126  0.5449010449826588  0.4651101746330896  1.0000
  C   C106      1.0  0.1329347032129818  0.684763525411739  0.5533931474113559  1.0000
  C   C107      1.0  0.5641859633564507  0.5023179465315407  0.1995659487627109  1.0000
  C   C108      1.0  0.5846620585224755  0.45207499785833954  0.23873645237391375  1.0000
  C   C109      1.0  0.5934885644211221  0.3828313416565337  0.20385509089267376  1.0000
  C   C110      1.0  0.6094665938278965  0.3342257380126269  0.23874675058694816  1.0000
  C   C111      1.0  0.6165660525297341  0.3553703970622521  0.3093471742097692  1.0000
  C   C112      1.0  0.6079003467975711  0.424498275261186  0.34453228473320513  1.0000
  C   C113      1.0  0.5929927181926118  0.47292343701952416  0.3097017737163697  1.0000
  C   C114      1.0  0.6156137421360269  0.2599836311867705  0.19876357281571452  1.0000
  C   C115      1.0  0.6327277397441833  0.632942500091964  0.0636346854811407  1.0000
  C   C116      1.0  0.741188455351697  0.5546209630701425  0.0565435953642606  1.0000
  C   C117      1.0  0.6946727657336638  0.5492289764808475  0.10175695531742687  1.0000
  C   C118      1.0  0.7208124393906276  0.6280535667923315  0.9801023503906949  1.0000
  C   C119      1.0  0.6439687252403489  0.6485007371752259  0.9324393325215612  1.0000
  C   C120      1.0  0.6620081722089566  0.663328806473899  0.8779048570594911  1.0000
  C   C121      1.0  0.7556229904916522  0.6573383580193662  0.8696113272921765  1.0000
  C   C122      1.0  0.8327496439673399  0.6382669477455847  0.9192480646310062  1.0000
  C   C123      1.0  0.8162820639818877  0.6240889988690766  0.9742960873187487  1.0000
  C   C124      1.0  0.7729858635614024  0.6593844479458253  0.8030206013892001  1.0000
  C   C125      1.0  0.2039549999425746  0.8320627024429612  0.8533875415445992  1.0000
  C   C126      1.0  0.11629069726837561  0.9215240250871372  0.8754625775021053  1.0000
  C   C127      1.0  0.20812630104250482  0.944736304838642  0.8769361275862411  1.0000
  C   C128      1.0  0.03231036922909428  0.8014876788162011  0.8475528942896419  1.0000
  C   C129      1.0  0.9951549704904465  0.7472088454541818  0.7829964099543931  1.0000
  C   C130      1.0  0.9133985263896421  0.7005720353216842  0.769539528766181  1.0000
  C   C131      1.0  0.8697496325487182  0.7061670538818986  0.8208147018444694  1.0000
  C   C132      1.0  0.9089632843784018  0.7606750732802892  0.8854194950502859  1.0000
  C   C133      1.0  0.9894558578776443  0.808562899025702  0.8989718069355636  1.0000
  C   C134      1.0  0.6874695861757304  0.31385332670875227  0.6430277227984506  1.0000
  C   C135      1.0  0.8495467376097281  0.3290538777494375  0.6579853709135721  1.0000
  C   C136      1.0  0.8135654827009304  0.2601707880769197  0.622679637561184  1.0000
  C   C137      1.0  0.7711214502060884  0.4359864023987681  0.7033731988826021  1.0000
  C   C138      1.0  0.6821509212579145  0.4649256946988557  0.7057308708974335  1.0000
  C   C139      1.0  0.6847237419596792  0.5364559893295534  0.7360462869649211  1.0000
  C   C140      1.0  0.7747683354400082  0.581511110187719  0.7643900700805731  1.0000
  C   C141      1.0  0.8630466821549801  0.5517115559980751  0.7629354475508593  1.0000
  C   C142      1.0  0.8616292349163504  0.4798877168166624  0.732687004262836  1.0000
  C   C143      1.0  0.4919012864916468  0.7910865913664862  0.567337911871512  1.0000
  C   C144      1.0  0.4169455690250031  0.829171102838586  0.6466485186585872  1.0000
  C   C145      1.0  0.37268427043704827  0.8513502897856565  0.5909068046050194  1.0000
  C   C146      1.0  0.5590170039068952  0.7574821568917184  0.6736207118315393  1.0000
  C   C147      1.0  0.5895692700997232  0.6940699039266816  0.6422771117518381  1.0000
  C   C148      1.0  0.6557244585117489  0.6618662625160069  0.6841621449654343  1.0000
  C   C149      1.0  0.6916127226789753  0.6914624951772197  0.7575138633977759  1.0000
  C   C150      1.0  0.6611697277635856  0.7558568772670425  0.7880545968358492  1.0000
  C   C151      1.0  0.5952229221566298  0.7886973688814933  0.746880347765668  1.0000
  C   C152      1.0  0.24132262314908096  0.9410244250288355  0.4523551705555917  1.0000
  C   C153      1.0  0.23614909744045318  0.018506367764338397  0.4721494481672224  1.0000
  C   C154      1.0  0.3253458991439688  0.06390023165791087  0.5006580636992483  1.0000
  C   C155      1.0  0.3238854856496974  0.13619126030406647  0.5219008463486221  1.0000
  C   C156      1.0  0.23145858878009312  0.16333049005228867  0.5130417173845672  1.0000
  C   C157      1.0  0.14225557623373675  0.11827529791602126  0.485721666471335  1.0000
  C   C158      1.0  0.14427980494756565  0.046073546170433084  0.46569428848198424  1.0000
  C   C159      1.0  0.4214073478815552  0.18328749777302988  0.551493074247958  1.0000
  C   C160      1.0  0.36698407249769377  0.0011234826416455007  0.8022733206527024  1.0000
  C   C161      1.0  0.34675218596652974  0.05041650552292509  0.7617485771751619  1.0000
  C   C162      1.0  0.38966611748771396  0.11983074053332385  0.7958148236711156  1.0000
  C   C163      1.0  0.3699131887172059  0.16787072797897906  0.7602729347288887  1.0000
  C   C164      1.0  0.3060766473152441  0.14599857874488012  0.6897826898928302  1.0000
  C   C165      1.0  0.2629232008667445  0.07670542109524085  0.6554200544635123  1.0000
  C   C166      1.0  0.28383407264976057  0.0288167741291829  0.6909132458075433  1.0000
  C   C167      1.0  0.4157722165306198  0.24199309345225825  0.7992827187441237  1.0000
  C   C168      1.0  0.571013773253391  0.8673477939362114  0.9368646544247385  1.0000
  C   C169      1.0  0.6865397548580249  0.9466458234145773  0.9454935696007213  1.0000
  C   C170      1.0  0.5952207821249687  0.9523299359902706  0.9002775375791502  1.0000
  C   C171      1.0  0.7419564542900331  0.871931638994603  0.020624522116335777  1.0000
  C   C172      1.0  0.7125117838093686  0.8515940047764515  0.06831259738190457  1.0000
  C   C173      1.0  0.7848794715271765  0.8366028243937077  0.12271072325144418  1.0000
  C   C174      1.0  0.8866930639307498  0.8424116275312411  0.13076974748535977  1.0000
  C   C175      1.0  0.9143350314668625  0.8613005295918087  0.08100096352124815  1.0000
  C   C176      1.0  0.8430408227670654  0.8756383133755816  0.02609480777435639  1.0000
  C   C177      1.0  0.9705395055060535  0.8404606336639374  0.19730855911983278  1.0000
  C   C178      1.0  0.35203685307357085  0.6679628327197448  0.14935982865249295  1.0000
  C   C179      1.0  0.24072916299692795  0.5777684698295431  0.12272431988009917  1.0000
  C   C180      1.0  0.33149196555758215  0.5548343534845795  0.12209586423840339  1.0000
  C   C181      1.0  0.1852153997477544  0.6979616073377385  0.15294463004377695  1.0000
  C   C182      1.0  0.21247670033721983  0.7525677403634103  0.21731924562221389  1.0000
  C   C183      1.0  0.14430195070683993  0.7993529595553638  0.23066288463475362  1.0000
  C   C184      1.0  0.049477540098472175  0.7936195695829226  0.179485703229247  1.0000
  C   C185      1.0  0.024071274121538967  0.7387222965492269  0.11513076814784279  1.0000
  C   C186      1.0  0.09095643768662141  0.6907371030617782  0.10164911682174702  1.0000
  C   C187      1.0  0.044226418845148906  0.18609555689697288  0.35658183745908195  1.0000
  C   C188      1.0  0.19152721390382507  0.17090160476158892  0.34181618005161607  1.0000
  C   C189      1.0  0.19054921214251408  0.23983357606061867  0.3768483563631264  1.0000
  C   C190      1.0  0.06792191685833873  0.0639235045766355  0.29663190001047474  1.0000
  C   C191      1.0  0.9767120720980527  0.03497267924588949  0.29447010663402307  1.0000
  C   C192      1.0  0.9491041288263987  0.9634252643438115  0.2642357760013213  1.0000
  C   C193      1.0  0.01082676372494268  0.9183645123548345  0.23581126860910476  1.0000
  C   C194      1.0  0.10046481025669608  0.9481719561589013  0.23710971910065123  1.0000
  C   C195      1.0  0.12917734574438103  0.020013195750209396  0.267274399117376  1.0000
  C   C196      1.0  0.9258819947789191  0.7089849578945502  0.43356176137517377  1.0000
  C   C197      1.0  0.7720701751241207  0.6703031381001451  0.35425109309941405  1.0000
  C   C198      1.0  0.7836269339813455  0.6482111011256888  0.41007734385600264  1.0000
  C   C199      1.0  0.8864928470907145  0.7424363088303138  0.3271238735894499  1.0000
  C   C200      1.0  0.9482163730264762  0.8058790432806474  0.3583396453099042  1.0000
  C   C201      1.0  0.9721975751091136  0.8381417806496072  0.31631726638883617  1.0000
  C   C202      1.0  0.9346318171113311  0.8085354268446491  0.24297370215137454  1.0000
  C   C203      1.0  0.8736834450192816  0.744177793057105  0.21254761055573113  1.0000
  C   C204      1.0  0.8491809490330199  0.7112995387227556  0.25386066923633177  1.0000
  C   C205      1.0  0.7890026769631932  0.5589871266584793  0.5481128334562301  1.0000
  C   C206      1.0  0.7636241429136917  0.48146350488370615  0.5276746965940549  1.0000
  C   C207      1.0  0.8239957586005391  0.43611435444820035  0.4986324575193778  1.0000
  C   C208      1.0  0.8011844438043809  0.36380820060224994  0.477112198133959  1.0000
  C   C209      1.0  0.7178767861291251  0.336625763451444  0.4862922464106704  1.0000
  C   C210      1.0  0.6562057968419026  0.38163116312603745  0.5140318854964931  1.0000
  C   C211      1.0  0.6782929762846378  0.4538527445962827  0.5342622310334805  1.0000
  C   C212      1.0  0.8689444065721758  0.31678974527532927  0.44711550971397435  1.0000
  N   N1        1.0  0.3719610821980269  0.40117645292278326  0.8942408873281666  1.0000
  N   N2        1.0  0.29920633735154195  0.39196982652263296  0.9680962657349569  1.0000
  N   N3        1.0  0.7381310601947605  0.11139887423475162  0.1366254475950798  1.0000
  N   N4        1.0  0.8855983694654486  0.1497058822889201  0.14031315817445744  1.0000
  N   N5        1.0  0.2859089696905883  0.7477722800564378  0.38419738170863127  1.0000
  N   N6        1.0  0.22967143365076478  0.636164601556132  0.3280212469930036  1.0000
  N   N7        1.0  0.5819345962489283  0.17351783617479544  0.4595784731974747  1.0000
  N   N8        1.0  0.5085951614508347  0.20894453085173123  0.36982251966819757  1.0000
  N   N9        1.0  0.4753539257512287  0.09795227484818976  0.10461572044187763  1.0000
  N   N10       1.0  0.3298292534834317  0.10762484564017427  0.03090701208700611  1.0000
  N   N11       1.0  0.5997906214973128  0.38864358609729505  0.8614223104633683  1.0000
  N   N12       1.0  0.7446577614267583  0.3507023136855948  0.8592092332123971  1.0000
  N   N13       1.0  0.9016919859713182  0.7521614906705236  0.6163577894791034  1.0000
  N   N14       1.0  0.9011640424607491  0.8638395363917007  0.6720697183804274  1.0000
  N   N15       1.0  0.12041948740027672  0.3266303331497865  0.5394931631798984  1.0000
  N   N16       1.0  0.13704604705015552  0.29127426875754026  0.629373037033254  1.0000
  N   N17       1.0  0.6278752385101001  0.5985906673936865  0.10604500239771397  1.0000
  N   N18       1.0  0.7008751973275124  0.6076892831086765  0.0323029438695457  1.0000
  N   N19       1.0  0.26173792491208314  0.8885239527646007  0.8635062254180428  1.0000
  N   N20       1.0  0.11465847317408176  0.8498123364134  0.8601104176704625  1.0000
  N   N21       1.0  0.7125840645946014  0.2514824927153895  0.6138851847398143  1.0000
  N   N22       1.0  0.7694373806754128  0.36316898703741163  0.6709302188002014  1.0000
  N   N23       1.0  0.420145416355254  0.8275602968099987  0.5421739710597748  1.0000
  N   N24       1.0  0.492324397852663  0.7909835639984378  0.6310796951859744  1.0000
  N   N25       1.0  0.5244431188982618  0.9024229034451493  0.8951868331420559  1.0000
  N   N26       1.0  0.6701382559333737  0.8927567242902156  0.9686810415817677  1.0000
  N   N27       1.0  0.3998649561468496  0.6115332530979669  0.13852921678007854  1.0000
  N   N28       1.0  0.25507335971452955  0.6497875919262837  0.1404788124104996  1.0000
  N   N29       1.0  0.09824283607488836  0.2485156330940298  0.3855158253883957  1.0000
  N   N30       1.0  0.09852928173568644  0.13675671318847551  0.32890087054050815  1.0000
  N   N31       1.0  0.8795182347823243  0.6723620340326802  0.45880915182743826  1.0000
  N   N32       1.0  0.8626714451316602  0.7088245049164783  0.36976880298628606  1.0000
  O   O1        1.0  0.41345417604818385  0.4318496175570914  0.7634505914504502  1.0000
  O   O2        1.0  0.4716944426303015  0.5189256200699573  0.8669646256602165  1.0000
  O   O3        1.0  0.36943636566655874  0.7832248738861549  0.7666976010945562  1.0000
  O   O4        1.0  0.39486328946084376  0.7577046405048476  0.8654671786280234  1.0000
  O   O5        1.0  0.6720000764596249  0.07756967871613801  0.5528226206895752  1.0000
  O   O6        1.0  0.8290596673058843  0.09963975142660789  0.5532008033074974  1.0000
  O   O7        1.0  0.5006622098665404  0.8442886882270314  0.42339883798804595  1.0000
  O   O8        1.0  0.5800871825573849  0.7547040933631165  0.44946805548367763  1.0000
  O   O9        1.0  0.6499432522546797  0.06490621429481537  0.23447874560494605  1.0000
  O   O10       1.0  0.6002346828168186  0.9756562408047387  0.13135708886872527  1.0000
  O   O11       1.0  0.6031279919374555  0.7149125526257334  0.23544030586477757  1.0000
  O   O12       1.0  0.5299552797086448  0.7389287489591678  0.13646810883782481  1.0000
  O   O13       1.0  0.11858172990622509  0.4226642050704469  0.4468676482984719  1.0000
  O   O14       1.0  0.27494037160383294  0.4003178626077925  0.44595476192758104  1.0000
  O   O15       1.0  0.07800115470627857  0.6559793669690349  0.5779103257664604  1.0000
  O   O16       1.0  0.13130835228038512  0.7455735852949273  0.5517435937497694  1.0000
  O   O17       1.0  0.585639162307622  0.5682726492398869  0.2369476237467509  1.0000
  O   O18       1.0  0.5276108452937791  0.4812368086316281  0.1334107462298064  1.0000
  O   O19       1.0  0.6307238450279443  0.21686594481030846  0.23342041729739557  1.0000
  O   O20       1.0  0.6054512422469287  0.24246883358063795  0.13469781774249165  1.0000
  O   O21       1.0  0.32574667492647796  0.9228189857485843  0.4447292775890689  1.0000
  O   O22       1.0  0.16909387926216382  0.9007641196261531  0.4454261354764385  1.0000
  O   O23       1.0  0.5006992870494074  0.15245159872659286  0.5721074457438675  1.0000
  O   O24       1.0  0.4232829320485936  0.24509663550659155  0.5529536677398357  1.0000
  O   O25       1.0  0.34941451448253286  0.9350231399327524  0.7652922513400358  1.0000
  O   O26       1.0  0.3987604841737565  0.024295451974843695  0.8683747336290609  1.0000
  O   O27       1.0  0.3966937042930568  0.28504932196225496  0.7645096590906634  1.0000
  O   O28       1.0  0.47005973047406985  0.26086981755042155  0.8633857855276478  1.0000
  O   O29       1.0  0.8812156502236803  0.5771063853249527  0.5560214597299763  1.0000
  O   O30       1.0  0.7239152629689374  0.5993599218220139  0.5552692765014842  1.0000
  O   O31       1.0  0.927439674457716  0.34768974338770414  0.4263203826547299  1.0000
  O   O32       1.0  0.8694984669813267  0.25494302157575527  0.4455419607613751  1.0000
