data_image0
_chemical_formula_structural       Ag4H48C50N16O8
_chemical_formula_sum              "Ag4 H48 C50 N16 O8"
_cell_length_a       11.364970323636754
_cell_length_b       11.392056274937598
_cell_length_c       12.142
_cell_angle_alpha    85.54947685044704
_cell_angle_beta     65.57443595293392
_cell_angle_gamma    77.06243629029356

_space_group_name_H-M_alt    "P 1"
_space_group_IT_number       1

loop_
  _space_group_symop_operation_xyz
  'x, y, z'

loop_
  _atom_site_type_symbol
  _atom_site_label
  _atom_site_symmetry_multiplicity
  _atom_site_fract_x
  _atom_site_fract_y
  _atom_site_fract_z
  _atom_site_occupancy
  Ag  Ag1       1.0  0.7984928009765468  0.6904788118636986  0.5526378023763102  1.0000
  Ag  Ag2       1.0  0.20150304312596032  0.3095210086975726  0.4473638192196745  1.0000
  Ag  Ag3       1.0  0.4889536620310865  0.1989905311469329  0.34309141389342557  1.0000
  Ag  Ag4       1.0  0.5110450812392386  0.8010092894143312  0.6569082619978628  1.0000
  H   H1        1.0  0.631697705069044  0.511910246410757  0.7715881295219161  1.0000
  H   H2        1.0  0.36830145601565084  0.48808777255678143  0.22841398658351852  1.0000
  H   H3        1.0  0.0070274422187636965  0.3044972645894362  0.735999652436888  1.0000
  H   H4        1.0  0.9929731556834653  0.6955070599561424  0.264000624883579  1.0000
  H   H5        1.0  0.039137543883022416  0.5134154779697795  0.6069453831049998  1.0000
  H   H6        1.0  0.9608584309800249  0.48658794577893627  0.3930542783738247  1.0000
  H   H7        1.0  0.6475037986015764  0.3249867900482002  0.9214447902708257  1.0000
  H   H8        1.0  0.3524939782794761  0.6750130305130639  0.07855278889686446  1.0000
  H   H9        1.0  0.8063261365007292  0.2315741552959878  0.8838649513625185  1.0000
  H   H10       1.0  0.19367453954814107  0.7684256652652764  0.11613397645066928  1.0000
  H   H11       1.0  0.5115797171744775  0.3110667761154531  0.8179639455940232  1.0000
  H   H12       1.0  0.4884206192066714  0.6889303420552153  0.18203448684792528  1.0000
  H   H13       1.0  0.6357041669900526  0.3510099106398741  0.6838017568885418  1.0000
  H   H14       1.0  0.3642959604839078  0.6489881083276572  0.3161966908276525  1.0000
  H   H15       1.0  0.6135788502913827  0.3281530910236512  0.5022331719415263  1.0000
  H   H16       1.0  0.3864189265896698  0.6718467295376129  0.4977660544012608  1.0000
  H   H17       1.0  0.4549598119691964  0.0846397740979015  0.780434666110679  1.0000
  H   H18       1.0  0.5450432146725814  0.9153582448696369  0.21956265948836767  1.0000
  H   H19       1.0  0.4013110400915352  0.04898533344093891  0.5863458027395438  1.0000
  H   H20       1.0  0.5986877031787898  0.9510144871203252  0.4136538731517375  1.0000
  H   H21       1.0  0.8709698134553605  0.224090334953452  0.6019937907604672  1.0000
  H   H22       1.0  0.12903363100078016  0.7759058824203606  0.3980051514651777  1.0000
  H   H23       1.0  0.916056589578794  0.1131022525961285  0.6955086009371527  1.0000
  H   H24       1.0  0.08394492209880872  0.8868939647776842  0.3044902657790445  1.0000
  H   H25       1.0  0.8385091439219466  0.1528327990607465  0.42753752268426837  1.0000
  H   H26       1.0  0.16148939044119  0.8471679222973806  0.5724613448937176  1.0000
  H   H27       1.0  0.8236052857120483  0.9282369376280926  0.36343042734529984  1.0000
  H   H28       1.0  0.1763951814296334  0.0717637837300344  0.6365652213919475  1.0000
  H   H29       1.0  0.8499217113073957  0.9006941727275759  0.7027108482814908  1.0000
  H   H30       1.0  0.15007724087011098  0.0993047470368253  0.2972871651604478  1.0000
  H   H31       1.0  0.6258992334510153  0.0344870079217756  0.8196324144013686  1.0000
  H   H32       1.0  0.37410379319076975  0.9655110110457628  0.18036573478521942  1.0000
  H   H33       1.0  0.7523505192233131  0.0340735421614013  0.8686657704208186  1.0000
  H   H34       1.0  0.24765423128982897  0.9659253776029998  0.13133164596192157  1.0000
  H   H35       1.0  0.3865712835269548  0.1924408371519206  0.9554921489509808  1.0000
  H   H36       1.0  0.6134283735187438  0.8075508762375706  0.044506116336037856  1.0000
  H   H37       1.0  0.2910707562199875  0.2580755990222201  0.1947976122355257  1.0000
  H   H38       1.0  0.7089331060505231  0.7419188167578596  0.8052004758540788  1.0000
  H   H39       1.0  0.6979668484018545  0.0878285949949387  0.07237508068693901  1.0000
  H   H40       1.0  0.30203865959337867  0.9121712255663255  0.9276244476936455  1.0000
  H   H41       1.0  0.8017529486894547  0.7926769184263023  0.1815642875024892  1.0000
  H   H42       1.0  0.1982553277130492  0.20731929894750317  0.8184393732282872  1.0000
  H   H43       1.0  0.8908611006140106  0.6022844933421467  0.8567759839265179  1.0000
  H   H44       1.0  0.10913189693457781  0.3977234343908904  0.14322861993937855  1.0000
  H   H45       1.0  0.8473482321130632  0.41528627083991415  0.9760444178898665  1.0000
  H   H46       1.0  0.15264463467498504  0.5847180537056644  0.023953910217713325  1.0000
  H   H47       1.0  0.7782710171970422  0.4198479061570382  0.2003755353375353  1.0000
  H   H48       1.0  0.2217282746481928  0.5801537159979588  0.7996221498881013  1.0000
  C   C1        1.0  0.7379954748779269  0.4841630006222104  0.7416514095651081  1.0000
  C   C2        1.0  0.2620027198174881  0.515835018345328  0.2583469626416388  1.0000
  C   C3        1.0  0.934171161734497  0.3767096451575327  0.7225313461248175  1.0000
  C   C4        1.0  0.0658271637214582  0.6232919769974643  0.2774700074900593  1.0000
  C   C5        1.0  0.9492022759218344  0.480714750228465  0.6575651047994525  1.0000
  C   C6        1.0  0.0507954228125769  0.5192895743171206  0.3424379418132588  1.0000
  C   C7        1.0  0.7390120402270383  0.2840671917236719  0.8455155101154901  1.0000
  C   C8        1.0  0.26098787833974063  0.7159317280407294  0.15448377646250583  1.0000
  C   C9        1.0  0.7081560360545112  0.1979564163475587  0.7724007940098828  1.0000
  C   C10       1.0  0.2918448489015404  0.8020425034168426  0.22759894211660034  1.0000
  C   C11       1.0  0.5988642675559248  0.2741791445522637  0.7360739606589844  1.0000
  C   C12       1.0  0.40113703521448946  0.7258179736184118  0.26392492133145845  1.0000
  C   C13       1.0  0.5665665625980125  0.2543066649450409  0.5482030655062076  1.0000
  C   C14       1.0  0.4334314231902212  0.7456922548193603  0.451796969149882  1.0000
  C   C15       1.0  0.4854399103076191  0.1256341385621127  0.6923963288454402  1.0000
  C   C16       1.0  0.5145609746484325  0.8743647812022886  0.3076025836935017  1.0000
  C   C17       1.0  0.4581123949921775  0.10907839300655549  0.5957699079989  1.0000
  C   C18       1.0  0.5418865571853289  0.8909205267578458  0.40422975261813576  1.0000
  C   C19       1.0  0.8389863799773067  0.1499457451130013  0.6622747468525318  1.0000
  C   C20       1.0  0.16101471388592614  0.8500522738545372  0.33772497399970547  1.0000
  C   C21       1.0  0.8326708628128898  0.0688479042826557  0.4759743631575829  1.0000
  C   C22       1.0  0.167330779625253  0.9311519162786084  0.5240241906165579  1.0000
  C   C23       1.0  0.8275170469540569  0.9574777046164442  0.44454701502179006  1.0000
  C   C24       1.0  0.1724830805199034  0.0425203143510942  0.5554497855193077  1.0000
  C   C25       1.0  0.8373317500173769  0.938392521467982  0.6211815726703448  1.0000
  C   C26       1.0  0.16266699325294806  0.0616072990932821  0.37881480887075014  1.0000
  C   C27       1.0  0.666135973595047  0.09182452988174108  0.8573716179517348  1.0000
  C   C28       1.0  0.3338665044718212  0.9081716874920716  0.14262769831295694  1.0000
  C   C29       1.0  0.4375683485284013  0.1845246343148688  0.014654177709900344  1.0000
  C   C30       1.0  0.5624333720563754  0.815470682262081  0.9853446737320508  1.0000
  C   C31       1.0  0.3908059006580161  0.21669749509413092  0.1341576325385958  1.0000
  C   C32       1.0  0.6091975437981317  0.7832987222796817  0.8658380153368626  1.0000
  C   C33       1.0  0.6009640114757532  0.1317055094225736  0.07589847858303501  1.0000
  C   C34       1.0  0.3990392240732136  0.8682916087481019  0.9241021260919523  1.0000
  C   C35       1.0  0.7572225101723263  0.6048076253570045  0.3389246451139698  1.0000
  C   C36       1.0  0.24277719948727142  0.3951921952042596  0.6610779510884583  1.0000
  C   C37       1.0  0.7860680786757824  0.6058876807964282  0.20532098931454362  1.0000
  C   C38       1.0  0.2139352876337172  0.3941130405617059  0.7946793024183876  1.0000
  C   C39       1.0  0.8102272641321805  0.7099405281011286  0.13701675482943915  1.0000
  C   C40       1.0  0.1897794191595068  0.2900583916632726  0.8629856785880321  1.0000
  C   C41       1.0  0.8446605139577272  0.7102954420653731  0.012064187163936486  1.0000
  C   C42       1.0  0.1553410503337673  0.2897088824802125  0.9879381868801217  1.0000
  C   C43       1.0  0.85893018030405  0.826984667772237  0.9409635076576989  1.0000
  C   C44       1.0  0.14106869372681524  0.1730187559764857  0.05904162040435779  1.0000
  C   C45       1.0  0.8587760289597739  0.6026844471495707  0.9546693640139096  1.0000
  C   C46       1.0  0.14121856169963112  0.3973207781928778  0.04533317281509848  1.0000
  C   C47       1.0  0.8335271177496327  0.49910091501079273  0.021893573007737595  1.0000
  C   C48       1.0  0.1664678907241424  0.50090250873793  0.9781072860976819  1.0000
  C   C49       1.0  0.7958535175476058  0.5005421899925011  0.14687252101177256  1.0000
  C   C50       1.0  0.20414653177971334  0.49946033295935177  0.8531264526241529  1.0000
  N   N1        1.0  0.8262252736407446  0.5459873917596099  0.6694489593075729  1.0000
  N   N2        1.0  0.17377132794384662  0.4540133295985171  0.33055230352361054  1.0000
  N   N3        1.0  0.7999995461160054  0.3798768469298395  0.7752372146868821  1.0000
  N   N4        1.0  0.19999919715431955  0.6201229736314247  0.2247632847919547  1.0000
  N   N5        1.0  0.5548316246414018  0.2173163425394051  0.6610121851814981  1.0000
  N   N6        1.0  0.4451682939253772  0.7826825772249961  0.33898710139649063  1.0000
  N   N7        1.0  0.5098377548290786  0.1889295309777239  0.5063609236543343  1.0000
  N   N8        1.0  0.49015905566270124  0.8110702895835403  0.49363950031505516  1.0000
  N   N9        1.0  0.8363976827091693  0.0560241601328713  0.5890061454261327  1.0000
  N   N10       1.0  0.16360106056115603  0.9439756604283929  0.4109927068776073  1.0000
  N   N11       1.0  0.8306558708194416  0.8774626216161039  0.5355380012288151  1.0000
  N   N12       1.0  0.16934501413661  0.1225362981482974  0.4644584405474816  1.0000
  N   N13       1.0  0.5699393636169675  0.1311416105859777  0.9791607062874945  1.0000
  N   N14       1.0  0.43006483832126446  0.8688555075846978  0.020837877173349385  1.0000
  N   N15       1.0  0.493676761104453  0.1835751944206621  0.17123758627541  1.0000
  N   N16       1.0  0.5063252991480525  0.8164228245468763  0.828760936950232  1.0000
  O   O1        1.0  0.7210188411752653  0.516316043870475  0.4023760786089667  1.0000
  O   O2        1.0  0.27898376765215  0.48368377669078916  0.5976253954763067  1.0000
  O   O3        1.0  0.7778090276985027  0.6986301226821396  0.3758686024588585  1.0000
  O   O4        1.0  0.2221885402753685  0.3013705986759874  0.6241347570959094  1.0000
  O   O5        1.0  0.8175842316647107  0.9241968636949807  0.0032383340947247175  1.0000
  O   O6        1.0  0.1824138067374221  0.0758101632411865  0.9967742673522437  1.0000
  O   O7        1.0  0.9041510221056298  0.8188522736879237  0.8264166489482676  1.0000
  O   O8        1.0  0.09583962485005058  0.18115745563883934  0.17359202789441497  1.0000
