data_image0
_chemical_formula_structural       Cu16H40C32N8Cl16
_chemical_formula_sum              "Cu16 H40 C32 N8 Cl16"
_cell_length_a       6.807810667
_cell_length_b       13.173408667
_cell_length_c       15.365
_cell_angle_alpha    90.0
_cell_angle_beta     90.0
_cell_angle_gamma    90.0

_space_group_name_H-M_alt    "P 1"
_space_group_IT_number       1

loop_
  _space_group_symop_operation_xyz
  'x, y, z'

loop_
  _atom_site_type_symbol
  _atom_site_label
  _atom_site_symmetry_multiplicity
  _atom_site_fract_x
  _atom_site_fract_y
  _atom_site_fract_z
  _atom_site_occupancy
  Cu  Cu1       1.0  0.8238698568965364  0.7965903332436283  0.9114741295151347  1.0000
  Cu  Cu2       1.0  0.32386623363184713  0.796598683398301  0.588519362186787  1.0000
  Cu  Cu3       1.0  0.8238757325005963  0.7033972933073969  0.4114871461112912  1.0000
  Cu  Cu4       1.0  0.3238779848399673  0.7033972933073969  0.0885122030588974  1.0000
  Cu  Cu5       1.0  0.1761241695237032  0.2034029360003302  0.0885200130165984  1.0000
  Cu  Cu6       1.0  0.6761307305904225  0.2033998995804467  0.41148454279205987  1.0000
  Cu  Cu7       1.0  0.17613004512776342  0.2965990123564453  0.588521314676214  1.0000
  Cu  Cu8       1.0  0.676126323887381  0.2965982532514744  0.9114819394728286  1.0000
  Cu  Cu9       1.0  0.7673010099004287  0.04721329275679408  0.0518431500162677  1.0000
  Cu  Cu10      1.0  0.267298855536751  0.0472224020164447  0.4481548974943053  1.0000
  Cu  Cu11      1.0  0.7672995409994102  0.45278258276020716  0.5518392450374208  1.0000
  Cu  Cu12      1.0  0.2672885732296493  0.45278258276020716  0.9481620566221949  1.0000
  Cu  Cu13      1.0  0.23269154761879926  0.952789085746808  0.9481646599414262  1.0000
  Cu  Cu14      1.0  0.7327025153885671  0.9527776991722448  0.5518359908883852  1.0000
  Cu  Cu15      1.0  0.2327003610248894  0.5472220730583075  0.4481594533029636  1.0000
  Cu  Cu16      1.0  0.73269370198247  0.5472106864837443  0.051839895867232096  1.0000
  H   H1        1.0  0.0231542867024928  0.5797178386434396  0.6711252847380393  1.0000
  H   H2        1.0  0.523131469748904  0.5797178386434396  0.8288682069638753  1.0000
  H   H3        1.0  0.023135190989293602  0.920272065222491  0.1711213797591924  1.0000
  H   H4        1.0  0.5231373453529713  0.9202857291119669  0.3288695086234981  1.0000
  H   H5        1.0  0.9768794000451566  0.4202731532856063  0.3288688577936867  1.0000
  H   H6        1.0  0.4768537432652452  0.42027391239057715  0.1711207289293881  1.0000
  H   H7        1.0  0.9768514909258743  0.07972955417614  0.8288838268792702  1.0000
  H   H8        1.0  0.4768493365621965  0.0797136129717515  0.6711220305890038  1.0000
  H   H9        1.0  0.9067937259072425  0.6738210454395244  0.6071467621217082  1.0000
  H   H10       1.0  0.4067827581374744  0.6738142134947864  0.8928506345590604  1.0000
  H   H11       1.0  0.9068128216204416  0.8261863178407367  0.1071675886755585  1.0000
  H   H12       1.0  0.4068238873659028  0.8262045363600379  0.3928272046859718  1.0000
  H   H13       1.0  0.09318561150284672  0.32619423784858265  0.3928499837292563  1.0000
  H   H14       1.0  0.5931936414705847  0.3261767784342595  0.1071682395053699  1.0000
  H   H15       1.0  0.0932061761170573  0.17382365171257413  0.8928408721119396  1.0000
  H   H16       1.0  0.5932230194908855  0.1738198561877198  0.6071558737390177  1.0000
  H   H17       1.0  0.5749587042679707  0.5885652070767904  0.630267491051093  1.0000
  H   H18       1.0  0.0749550810032815  0.5885621706569069  0.8697273023104444  1.0000
  H   H19       1.0  0.5749998334963992  0.9114360833637107  0.1302739993491713  1.0000
  H   H20       1.0  0.0750079614398302  0.9114467108332959  0.3697233973315974  1.0000
  H   H21       1.0  0.4250103508350094  0.4114394487417314  0.3697312072892913  1.0000
  H   H22       1.0  0.9250051606936083  0.41142806216716815  0.1302700943703243  1.0000
  H   H23       1.0  0.4250030063299378  0.0885609814051023  0.86972860397006  1.0000
  H   H24       1.0  0.9250506966250783  0.0885632587200149  0.6302668402212817  1.0000
  H   H25       1.0  0.8382885892616727  0.4220995598450727  0.7150413276928091  1.0000
  H   H26       1.0  0.33822620995637465  0.42209652342518916  0.7849619264562335  1.0000
  H   H27       1.0  0.8382342399241125  0.0778864473073142  0.2150289619264569  1.0000
  H   H28       1.0  0.3382041764411454  0.07790238851169559  0.2849658314350805  1.0000
  H   H29       1.0  0.16178622671440485  0.5778914320839661  0.284965180605269  1.0000
  H   H30       1.0  0.6617634097608234  0.5778846001392353  0.2150367718841508  1.0000
  H   H31       1.0  0.1617480352880065  0.9221106174614988  0.7849703872437388  1.0000
  H   H32       1.0  0.6617531274537143  0.9220999899919065  0.7150400260331934  1.0000
  H   H33       1.0  0.5748837903162  0.4110409186321178  0.6850315652456871  1.0000
  H   H34       1.0  0.0748875115565824  0.4110447141569722  0.8149736413927755  1.0000
  H   H35       1.0  0.5749542975649291  0.0889405338904439  0.1850335177351141  1.0000
  H   H36       1.0  0.0749315785870408  0.0889488840451236  0.3149658314350816  1.0000
  H   H37       1.0  0.4250779202817086  0.5889455186671029  0.3149671330946973  1.0000
  H   H38       1.0  0.9250874191504581  0.5889386867223649  0.1850309144158828  1.0000
  H   H39       1.0  0.425073513578667  0.911051217143573  0.8149703872437328  1.0000
  H   H40       1.0  0.9251079837646757  0.9110459034087768  0.6850302635860714  1.0000
  C   C1        1.0  0.858992749070822  0.6851696647512782  0.7402329970712671  1.0000
  C   C2        1.0  0.3589905947071515  0.6851529644419259  0.7597683045883485  1.0000
  C   C3        1.0  0.8590206581901116  0.8148460486836554  0.2402134721770253  1.0000
  C   C4        1.0  0.3590155660244038  0.8148543988383352  0.2597819720143164  1.0000
  C   C5        1.0  0.1409851194382483  0.3148562460064142  0.2597735112268111  1.0000
  C   C6        1.0  0.6409902116039561  0.314831954647353  0.2402212821347192  1.0000
  C   C7        1.0  0.1409939328443457  0.185166198184568  0.7597774162056652  1.0000
  C   C8        1.0  0.6410137140201968  0.1851616435547427  0.7402264887731889  1.0000
  C   C9        1.0  0.8859132979762734  0.6231249790772182  0.6634168564920273  1.0000
  C   C10       1.0  0.385903799107517  0.6231287746020726  0.8365759843800831  1.0000
  C   C11       1.0  0.8859265180854055  0.8768679612086032  0.1634337780670378  1.0000
  C   C12       1.0  0.3859184881176745  0.8768914934626935  0.3365714285714319  1.0000
  C   C13       1.0  0.11409394855310503  0.3768728447965657  0.3365811910185456  1.0000
  C   C14       1.0  0.6140740694015534  0.3768690492717113  0.1634253172795326  1.0000
  C   C15       1.0  0.11408513514701471  0.12312986266518068  0.8365811910185457  1.0000
  C   C16       1.0  0.6140931651147525  0.1231207534055301  0.6634214123006856  1.0000
  C   C17       1.0  0.7125345044499627  0.5524075191130606  0.6495431174747778  1.0000
  C   C18       1.0  0.2125352878883149  0.5524082782180315  0.8504523267165638  1.0000
  C   C19       1.0  0.712565351371282  0.9476013623771351  0.1495626423690197  1.0000
  C   C20       1.0  0.2125661348096344  0.9475990850622296  0.3504315001627063  1.0000
  C   C21       1.0  0.2874448329601266  0.4475849910259199  0.3504412626098272  1.0000
  C   C22       1.0  0.7874396428187254  0.4475857501308909  0.1495528799218988  1.0000
  C   C23       1.0  0.287430143949976  0.052419234645761  0.8504542792059906  1.0000
  C   C24       1.0  0.7874719586410635  0.052407088966234  0.649549625772863  1.0000
  C   C25       1.0  0.712264226663166  0.4533283792341365  0.6803560039049756  1.0000
  C   C26       1.0  0.2122297564771571  0.4533511523832559  0.819631630328672  1.0000
  C   C27       1.0  0.712264226663166  0.0466454822387234  0.1803638138626766  1.0000
  C   C28       1.0  0.2122503210913678  0.046647000448665196  0.319641392775786  1.0000
  C   C29       1.0  0.287757708876363  0.5466360440209357  0.3196342336479034  1.0000
  C   C30       1.0  0.7877510498339505  0.5466413577557319  0.1803657663520966  1.0000
  C   C31       1.0  0.2877474265692612  0.9533690419444127  0.8196296778392451  1.0000
  C   C32       1.0  0.7877569254380108  0.9533455096903225  0.6803638138626766  1.0000
  N   N1        1.0  0.8368608174749073  0.732372330038487  0.803749430523915  1.0000
  N   N2        1.0  0.3368674765173196  0.732379161983225  0.6962557761145476  1.0000
  N   N3        1.0  0.8368887265941964  0.7676441425014173  0.3037312072892959  1.0000
  N   N4        1.0  0.33689979233965783  0.7676471789213011  0.1962674910510884  1.0000
  N   N5        1.0  0.163121457737212  0.2676262529402607  0.19627009437031964  1.0000
  N   N6        1.0  0.6631089230907393  0.2676346030949404  0.3037448747152638  1.0000
  N   N7        1.0  0.1631141132321403  0.2323711407866824  0.6962577286039675  1.0000
  N   N8        1.0  0.6631236121008897  0.2323620315270389  0.8037448747152638  1.0000
  Cl  Cl1       1.0  0.7566147550148942  0.9664317202799779  0.9236127562642338  1.0000
  Cl  Cl2       1.0  0.2566214140573138  0.9664362749098032  0.5763826879271079  1.0000
  Cl  Cl3       1.0  0.7566162239159127  0.5335650155306908  0.4236134070940452  1.0000
  Cl  Cl4       1.0  0.2566170073542652  0.5335688110555452  0.0763852912463392  1.0000
  Cl  Cl5       1.0  0.2433924915144843  0.0335676218037406  0.0763904978848018  1.0000
  Cl  Cl6       1.0  0.743391708076125  0.0335645853838571  0.4236160104132765  1.0000
  Cl  Cl7       1.0  0.2433763336033152  0.4664373629729112  0.5763878945655705  1.0000
  Cl  Cl8       1.0  0.7433799568680044  0.4664335674480569  0.9236134070940452  1.0000
  Cl  Cl9       1.0  0.15683456139218782  0.7889507008186385  0.9768109339407758  1.0000
  Cl  Cl10      1.0  0.6568337779538284  0.7889514599236094  0.5231903677188399  1.0000
  Cl  Cl11      1.0  0.15684337479827806  0.7110528669367681  0.4768057273023132  1.0000
  Cl  Cl12      1.0  0.6568396535578886  0.7110414803622048  0.0231910185486512  1.0000
  Cl  Cl13      1.0  0.8431638717311005  0.21104712305513826  0.023188415229419897  1.0000
  Cl  Cl14      1.0  0.3431646551694527  0.2110531958949053  0.4768109339407757  1.0000
  Cl  Cl15      1.0  0.843168278434142  0.2889502706718119  0.5231916693784555  1.0000
  Cl  Cl16      1.0  0.3431646551694527  0.2889533070916883  0.9768102831109644  1.0000
