data_image0
_chemical_formula_structural       HgH16C26S2N10O2
_chemical_formula_sum              "Hg1 H16 C26 S2 N10 O2"
_cell_length_a       5.66034376104619
_cell_length_b       7.250467722418332
_cell_length_c       16.13275336768174
_cell_angle_alpha    80.23001324493204
_cell_angle_beta     88.47432850050691
_cell_angle_gamma    77.91388742860235

_space_group_name_H-M_alt    "P 1"
_space_group_IT_number       1

loop_
  _space_group_symop_operation_xyz
  'x, y, z'

loop_
  _atom_site_type_symbol
  _atom_site_label
  _atom_site_symmetry_multiplicity
  _atom_site_fract_x
  _atom_site_fract_y
  _atom_site_fract_z
  _atom_site_occupancy
  Hg  Hg1       1.0  5.348990725907052e-06  9.15589673410254e-06  0.9999974849135568  1.0000
  H   H1        1.0  0.5078991855181274  0.7171855306296493  0.9554755462826774  1.0000
  H   H2        1.0  0.4921211719055094  0.28281351494710794  0.04451989960026741  1.0000
  H   H3        1.0  0.7109960706295696  0.5581967548184039  0.8400316072131844  1.0000
  H   H4        1.0  0.28901401724592557  0.4418009522467656  0.1599639818730267  1.0000
  H   H5        1.0  0.48420966260546555  0.5851398073908882  0.7053723069495347  1.0000
  H   H6        1.0  0.5157882950233273  0.41485654492830526  0.2946259145626087  1.0000
  H   H7        1.0  0.8787450113432629  0.936662566057599  0.8148495426221486  1.0000
  H   H8        1.0  0.12126828255440361  0.06333499178803949  0.1851553418150758  1.0000
  H   H9        1.0  0.07193045041616841  0.6522248096447639  0.23563895083701417  1.0000
  H   H10       1.0  0.9280404458210827  0.3477874405269147  0.7643613374793929  1.0000
  H   H11       1.0  0.6608577694612451  0.8149475566738572  0.2753936323303421  1.0000
  H   H12       1.0  0.3391243416328465  0.18506883853444828  0.7246094044318028  1.0000
  H   H13       1.0  0.596569241416319  0.8869601774205403  0.4224858229837452  1.0000
  H   H14       1.0  0.4034139310876271  0.11304477970752201  0.5775186593091135  1.0000
  H   H15       1.0  0.3418337619941242  0.6084023371204309  0.4761524025386236  1.0000
  H   H16       1.0  0.6581390254755137  0.3915813689796225  0.5238480897170703  1.0000
  C   C1        1.0  0.41389254438244205  0.727869279544265  0.896349863638882  1.0000
  C   C2        1.0  0.5861314879620922  0.27212822561737937  0.10365187685930978  1.0000
  C   C3        1.0  0.525905103431434  0.6394647843525901  0.8313820481066472  1.0000
  C   C4        1.0  0.474102133621571  0.3605300841541562  0.1686143797529027  1.0000
  C   C5        1.0  0.399771649658881  0.6555103232881831  0.756747308448844  1.0000
  C   C6        1.0  0.6002346495966578  0.3444873276097269  0.24325512088223183  1.0000
  C   C7        1.0  0.16227280052746818  0.7628230021601254  0.7499147421762586  1.0000
  C   C8        1.0  0.8377332090901888  0.23717610312930762  0.2500857230918498  1.0000
  C   C9        1.0  0.06152236470180845  0.8492985470352251  0.818006648417601  1.0000
  C   C10       1.0  0.9384853039459602  0.15070050339316776  0.18199691302640988  1.0000
  C   C11       1.0  0.01812076032662459  0.7929826553805339  0.6741030443006295  1.0000
  C   C12       1.0  0.9818739223961548  0.20701226537480008  0.3258977755209358  1.0000
  C   C13       1.0  0.9314749269384853  0.7886295332772659  0.5457069129270309  1.0000
  C   C14       1.0  0.06851473221775714  0.21136397917728533  0.4542958914274138  1.0000
  C   C15       1.0  0.03712209632810473  0.6791027341366133  0.2999005648247035  1.0000
  C   C16       1.0  0.9628615226669626  0.32090082389638047  0.7001015373322304  1.0000
  C   C17       1.0  0.8075268840576088  0.7717881691240364  0.3216014691176525  1.0000
  C   C18       1.0  0.19244625214652442  0.22822267448848518  0.6783958116396818  1.0000
  C   C19       1.0  0.7702869113729565  0.8096629257515104  0.4030888408056015  1.0000
  C   C20       1.0  0.22969904473065134  0.1903448462364992  0.5969166645134365  1.0000
  C   C21       1.0  0.9649195531885657  0.7505478777336735  0.46042353101267247  1.0000
  C   C22       1.0  0.0350588778754783  0.249448627785874  0.5395760067554961  1.0000
  C   C23       1.0  0.18792333594442576  0.6558653554407741  0.4327704254044562  1.0000
  C   C24       1.0  0.8120620805894989  0.3441239110253774  0.567232706210234  1.0000
  C   C25       1.0  0.5747160201735401  0.7955692254565818  0.09004951019791459  1.0000
  C   C26       1.0  0.4253369169626496  0.2044338202913565  0.9099454992519256  1.0000
  S   S1        1.0  0.8513426870386882  0.6858181124031121  0.07286220137071808  1.0000
  S   S2        1.0  0.14869140161118116  0.31418935536123627  0.927134431321349  1.0000
  N   N1        1.0  0.18569747184661622  0.8308973817326261  0.8892088675859567  1.0000
  N   N2        1.0  0.8143177947876554  0.16910023184486528  0.1107904246293927  1.0000
  N   N3        1.0  0.7916022544455219  0.8809898538011324  0.6617201717649763  1.0000
  N   N4        1.0  0.20839623764381096  0.11900357393604107  0.3382832190727925  1.0000
  N   N5        1.0  0.7357360925512071  0.8780644197090268  0.5790465558787403  1.0000
  N   N6        1.0  0.26426381374556485  0.1219304233576182  0.42095672587227984  1.0000
  N   N7        1.0  0.2245728986740048  0.6206510355481641  0.3542647232452154  1.0000
  N   N8        1.0  0.7754006432691443  0.3793441090675457  0.6457330754567892  1.0000
  N   N9        1.0  0.37369607326883175  0.8740857838057678  0.1012582774658384  1.0000
  N   N10       1.0  0.6263476608382065  0.12592591545421067  0.8987355250967042  1.0000
  O   O1        1.0  0.11907133255076734  0.7301082791370631  0.6028419170057759  1.0000
  O   O2        1.0  0.8809254200502892  0.2698923178643041  0.3971597213150773  1.0000
