data_image0
_chemical_formula_structural       Fe3Ag6H24C48N24
_chemical_formula_sum              "Fe3 Ag6 H24 C48 N24"
_cell_length_a       8.58614676414432
_cell_length_b       15.368895340698295
_cell_length_c       15.4537
_cell_angle_alpha    116.39795837159896
_cell_angle_beta     102.01566207593768
_cell_angle_gamma    100.05992881591571

_space_group_name_H-M_alt    "P 1"
_space_group_IT_number       1

loop_
  _space_group_symop_operation_xyz
  'x, y, z'

loop_
  _atom_site_type_symbol
  _atom_site_label
  _atom_site_symmetry_multiplicity
  _atom_site_fract_x
  _atom_site_fract_y
  _atom_site_fract_z
  _atom_site_occupancy
  Fe  Fe1       1.0  0.4999969610994556  0.5000011527967912  7.082594989788972e-07  1.0000
  Fe  Fe2       1.0  0.9999975696665899  0.499998864517849  0.5000015787201235  1.0000
  Fe  Fe3       1.0  0.500003324876154  7.627596473999997e-07  0.4999999453239711  1.0000
  Ag  Ag1       1.0  0.997883197163496  0.3085019530483279  0.6903262630869876  1.0000
  Ag  Ag2       1.0  0.696409782211326  0.393028688855665  0.6965122170983733  1.0000
  Ag  Ag3       1.0  0.3102410406726436  0.3082281223350377  0.617762333384711  1.0000
  Ag  Ag4       1.0  0.002125535258691884  0.6914942504680821  0.30967093287361536  1.0000
  Ag  Ag5       1.0  0.30359328464214747  0.6069728539782773  0.30349639081714486  1.0000
  Ag  Ag6       1.0  0.6897683613460971  0.691774183258552  0.3822415207056623  1.0000
  H   H1        1.0  0.6368016297886925  0.7165493793544397  0.15916644639255398  1.0000
  H   H2        1.0  0.9164371898531842  0.4412572185791034  0.283378002993949  1.0000
  H   H3        1.0  0.48240356690429553  0.8417617147355185  0.5584555345539857  1.0000
  H   H4        1.0  0.5241608511690076  0.4412884917246273  0.15784088217964154  1.0000
  H   H5        1.0  0.3591613383514841  0.8416564539042213  0.2832366992872651  1.0000
  H   H6        1.0  0.0803161078040802  0.7165440400369076  0.5574561848327378  1.0000
  H   H7        1.0  0.3631946739209653  0.28345292623914276  0.8408333043017961  1.0000
  H   H8        1.0  0.08355749512254823  0.5587466125337812  0.7166280588459986  1.0000
  H   H9        1.0  0.5176149331788693  0.15824211637735885  0.4415448696412981  1.0000
  H   H10       1.0  0.47583630849774744  0.5587107628303655  0.8421589126499499  1.0000
  H   H11       1.0  0.6408416819118514  0.15834737720865624  0.7167612673366365  1.0000
  H   H12       1.0  0.91968948033054  0.2834506379602074  0.4425419141969017  1.0000
  H   H13       1.0  0.7039376464882637  0.8842992947323011  0.16557126079865017  1.0000
  H   H14       1.0  0.8174249821285856  0.2797878661350595  0.11600255894810373  1.0000
  H   H15       1.0  0.5409277536461233  0.8355551394874536  0.7202174104455638  1.0000
  H   H16       1.0  0.4621839243972162  0.27987710901376767  0.16376730408653373  1.0000
  H   H17       1.0  0.2945333540493494  0.8354247075878121  0.11524705402268152  1.0000
  H   H18       1.0  0.18055639584439834  0.8843679431005356  0.7188470537632341  1.0000
  H   H19       1.0  0.29605513154540825  0.11570072258234627  0.8344225406446881  1.0000
  H   H20       1.0  0.18256698653812717  0.7202129139392281  0.884006369311166  1.0000
  H   H21       1.0  0.4590859834155483  0.1644486916254237  0.27978308992789647  1.0000
  H   H22       1.0  0.5378101375721087  0.720118331742995  0.8362272106539024  1.0000
  H   H23       1.0  0.7054633310487191  0.1645783607654181  0.8847498425783585  1.0000
  H   H24       1.0  0.8194440478803244  0.11562597213693239  0.2811539955378919  1.0000
  C   C1        1.0  0.6266619210548683  0.8158957723443476  0.000894684951312312  1.0000
  C   C2        1.0  0.8111100312423504  0.18412636500006124  0.18498807248477792  1.0000
  C   C3        1.0  0.6283159967492508  3.73752227034e-05  0.8162487032530736  1.0000
  C   C4        1.0  0.37333090356894166  0.18410195669135726  0.9991013455587422  1.0000
  C   C5        1.0  0.3716877862909129  0.9999679814094689  0.18375067322066496  1.0000
  C   C6        1.0  0.18888274679132172  0.815873652314579  0.8150109057123489  1.0000
  C   C7        1.0  0.6172422299226812  0.7206263296679296  0.0894411691799206  1.0000
  C   C8        1.0  0.8946461759912837  0.3676936271788377  0.2797112444901161  1.0000
  C   C9        1.0  0.5323482873145693  0.9114710816392273  0.6322418994044767  1.0000
  C   C10       1.0  0.47266716942062464  0.3677477831137778  0.08794559248691773  1.0000
  C   C11       1.0  0.37900303811782987  0.9113429380185208  0.2791702402597238  1.0000
  C   C12       1.0  0.10374403649922206  0.7206469241784033  0.6312632115854556  1.0000
  C   C13       1.0  0.3827532644200177  0.27937673868530055  0.9105555896921018  1.0000
  C   C14       1.0  0.10534593244584305  0.6323002880586301  0.7202920761790425  1.0000
  C   C15       1.0  0.4676631148265002  0.0885304611947149  0.36775667201232665  1.0000
  C   C16       1.0  0.5273299902461235  0.6322514714412151  0.9120509668715543  1.0000
  C   C17       1.0  0.6210012194910065  0.0886586048154143  0.7208294460656789  1.0000
  C   C18       1.0  0.8962591235345203  0.2793500420976542  0.3687433835212488  1.0000
  C   C19       1.0  0.6543434773382373  0.813631138952246  0.09249379621639525  1.0000
  C   C20       1.0  0.8394738981977811  0.27765824120049126  0.18684835058611785  1.0000
  C   C21       1.0  0.5650689014864839  0.9085153880069041  0.7224306712350597  1.0000
  C   C22       1.0  0.43814159404033154  0.2777223130108482  0.0907699985751762  1.0000
  C   C23       1.0  0.34335582696693473  0.9084169920124336  0.1860384343493421  1.0000
  C   C24       1.0  0.15933019757987676  0.8136700396942443  0.7212196906079811  1.0000
  C   C25       1.0  0.34565239839286477  0.18637269216063146  0.9075026969392113  1.0000
  C   C26       1.0  0.16051501936163962  0.7223364367966241  0.8131504086142486  1.0000
  C   C27       1.0  0.43494164469749563  0.09148920586562777  0.2775691502349461  1.0000
  C   C28       1.0  0.5618548028495952  0.7222754160248568  0.9092257980276912  1.0000
  C   C29       1.0  0.6566483840517706  0.0915868391004508  0.8139635525689144  1.0000
  C   C30       1.0  0.8406701063744395  0.1863307403800434  0.27878373081214397  1.0000
  C   C31       1.0  0.6627158941101214  0.9132383957414447  0.0008075196791637321  1.0000
  C   C32       1.0  0.7497829190229339  0.086732636706607  0.08755141969962922  1.0000
  C   C33       1.0  0.6631390059131732  9.915875409699997e-06  0.913832904141735  1.0000
  C   C34       1.0  0.33727416761453816  0.08675857053461297  0.9991872069008352  1.0000
  C   C35       1.0  0.3368584419617165  0.9999946779971154  0.08616540230914191  1.0000
  C   C36       1.0  0.2502074774999983  0.9132673806080331  0.91244857722792  1.0000
  C   C37       1.0  0.17922880816107076  0.4158664754480412  0.8223476968694785  1.0000
  C   C38       1.0  0.7727865592366285  0.4143295147592311  0.5895358924061612  1.0000
  C   C39       1.0  0.3580427717750894  0.17587635665755388  0.5913120854012206  1.0000
  C   C40       1.0  0.6414380148341936  0.41414874072287927  0.8247659678055186  1.0000
  C   C41       1.0  0.8176973736385592  0.1760319596255471  0.5846467315118958  1.0000
  C   C42       1.0  0.236513170253005  0.41571544903792557  0.5932906622469859  1.0000
  C   C43       1.0  0.8207703050378754  0.5841343046262536  0.17765299844474208  1.0000
  C   C44       1.0  0.22721169800522037  0.5856743163536464  0.4104738180919369  1.0000
  C   C45       1.0  0.6419685837758493  0.8241274744553309  0.4086907278911129  1.0000
  C   C46       1.0  0.35855876344413673  0.5858497510724731  0.17523668111739005  1.0000
  C   C47       1.0  0.1823157404166977  0.8239634811312084  0.4153532223638479  1.0000
  C   C48       1.0  0.7634887524352295  0.5842838055170745  0.40671097768710507  1.0000
  N   N1        1.0  0.5542640533522699  0.6304399172794672  0.0006799031529283177  1.0000
  N   N2        1.0  0.9234304973070308  0.3694777219932916  0.37011623077422234  1.0000
  N   N3        1.0  0.5588157164780725  6.94111278818e-05  0.6304679653276537  1.0000
  N   N4        1.0  0.44573115278227965  0.3695578117562306  0.9993176970035977  1.0000
  N   N5        1.0  0.4411905412531  0.999931368946406  0.36952837960685514  1.0000
  N   N6        1.0  0.07656751831681426  0.6305184815231186  0.6298913733213  1.0000
  N   N7        1.0  0.2965463330318627  0.4541570097300394  0.8958363416734375  1.0000
  N   N8        1.0  0.8477948763511804  0.4446507362488318  0.5480766187376745  1.0000
  N   N9        1.0  0.4017800271184839  0.1032578244599875  0.5564092180782225  1.0000
  N   N10       1.0  0.5968484605874026  0.4445279319456574  0.8965734314213591  1.0000
  N   N11       1.0  0.7013310477664805  0.10342181778410257  0.5469063058663082  1.0000
  N   N12       1.0  0.15752145139762067  0.4540509861391016  0.5581246399779973  1.0000
  N   N13       1.0  0.7034476357571862  0.545843007584601  0.10416277425270694  1.0000
  N   N14       1.0  0.15220304609239582  0.5553500438254559  0.451929115601324  1.0000
  N   N15       1.0  0.5982301842672157  0.8967437183739475  0.4435911568922394  1.0000
  N   N16       1.0  0.40314784312224833  0.5554743736479253  0.10343084893255397  1.0000
  N   N17       1.0  0.2986780660441185  0.8965751484919551  0.4530925656605549  1.0000
  N   N18       1.0  0.8424741361253467  0.5459475056562509  0.4418778712158939  1.0000
  N   N19       1.0  0.6313098491688933  0.9091187308877196  0.9097913329593796  1.0000
  N   N20       1.0  0.722427097245415  1.06786350571e-05  0.09179805595415051  1.0000
  N   N21       1.0  0.7226588973139983  0.0909339168425731  0.0007116731081567287  1.0000
  N   N22       1.0  0.2775617271337297  0.9999885759199358  0.9081981863954668  1.0000
  N   N23       1.0  0.36868450100855915  0.09088204918657539  0.09020428177922211  1.0000
  N   N24       1.0  0.2773346434965021  0.9090676259913691  0.9992880678445888  1.0000
