data_image0
_chemical_formula_structural       Al2H18C42Cl6O12
_chemical_formula_sum              "Al2 H18 C42 Cl6 O12"
_cell_length_a       4.026635815117181
_cell_length_b       24.6526482944191
_cell_length_c       24.652676866121546
_cell_angle_alpha    120.00042677502151
_cell_angle_beta     89.9995300043177
_cell_angle_gamma    90.00083881059027

_space_group_name_H-M_alt    "P 1"
_space_group_IT_number       1

loop_
  _space_group_symop_operation_xyz
  'x, y, z'

loop_
  _atom_site_type_symbol
  _atom_site_label
  _atom_site_symmetry_multiplicity
  _atom_site_fract_x
  _atom_site_fract_y
  _atom_site_fract_z
  _atom_site_occupancy
  Al  Al1       1.0  0.9978525321406551  0.4999973410109035  0.5000003434413287  1.0000
  Al  Al2       1.0  0.9986572315105274  0.16666093797143594  0.8333319183832444  1.0000
  H   H1        1.0  0.24362804520241352  0.48985779784548084  0.6623798023896369  1.0000
  H   H2        1.0  0.24356965026616714  0.17653137188430887  0.6707761762493476  1.0000
  H   H3        1.0  0.7753614577592105  0.3286059233932618  0.821244290890668  1.0000
  H   H4        1.0  0.7514173174729849  0.38717257837435426  0.7637737793444899  1.0000
  H   H5        1.0  0.7745074640808769  0.33779431429553597  0.5117265276948544  1.0000
  H   H6        1.0  0.7508287208284443  0.27913175895656644  0.5691119736558647  1.0000
  H   H7        1.0  0.2436445038582775  0.67251283079937  0.5101382958544322  1.0000
  H   H8        1.0  0.24355900707885073  0.9942399139720877  0.8234688328522071  1.0000
  H   H9        1.0  0.7753812041887755  0.9926298059043644  0.6713930653217235  1.0000
  H   H10       1.0  0.7514395048536001  0.8765900830012467  0.6128273057513384  1.0000
  H   H11       1.0  0.7744786191324804  0.6739269425924163  0.6622091949714175  1.0000
  H   H12       1.0  0.7508048854021895  0.7899743140517542  0.7208735318846922  1.0000
  H   H13       1.0  0.24365181736529706  0.33761895980611456  0.32747968697135127  1.0000
  H   H14       1.0  0.24355978030884978  0.32922226680489075  0.005752056761615275  1.0000
  H   H15       1.0  0.7754017085405635  0.1787657220775785  0.007369753171495631  1.0000
  H   H16       1.0  0.751460838986887  0.23624241824172285  0.12340880897469483  1.0000
  H   H17       1.0  0.7744562798489554  0.4882818138340498  0.3260730095699814  1.0000
  H   H18       1.0  0.7507742724026515  0.4309034831670643  0.2100255888571852  1.0000
  C   C1        1.0  0.4991237876730921  0.4524962207689426  0.4039488287699982  1.0000
  C   C2        1.0  0.4991103894554598  0.4514490066891382  0.5475047280600265  1.0000
  C   C3        1.0  0.4991091410019025  0.5960483902851976  0.5485491365222401  1.0000
  C   C4        1.0  0.4998445416748539  0.21499499023079927  0.7856075207480513  1.0000
  C   C5        1.0  0.4998408217730629  0.07060420835234281  0.7850002864953751  1.0000
  C   C6        1.0  0.4998535082199496  0.21438945441352794  0.9293910452672947  1.0000
  C   C7        1.0  0.5044028103462779  0.4170658139753343  0.5828151348906873  1.0000
  C   C8        1.0  0.5047417679013506  0.2493445606490995  0.7502569210112142  1.0000
  C   C9        1.0  0.360163038270862  0.44397071388210196  0.6422201402162955  1.0000
  C   C10       1.0  0.36955085275317867  0.41255974444878507  0.6760381019199214  1.0000
  C   C11       1.0  0.3601250202899067  0.22241029468052886  0.6908777257684307  1.0000
  C   C12       1.0  0.3694178112864607  0.25376337187924486  0.6570065314959734  1.0000
  C   C13       1.0  0.6535950090738609  0.30839235749346733  0.775767063774751  1.0000
  C   C14       1.0  0.6409787073085624  0.3408448048388592  0.7432327392257532  1.0000
  C   C15       1.0  0.6530659218757718  0.35798842913590073  0.5572375470969605  1.0000
  C   C16       1.0  0.6404899765719989  0.3254717231691372  0.5897006199714951  1.0000
  C   C17       1.0  0.4996077825954258  0.35133209596661896  0.6498840551719739  1.0000
  C   C18       1.0  0.49973208251145  0.31496738541829933  0.683082272553449  1.0000
  C   C19       1.0  0.5044010988118117  0.6657413987356193  0.5829332309753286  1.0000
  C   C20       1.0  0.5047260931290084  0.0009070458714219568  0.7506560531441409  1.0000
  C   C21       1.0  0.3601760407989191  0.6982450501969237  0.556032980852109  1.0000
  C   C22       1.0  0.3695655906082108  0.7634688639613358  0.5874387532104067  1.0000
  C   C23       1.0  0.36012279669341035  0.9684581641165124  0.7775866103254147  1.0000
  C   C24       1.0  0.36939150131818366  0.9032406566361074  0.7462386425534078  1.0000
  C   C25       1.0  0.6536030394132339  0.9673622218233646  0.6916045897083196  1.0000
  C   C26       1.0  0.6409726061323723  0.9023865795415347  0.6591612717094011  1.0000
  C   C27       1.0  0.6530537633636156  0.6992467333888469  0.6420174058415427  1.0000
  C   C28       1.0  0.6404621473975141  0.7642212903184955  0.674529929209271  1.0000
  C   C29       1.0  0.49960720189822194  0.7985450967050767  0.6486709013631966  1.0000
  C   C30       1.0  0.4997409548324683  0.8681051983951632  0.6850303038096757  1.0000
  C   C31       1.0  0.504383901192938  0.4171855498127853  0.3342543884767011  1.0000
  C   C32       1.0  0.5047408253904351  0.24974747264685956  0.999089259680197  1.0000
  C   C33       1.0  0.36017985368094674  0.35778556804630307  0.3017503334513236  1.0000
  C   C34       1.0  0.36955502278409114  0.32396706138992937  0.23652417923665336  1.0000
  C   C35       1.0  0.36012955805514923  0.3091223557055471  0.03153422163384082  1.0000
  C   C36       1.0  0.3693977462439335  0.3429963078047819  0.09675443841138792  1.0000
  C   C37       1.0  0.6536239862750153  0.22423963448832038  0.0326333763365199  1.0000
  C   C38       1.0  0.640995431750625  0.25678023138165423  0.09761629193356922  1.0000
  C   C39       1.0  0.6530483638250715  0.4427732343198584  0.3007553627113708  1.0000
  C   C40       1.0  0.640437489765567  0.4103083171651321  0.23577462285982886  1.0000
  C   C41       1.0  0.4996010273994713  0.35012642993982007  0.20145071396768802  1.0000
  C   C42       1.0  0.49974281187781605  0.3169250006427262  0.13188939740300043  1.0000
  Cl  Cl1       1.0  0.20880121041744815  0.4527796571429193  0.751538473857103  1.0000
  Cl  Cl2       1.0  0.20831564820419154  0.21351917261731757  0.5815333448621374  1.0000
  Cl  Cl3       1.0  0.20882345878557373  0.7987503340432909  0.5472197680962908  1.0000
  Cl  Cl4       1.0  0.20830666564496172  0.8680104550685853  0.7864830841782507  1.0000
  Cl  Cl5       1.0  0.20884277123742123  0.24846476338394294  0.20124156624089556  1.0000
  Cl  Cl6       1.0  0.20829047908254236  0.4184684496972366  0.13198248850288516  1.0000
  O   O1        1.0  0.7317112639487888  0.5681473484313597  0.5602597350483621  1.0000
  O   O2        1.0  0.7316986305757567  0.49210496681570254  0.4318499200173847  1.0000
  O   O3        1.0  0.7316945643685102  0.4397393371645676  0.5078925092983155  1.0000
  O   O4        1.0  0.2624100659325279  0.5689747085677581  0.5097469147998694  1.0000
  O   O5        1.0  0.2624005302765298  0.4902507791477149  0.5592330971676419  1.0000
  O   O6        1.0  0.2624014530564054  0.4407643221879597  0.4310216687396676  1.0000
  O   O7        1.0  0.7325976263379418  0.17479327757565963  0.9015768611551566  1.0000
  O   O8        1.0  0.732616584737116  0.22677601264337  0.8252024317036017  1.0000
  O   O9        1.0  0.7325949112633554  0.09841867771451264  0.7732193734973976  1.0000
  O   O10       1.0  0.2633296664055678  0.22604842510930478  0.9022210671841719  1.0000
  O   O11       1.0  0.2633235262467508  0.09777300627260388  0.8238293856860963  1.0000
  O   O12       1.0  0.26334299092873437  0.1761656309123437  0.7739467930477701  1.0000
