data_image0
_chemical_formula_structural       Al2H12C22S2Br2O10
_chemical_formula_sum              "Al2 H12 C22 S2 Br2 O10"
_cell_length_a       6.974732886202776
_cell_length_b       11.128880141805245
_cell_length_c       12.861584186383446
_cell_angle_alpha    80.20229555833556
_cell_angle_beta     72.33189631581168
_cell_angle_gamma    71.33015238949103

_space_group_name_H-M_alt    "P 1"
_space_group_IT_number       1

loop_
  _space_group_symop_operation_xyz
  'x, y, z'

loop_
  _atom_site_type_symbol
  _atom_site_label
  _atom_site_symmetry_multiplicity
  _atom_site_fract_x
  _atom_site_fract_y
  _atom_site_fract_z
  _atom_site_occupancy
  Al  Al1       1.0  0.4930655486401887  0.49959706342458804  0.5057043809570769  1.0000
  Al  Al2       1.0  0.9930686815249389  0.49882042944636146  0.5052104373254094  1.0000
  H   H1        1.0  0.2764532251385318  0.35008814009134426  0.580387813627965  1.0000
  H   H2        1.0  0.7235450724576679  0.6433683746010104  0.42078316354109546  1.0000
  H   H3        1.0  0.25401642539012664  0.2382694228167921  0.34863516435519404  1.0000
  H   H4        1.0  0.46128594140179024  0.7666371013299554  0.36079033822637296  1.0000
  H   H5        1.0  0.7485500784668419  0.8804842856145  0.5794621813580247  1.0000
  H   H6        1.0  0.63818140798665  0.11836867358840661  0.5678115271072528  1.0000
  H   H7        1.0  0.20327742692889214  0.500873570623618  0.783758034476513  1.0000
  H   H8        1.0  0.05793903559934669  0.5819626872554339  0.9040516137622203  1.0000
  H   H9        1.0  0.14105722505515664  0.4135344288943941  0.9125832550384629  1.0000
  H   H10       1.0  0.8462818339861398  0.5904280672315921  0.09920524346784984  1.0000
  H   H11       1.0  0.9288460658929193  0.42195587957919417  0.10512509947046307  1.0000
  H   H12       1.0  0.7840952490963101  0.5010657817800493  0.2266140930793483  1.0000
  C   C1        1.0  0.8659494799140217  0.2752882575689314  0.4856375486028242  1.0000
  C   C2        1.0  0.6377299639355484  0.4929898033852139  0.700378591375667  1.0000
  C   C3        1.0  0.12671993758263503  0.7245798893894744  0.5057594855316054  1.0000
  C   C4        1.0  0.349878699232107  0.5081777307561668  0.30929219334864644  1.0000
  C   C5        1.0  0.3808347203720215  0.4996116940000307  0.8950226962589196  1.0000
  C   C6        1.0  0.6058057286206162  0.5056802556366903  0.11474942317045844  1.0000
  C   C7        1.0  0.5729005328683812  0.4970848168950681  0.8197444132848232  1.0000
  C   C8        1.0  0.41365980209224745  0.5081262213273022  0.18979612826046827  1.0000
  C   C9        1.0  0.5924300586941271  0.5025616989006919  0.007416408995439378  1.0000
  C   C10       1.0  0.3945832182713643  0.5026090070384369  0.002234009192754607  1.0000
  C   C11       1.0  0.9407325447049145  0.13500241364855012  0.4751333795862962  1.0000
  C   C12       1.0  0.1509181826643911  0.070093584305809  0.4184526120859715  1.0000
  C   C13       1.0  0.7984797823153826  0.066569825946452  0.5277998660836118  1.0000
  C   C14       1.0  0.2985038183836649  0.1349150575007272  0.35422827040241595  1.0000
  C   C15       1.0  0.4982894576194496  0.06927531925893501  0.2987588063089247  1.0000
  C   C16       1.0  0.0653062696402883  0.8663436325030959  0.48669923446105656  1.0000
  C   C17       1.0  0.8600446945178957  0.9331344824056986  0.5341564297340469  1.0000
  C   C18       1.0  0.21277701889731282  0.933271115608257  0.42347381206412377  1.0000
  C   C19       1.0  0.4164033176293951  0.8693197185092176  0.36212182348275224  1.0000
  C   C20       1.0  0.5577929915879383  0.9345836496646668  0.30256059548691633  1.0000
  C   C21       1.0  0.18673670041638238  0.4990482471148141  0.8711991719115628  1.0000
  C   C22       1.0  0.8004416051696452  0.5045035776293787  0.13906525250033752  1.0000
  S   S1        1.0  0.7642279281941097  0.4987087108886569  0.8789210118898367  1.0000
  S   S2        1.0  0.22275928642269335  0.5060427463544955  0.13065755873005708  1.0000
  Br  Br1       1.0  0.6873503388156338  0.16261678132418214  0.2169702882018711  1.0000
  Br  Br2       1.0  0.8294755735080769  0.8382435263969724  0.22780003373084404  1.0000
  O   O1        1.0  0.6724949925154176  0.32928268526747223  0.4907818351656701  1.0000
  O   O2        1.0  0.8288835570821289  0.492224631255354  0.6537896499795011  1.0000
  O   O3        1.0  0.9879746277931217  0.6705783255577701  0.5105449548788528  1.0000
  O   O4        1.0  0.4827110848052738  0.5140816610781017  0.3568586380637412  1.0000
  O   O5        1.0  0.31093643614086347  0.6695495278378872  0.5170637417440034  1.0000
  O   O6        1.0  0.16118396283357578  0.5034059060977755  0.3557291382665396  1.0000
  O   O7        1.0  0.9984392520168939  0.328043347670949  0.4931564288414093  1.0000
  O   O8        1.0  0.503015892756643  0.48934539748423583  0.6532030656513187  1.0000
  O   O9        1.0  0.2484833663244642  0.43828551121887926  0.5510018916513886  1.0000
  O   O10       1.0  0.739099407140621  0.5591906904626781  0.45906786586039766  1.0000
