data_image0
_chemical_formula_structural       U4H36C48N8Cl4O32
_chemical_formula_sum              "U4 H36 C48 N8 Cl4 O32"
_cell_length_a       7.216740784518248
_cell_length_b       12.966840032519997
_cell_length_c       16.63375056391939
_cell_angle_alpha    91.93852890586693
_cell_angle_beta     89.9992221104573
_cell_angle_gamma    106.14196319283214

_space_group_name_H-M_alt    "P 1"
_space_group_IT_number       1

loop_
  _space_group_symop_operation_xyz
  'x, y, z'

loop_
  _atom_site_type_symbol
  _atom_site_label
  _atom_site_symmetry_multiplicity
  _atom_site_fract_x
  _atom_site_fract_y
  _atom_site_fract_z
  _atom_site_occupancy
  U   U1        1.0  0.275450500272328  0.7940445545670374  0.6536531412572799  1.0000
  U   U2        1.0  0.48145752921500673  0.20608061499580543  0.8462768312342064  1.0000
  U   U3        1.0  0.7245527470708737  0.20595222179941436  0.3463464976672626  1.0000
  U   U4        1.0  0.5185538850838685  0.7939241848385737  0.153721191711746  1.0000
  H   H1        1.0  0.3980482952505185  0.9493909697767581  0.4190918922138138  1.0000
  H   H2        1.0  0.4492464585701513  0.050820451482479705  0.0810435652099883  1.0000
  H   H3        1.0  0.6019678240842977  0.050606608928298207  0.5809077654393278  1.0000
  H   H4        1.0  0.5507421418540164  0.9491802884609728  0.9189459461696643  1.0000
  H   H5        1.0  0.19949609871898852  0.9245161111750309  0.2910039014520649  1.0000
  H   H6        1.0  0.27543288613673417  0.07574321517346053  0.2090368413036643  1.0000
  H   H7        1.0  0.8005246117806166  0.07548788133404122  0.708993501399604  1.0000
  H   H8        1.0  0.7245654559479319  0.9242631540105961  0.7909540040678849  1.0000
  H   H9        1.0  0.6902351694211432  0.8285033738037628  0.4387729690626188  1.0000
  H   H10       1.0  0.8620278512262161  0.17169784180226347  0.0613393960700321  1.0000
  H   H11       1.0  0.3097813418635199  0.17149498901901694  0.5612230997724907  1.0000
  H   H12       1.0  0.13795105309798572  0.8283029053290322  0.938651317886837  1.0000
  H   H13       1.0  0.9087565517596234  0.8574044404978667  0.5599643945109705  1.0000
  H   H14       1.0  0.051848642804941406  0.1428315360133539  0.940166038911002  1.0000
  H   H15       1.0  0.09125456856178003  0.14258590824597664  0.4400350940914564  1.0000
  H   H16       1.0  0.9481320062389854  0.8571643843273692  0.0598233597887301  1.0000
  H   H17       1.0  0.2960229123577136  0.6495967438264643  0.8603372902862957  1.0000
  H   H18       1.0  0.6462248235363575  0.3502119619562833  0.6395294960602058  1.0000
  H   H19       1.0  0.7039751659571751  0.3503952351420312  0.1396664448151483  1.0000
  H   H20       1.0  0.3537776976407726  0.6497944517487538  0.3604697670311552  1.0000
  H   H21       1.0  0.5206613754068102  0.6071821519771633  0.9625852165421164  1.0000
  H   H22       1.0  0.9135280978141013  0.3926697968551809  0.5372915368578289  1.0000
  H   H23       1.0  0.47932071807399973  0.39281388679814466  0.0374264290312709  1.0000
  H   H24       1.0  0.08647479042075915  0.6073318061904305  0.46270941731768284  1.0000
  H   H25       1.0  0.8839116447875314  0.5166924220805316  0.0384223660648004  1.0000
  H   H26       1.0  0.3673250599623756  0.48359228323970876  0.4616614630832458  1.0000
  H   H27       1.0  0.11606468749253913  0.4833004068673788  0.9615898056577166  1.0000
  H   H28       1.0  0.632673660309166  0.5164092977125493  0.5383352822416043  1.0000
  H   H29       1.0  0.9127123294921875  0.5950392017229477  0.7678903651693005  1.0000
  H   H30       1.0  0.3175044443326129  0.4048576422871549  0.7320583017783875  1.0000
  H   H31       1.0  0.08728206288635225  0.4049592654088699  0.23212494430918437  1.0000
  H   H32       1.0  0.6824922732629944  0.5951399315699178  0.26794015342704114  1.0000
  H   H33       1.0  0.6740087657839595  0.6418086726935144  0.673783449283995  1.0000
  H   H34       1.0  0.03199204037731819  0.3581046079497625  0.8261651457859287  1.0000
  H   H35       1.0  0.3259985017659589  0.35819060318480217  0.3262330814571257  1.0000
  H   H36       1.0  0.9680058816856417  0.6418953759315188  0.1738333657717988  1.0000
  C   C1        1.0  0.24125766935943482  0.9225419590412759  0.417858463159142  1.0000
  C   C2        1.0  0.31920873689269774  0.07761516940679773  0.0822325748826671  1.0000
  C   C3        1.0  0.758757275169792  0.07745881402856011  0.5821376620405871  1.0000
  C   C4        1.0  0.6807765112654068  0.9223871807576672  0.9177575753507057  1.0000
  C   C5        1.0  0.12809764898706544  0.9092568538830152  0.3488150074138616  1.0000
  C   C6        1.0  0.2192311965702061  0.09098386309128165  0.15123524721870754  1.0000
  C   C7        1.0  0.8719205106348299  0.09075035232594078  0.6511824705927012  1.0000
  C   C8        1.0  0.7807612047595498  0.9090217096049502  0.848756781927463  1.0000
  C   C9        1.0  0.9272419111483502  0.8748983620626021  0.35497854215037716  1.0000
  C   C10       1.0  0.052658840982054804  0.1253222366756148  0.1451110984510677  1.0000
  C   C11       1.0  0.07276807833811462  0.12510081427053174  0.6450193493007248  1.0000
  C   C12       1.0  0.9473321715565464  0.8746833297241496  0.8548797281672194  1.0000
  C   C13       1.0  0.7935678365030302  0.8538237110120551  0.28392957472507163  1.0000
  C   C14       1.0  0.9398608884828618  0.146259921904992  0.2161453072989374  1.0000
  C   C15       1.0  0.2064471143857105  0.1461770748735631  0.7160689555427525  1.0000
  C   C16       1.0  0.06013585559474429  0.8537432499331745  0.7838484692713337  1.0000
  C   C17       1.0  0.8457705161134185  0.8558264363322082  0.43126713534711303  1.0000
  C   C18       1.0  0.9902801240473168  0.1443863308786035  0.06881230613596048  1.0000
  C   C19       1.0  0.15424779022114174  0.14417274574028482  0.5687319586010346  1.0000
  C   C20       1.0  0.009700568967261439  0.8556152226866233  0.9311790278658592  1.0000
  C   C21       1.0  0.9617646068483409  0.8705567666132767  0.49887145792311577  1.0000
  C   C22       1.0  0.09164359913067702  0.129642826826327  0.0012493657473485  1.0000
  C   C23       1.0  0.038250928263437324  0.12944241568206394  0.5011276360373671  1.0000
  C   C24       1.0  0.9083374874236225  0.8703595140605742  0.9987389807034575  1.0000
  C   C25       1.0  0.43442118031346416  0.6365634671030805  0.8450594783653429  1.0000
  C   C26       1.0  0.7976231537979002  0.36320833855565837  0.6548171229281223  1.0000
  C   C27       1.0  0.5655745393969056  0.3634293378572907  0.1549484844016931  1.0000
  C   C28       1.0  0.20237655854531064  0.6367924549634979  0.3451826099415811  1.0000
  C   C29       1.0  0.5595365589307876  0.6122070429198632  0.8993357670355094  1.0000
  C   C30       1.0  0.9471603830967935  0.3876303791793206  0.6005669127677891  1.0000
  C   C31       1.0  0.4404488820464537  0.38778737602258695  0.1006734358830954  1.0000
  C   C32       1.0  0.05284330652641962  0.6123728273451476  0.3994334777088895  1.0000
  C   C33       1.0  0.7301310614098214  0.5925612100803832  0.871880005115635  1.0000
  C   C34       1.0  0.13737972114725489  0.40733422103517813  0.6280599419525146  1.0000
  C   C35       1.0  0.2698613563646576  0.40743885114130063  0.12813293687528926  1.0000
  C   C36       1.0  0.8626235622172089  0.592668172536051  0.3719386259390021  1.0000
  C   C37       1.0  0.8566826481215772  0.5548811043491569  0.9274246653884788  1.0000
  C   C38       1.0  0.30165304128177445  0.4450082149882846  0.5725901414857972  1.0000
  C   C39       1.0  0.14332121683210627  0.44511413570988617  0.07258816383619399  1.0000
  C   C40       1.0  0.6983603476211685  0.5549949907562279  0.4274102489477158  1.0000
  C   C41       1.0  0.7772672416958529  0.6053174533110167  0.7904863857583279  1.0000
  C   C42       1.0  0.1718183197927061  0.3946068209773017  0.709464246372157  1.0000
  C   C43       1.0  0.22272933609254864  0.3946826139842941  0.2095277587481377  1.0000
  C   C44       1.0  0.8281827765720209  0.6053939692264906  0.2905348852243534  1.0000
  C   C45       1.0  0.6506986444374618  0.6311967804712638  0.7378268472355175  1.0000
  C   C46       1.0  0.01938630725341993  0.3686928192976709  0.7621104649405126  1.0000
  C   C47       1.0  0.34930092491878634  0.36880650007824306  0.2621873724011792  1.0000
  C   C48       1.0  0.9806138033991517  0.6313087711549984  0.2378880841792395  1.0000
  N   N1        1.0  0.1567791868300007  0.9034140820141161  0.4909882947933966  1.0000
  N   N2        1.0  0.2538558384416234  0.09676960052965462  0.0091121659711675  1.0000
  N   N3        1.0  0.8432380898217531  0.09658026708275001  0.5090082813759054  1.0000
  N   N4        1.0  0.7461312031765032  0.9032335656805799  0.9908804081082324  1.0000
  N   N5        1.0  0.4788702317278678  0.6415337238159823  0.765612020452977  1.0000
  N   N6        1.0  0.8372449379539618  0.35835104329058964  0.7342706133744699  1.0000
  N   N7        1.0  0.5211350453191983  0.35846711411274174  0.2343961301303708  1.0000
  N   N8        1.0  0.16275418857632937  0.6416513506149074  0.2657279545355493  1.0000
  Cl  Cl1       1.0  0.45489447099258484  0.7237994390588298  0.5317650519320338  1.0000
  Cl  Cl2       1.0  0.7311605836117111  0.2763098749754179  0.9681965123629012  1.0000
  Cl  Cl3       1.0  0.5451131190984668  0.27619493644956356  0.4682363344166163  1.0000
  Cl  Cl4       1.0  0.2688227344589223  0.7236941589894177  0.03180810585953961  1.0000
  O   O1        1.0  0.05079126937010172  0.6991910989393519  0.6203233970661373  1.0000
  O   O2        1.0  0.3515993111016513  0.3009561100799516  0.8796001864795784  1.0000
  O   O3        1.0  0.9492121638867842  0.3008032769033094  0.37967798930100827  1.0000
  O   O4        1.0  0.64839900768078  0.6990446675308988  0.12039654006117928  1.0000
  O   O5        1.0  0.4982861013406747  0.8885541037047489  0.6890459551192265  1.0000
  O   O6        1.0  0.609961675614727  0.11161760714514912  0.8108992324652391  1.0000
  O   O7        1.0  0.50171101774405  0.11144427349372422  0.3109525188703016  1.0000
  O   O8        1.0  0.3900564432162669  0.8883839722471906  0.1890975127732801  1.0000
  O   O9        1.0  0.2689406883771498  0.920562357162659  0.556441590411019  1.0000
  O   O10       1.0  0.34880230043344085  0.07964377259232691  0.9436180856436349  1.0000
  O   O11       1.0  0.7310724346201882  0.07943199867636962  0.44355618831082916  1.0000
  O   O12       1.0  0.6511872936522708  0.9203561831219746  0.05637501454788921  1.0000
  O   O13       1.0  0.6197378711180549  0.7966629118812706  0.2950524932075211  1.0000
  O   O14       1.0  0.8229619536442172  0.20332781553032936  0.2050594398689185  1.0000
  O   O15       1.0  0.3802680447059076  0.20334752162330727  0.7049474650651888  1.0000
  O   O16       1.0  0.1770310398579653  0.7966761695953508  0.7949361593050241  1.0000
  O   O17       1.0  0.8477858660208781  0.8884388869889791  0.21474928519924666  1.0000
  O   O18       1.0  0.9594483409205027  0.11155187036558092  0.2852901697844814  1.0000
  O   O19       1.0  0.1522373137746484  0.11155063818698353  0.7852465769614482  1.0000
  O   O20       1.0  0.04055054777606417  0.8884472748194697  0.714701709045741  1.0000
  O   O21       1.0  0.3464314995523595  0.6508099357921114  0.7135700484134163  1.0000
  O   O22       1.0  0.695565751094705  0.3491779860867156  0.7863102913722742  1.0000
  O   O23       1.0  0.653576726681777  0.34918848537023467  0.2864368432650934  1.0000
  O   O24       1.0  0.3044361874492623  0.6508300344125502  0.2136890092934536  1.0000
  O   O25       1.0  0.7976364245732058  0.54796971648517  0.0020417781673885025  1.0000
  O   O26       1.0  0.24974991745150998  0.4523190871045203  0.49799698015306143  1.0000
  O   O27       1.0  0.20234227744052907  0.4520223088984921  0.9979703747587011  1.0000
  O   O28       1.0  0.7502511789132172  0.547681703099265  0.502002151443449  1.0000
  O   O29       1.0  0.0030892831823550503  0.5311379565772827  0.9023400117314253  1.0000
  O   O30       1.0  0.47174518548133193  0.4685292546932942  0.5976887927418204  1.0000
  O   O31       1.0  0.9968979856862819  0.468862892411764  0.09766994273314822  1.0000
  O   O32       1.0  0.5282497858046754  0.5314731427504144  0.4023103764537197  1.0000
