data_image0
_chemical_formula_structural       Zn4H68C80N28O5
_chemical_formula_sum              "Zn4 H68 C80 N28 O5"
_cell_length_a       19.802545789399353
_cell_length_b       19.75500656086133
_cell_length_c       20.63852479959665
_cell_angle_alpha    106.45210508597071
_cell_angle_beta     106.03110739061921
_cell_angle_gamma    111.26094746775831

_space_group_name_H-M_alt    "P 1"
_space_group_IT_number       1

loop_
  _space_group_symop_operation_xyz
  'x, y, z'

loop_
  _atom_site_type_symbol
  _atom_site_label
  _atom_site_symmetry_multiplicity
  _atom_site_fract_x
  _atom_site_fract_y
  _atom_site_fract_z
  _atom_site_occupancy
  Zn  Zn1       1.0  0.5998822228480805  0.6119664101495488  0.5047099502730815  1.0000
  Zn  Zn2       1.0  0.3913975339398306  0.37936018556104056  0.4975930188205309  1.0000
  Zn  Zn3       1.0  0.4729862886360864  0.5800707400479651  0.5794377677879794  1.0000
  Zn  Zn4       1.0  0.518426902385869  0.4148981721779279  0.41907891076763076  1.0000
  H   H1        1.0  0.7595772677633195  0.645404843619339  0.6346901140748996  1.0000
  H   H2        1.0  0.668052745902351  0.0413995166809826  0.5569360929097511  1.0000
  H   H3        1.0  0.5336460028953952  0.06901694152832498  0.5335890264991858  1.0000
  H   H4        1.0  0.5169799251578979  0.030963406466092597  0.6534632498832307  1.0000
  H   H5        1.0  0.6187447279083713  0.1957885457892914  0.7538100886132495  1.0000
  H   H6        1.0  0.3999988003444275  0.5831151463336824  0.8183054704922695  1.0000
  H   H7        1.0  0.46533480202205624  0.6012319094063586  0.7386052520716645  1.0000
  H   H8        1.0  0.38127251338183044  0.5852746580979726  0.9333881129854403  1.0000
  H   H9        1.0  0.4044823029428457  0.6405204221522923  0.1438955185027737  1.0000
  H   H10       1.0  0.4248956389989191  0.6391663394738886  0.2677923070655196  1.0000
  H   H11       1.0  0.3028681292364155  0.3835932409230196  0.04128939306102805  1.0000
  H   H12       1.0  0.22020856428592595  0.34314419988767514  0.3792304181287989  1.0000
  H   H13       1.0  0.32102896551885624  0.38077931701715784  0.1637562209628172  1.0000
  H   H14       1.0  0.31344037506026023  0.09674245998042609  0.1695760444879539  1.0000
  H   H15       1.0  0.9704195649160426  0.8083762320014073  0.9061528038544749  1.0000
  H   H16       1.0  0.6563356762537041  0.4027366935512262  0.3651239159049382  1.0000
  H   H17       1.0  0.8481808036480489  0.6936592069629839  0.7956819305851182  1.0000
  H   H18       1.0  0.14350186399491352  0.1685493605418031  0.21448816172145505  1.0000
  H   H19       1.0  0.8679914435760878  0.9644447588356044  0.8907342167108253  1.0000
  H   H20       1.0  0.0367842110735523  0.0572491244658053  0.09282828894431819  1.0000
  H   H21       1.0  0.7466592201875956  0.8506239859012014  0.777953194749088  1.0000
  H   H22       1.0  0.35585774929853653  0.3418765794328352  0.6389492934742191  1.0000
  H   H23       1.0  0.4139464295337092  0.24978887814303627  0.2587036304617242  1.0000
  H   H24       1.0  0.768920360726405  0.6619535178561194  0.47847297520772963  1.0000
  H   H25       1.0  0.4867387857247253  0.6402658519815533  0.383641328032212  1.0000
  H   H26       1.0  0.4201266629409375  0.7111456796556651  0.6140324927184577  1.0000
  H   H27       1.0  0.41650931748849024  0.8213290474094492  0.6881463376269961  1.0000
  H   H28       1.0  0.44600809575914024  0.8535120543308639  0.6229560493260066  1.0000
  H   H29       1.0  0.5190665248462524  0.8849509138292505  0.7134481628044681  1.0000
  H   H30       1.0  0.1840326164906116  0.16102372170565363  0.31288170873995813  1.0000
  H   H31       1.0  0.9799716615927067  0.3231901170953293  0.3564126896326839  1.0000
  H   H32       1.0  0.9284478649948013  0.28058831475969004  0.4378731817056261  1.0000
  H   H33       1.0  0.8556924460428661  0.29801833524103943  0.3811371394519937  1.0000
  H   H34       1.0  0.6824932473125926  0.8145907838404582  0.5722470446777236  1.0000
  H   H35       1.0  0.925430807569221  0.3719673259956621  0.4731831235690861  1.0000
  H   H36       1.0  0.16940773287035432  0.5962623116907082  0.456375553589396  1.0000
  H   H37       1.0  0.4826752199273301  0.2731707759096124  0.623563762112674  1.0000
  H   H38       1.0  0.9823793874042508  0.6643742754948151  0.3835688908537519  1.0000
  H   H39       1.0  0.03771167234774002  0.7122931160888655  0.30625074375237193  1.0000
  H   H40       1.0  0.04386122091752752  0.6227595830388069  0.2708093923741827  1.0000
  H   H41       1.0  0.10978392731973945  0.6954906417047156  0.364454203941257  1.0000
  H   H42       1.0  0.7911523845106176  0.3925527472522391  0.26223501193246085  1.0000
  H   H43       1.0  0.751894864531039  0.25914219410959305  0.1840064068762217  1.0000
  H   H44       1.0  0.8466190061260902  0.27100530361605735  0.23568261088112763  1.0000
  H   H45       1.0  0.37170669226749453  0.37975641046729447  0.2769589305048825  1.0000
  H   H46       1.0  0.8384868972719847  0.31978091244312173  0.17544634817619453  1.0000
  H   H47       1.0  0.8224755821495648  0.20349614098083893  0.6690959448535023  1.0000
  H   H48       1.0  0.4240145490159435  0.318986651881687  0.8085154967096597  1.0000
  H   H49       1.0  0.5180440927659832  0.334594167166685  0.7623053669037957  1.0000
  H   H50       1.0  0.5517393601636799  0.43265023611400016  0.8307612367439956  1.0000
  H   H51       1.0  0.5030427035533408  0.4069031075244638  0.7339787888099207  1.0000
  H   H52       1.0  0.3711278136354323  0.35373889273663656  0.9382658767482253  1.0000
  H   H53       1.0  0.30054910287594083  0.21482121623265726  0.8496596758572748  1.0000
  H   H54       1.0  0.3005085970758899  0.24654946641017267  0.7770025522105256  1.0000
  H   H55       1.0  0.24457680765307546  0.2653136424737995  0.8274154422645947  1.0000
  H   H56       1.0  0.33918788024200097  0.6035792842669848  0.4705642273769754  1.0000
  H   H57       1.0  0.27564770322115356  0.9978902331579038  0.06354069179815258  1.0000
  H   H58       1.0  0.12698983170056988  0.9106129522785694  0.9284455254798372  1.0000
  H   H59       1.0  0.13179876172088012  0.858472606984691  0.9851516881897452  1.0000
  H   H60       1.0  0.20863928795526487  0.8893406254077905  0.9537619045032881  1.0000
  H   H61       1.0  0.6976073052672053  0.3662863198979168  0.5376892611153181  1.0000
  H   H62       1.0  0.5685821730836056  0.7285675010941122  0.7212462597587219  1.0000
  H   H63       1.0  0.589584380377602  0.7389492681899484  0.8451615667695049  1.0000
  H   H64       1.0  0.6844539647691121  0.8021748060247519  0.8510141407151721  1.0000
  H   H65       1.0  0.6604990041746248  0.7040104234603461  0.8449497157481429  1.0000
  H   H66       1.0  0.0005127919691148461  0.5209323791728269  0.4990974939340233  1.0000
  H   H67       1.0  0.9662021805394974  0.4701951150947892  0.2407243450638602  1.0000
  H   H68       1.0  0.7528401725820758  0.16896299330853992  0.7776520394569529  1.0000
  C   C1        1.0  0.7112697241645165  0.646152888721133  0.6497036537439199  1.0000
  C   C2        1.0  0.6291066466046332  0.7875705150363643  0.5807486581170378  1.0000
  C   C3        1.0  0.40629811195620397  0.4435912813006482  0.3135137386701172  1.0000
  C   C4        1.0  0.5127783300102493  0.339685796103474  0.5753745776244015  1.0000
  C   C5        1.0  0.3220504959574626  0.5405349680138299  0.4555678977092298  1.0000
  C   C6        1.0  0.40946441713739296  0.5099356180539233  0.2989089713115617  1.0000
  C   C7        1.0  0.24693512148216004  0.47214860775253  0.40768129360262145  1.0000
  C   C8        1.0  0.5958843889915286  0.8272337992601634  0.61954655748886  1.0000
  C   C9        1.0  0.2997892093079813  0.20278506385252368  0.2731683719938616  1.0000
  C   C10       1.0  0.9764049376545857  0.42815807744540285  0.3816734384486578  1.0000
  C   C11       1.0  0.9933312009909798  0.5088581544018923  0.44186711093173864  1.0000
  C   C12       1.0  0.5828150131305634  0.33525174226284804  0.5767870196545813  1.0000
  C   C13       1.0  0.8102922104108928  0.5363062515170115  0.40538325840178385  1.0000
  C   C14       1.0  0.17305719829285954  0.47052094498622665  0.3771913743678608  1.0000
  C   C15       1.0  0.9081841141609033  0.4318059560798345  0.3214297890675865  1.0000
  C   C16       1.0  0.4358847027512454  0.5375256348260463  0.7024283565132164  1.0000
  C   C17       1.0  0.9261635386839303  0.5128002117638034  0.3829424018166633  1.0000
  C   C18       1.0  0.9731335032097804  0.4808696398533031  0.2977394790524457  1.0000
  C   C19       1.0  0.03956858523678618  0.47654548858832163  0.3565101505229861  1.0000
  C   C20       1.0  0.9889922695183773  0.5613215302315949  0.35785157646468235  1.0000
  C   C21       1.0  0.0565648861996381  0.5574659075772603  0.41845554167633736  1.0000
  C   C22       1.0  0.8654212584376424  0.5283522162157724  0.3953019175560397  1.0000
  C   C23       1.0  0.4094104189162452  0.4712409540130836  0.719459462903188  1.0000
  C   C24       1.0  0.10721521719227674  0.46728733443847403  0.3565829338267718  1.0000
  C   C25       1.0  0.7038601575500111  0.14635771797016875  0.7233448280196625  1.0000
  C   C26       1.0  0.7128563632561015  0.16682612061443083  0.6567609419591419  1.0000
  C   C27       1.0  0.6115809786145618  0.2893410580580493  0.6044639303451615  1.0000
  C   C28       1.0  0.6712697272386309  0.46497749674315975  0.39385824912008616  1.0000
  C   C29       1.0  0.6215703416611407  0.910086879858696  0.6487875905374593  1.0000
  C   C30       1.0  0.6294481428638576  0.1607484211754979  0.7101114700495683  1.0000
  C   C31       1.0  0.6381098217666763  0.18220526661412612  0.6433359238626295  1.0000
  C   C32       1.0  0.572753515443985  0.07059198408651209  0.6539077069399966  1.0000
  C   C33       1.0  0.6471135844929989  0.05458563879326311  0.666520242388138  1.0000
  C   C34       1.0  0.7426558264636682  0.5347971733936276  0.41597395632382456  1.0000
  C   C35       1.0  0.5820571967986298  0.08987053284529621  0.5876133424750732  1.0000
  C   C36       1.0  0.6564948969495178  0.0761333302566314  0.6001026630064102  1.0000
  C   C37       1.0  0.6290526315804145  0.24449167008370415  0.6275494667608966  1.0000
  C   C38       1.0  0.6427258194585477  0.9817989754677185  0.6682602940251882  1.0000
  C   C39       1.0  0.37901349870948303  0.510273237429871  0.22608336525121314  1.0000
  C   C40       1.0  0.3810086719963551  0.4052196236099661  0.65135213371299  1.0000
  C   C41       1.0  0.3399710121957186  0.43823693417407855  0.16008470272738157  1.0000
  C   C42       1.0  0.32955740921686794  0.4392035202592127  0.09128594107555439  1.0000
  C   C43       1.0  0.3570194712259038  0.513001905177127  0.08573689028486337  1.0000
  C   C44       1.0  0.38616408819604703  0.584020835417647  0.14933989319196436  1.0000
  C   C45       1.0  0.46478667776950294  0.5763929390270305  0.3678940378631309  1.0000
  C   C46       1.0  0.39745045499326187  0.5826687720790816  0.2184065772603887  1.0000
  C   C47       1.0  0.38520397979321086  0.53576165018292  0.8976564858084044  1.0000
  C   C48       1.0  0.3974265836032842  0.5347375063903144  0.8347959513664235  1.0000
  C   C49       1.0  0.3742437168314581  0.4693557995728384  0.9146812898432585  1.0000
  C   C50       1.0  0.404873947210895  0.4716361099618923  0.7889869435192265  1.0000
  C   C51       1.0  0.40367017033160124  0.409802359668852  0.8112255842681861  1.0000
  C   C52       1.0  0.7294633152741669  0.5975190034099356  0.4523403593432746  1.0000
  C   C53       1.0  0.3814229703266747  0.40532137829573867  0.870086769999105  1.0000
  C   C54       1.0  0.7883588145029635  0.7638289764669962  0.7800757427289042  1.0000
  C   C55       1.0  0.7950967206409134  0.841068092522747  0.8069358334651469  1.0000
  C   C56       1.0  0.2612589924329712  0.4072524166280118  0.408201667018801  1.0000
  C   C57       1.0  0.8626206398787987  0.9046441369163745  0.8689430824784948  1.0000
  C   C58       1.0  0.9264269832585655  0.893408061892693  0.9050623334649828  1.0000
  C   C59       1.0  0.9212929831401766  0.8169550052127122  0.8772201089991964  1.0000
  C   C60       1.0  0.8532081717095822  0.7534541131509228  0.8157960033069994  1.0000
  C   C61       1.0  0.19329042046726394  0.026591244519472902  0.0821475268089955  1.0000
  C   C62       1.0  0.2527716463367966  0.08909550905996612  0.15239684483495347  1.0000
  C   C63       1.0  0.11359034970080024  0.0157984452000335  0.0611687877422256  1.0000
  C   C64       1.0  0.6073626680989649  0.3797974764266386  0.5371374152301769  1.0000
  C   C65       1.0  0.2367798574213751  0.1393961086937026  0.2012141367626583  1.0000
  C   C66       1.0  0.1572379521640244  0.1275023044946693  0.17936913338247246  1.0000
  C   C67       1.0  0.5269908846425295  0.7626756875927398  0.6122602615351979  1.0000
  C   C68       1.0  0.0981058187355259  0.0672120165820758  0.11107867380904678  1.0000
  C   C69       1.0  0.6347602058973579  0.6734370542859195  0.7025248813501646  1.0000
  C   C70       1.0  0.715892566476555  0.6966598198927018  0.7160223457940375  1.0000
  C   C71       1.0  0.46308861450962985  0.834610301238783  0.6676270750316033  1.0000
  C   C72       1.0  0.9181125696802612  0.32616501501112793  0.4228221735945112  1.0000
  C   C73       1.0  0.04825681819486507  0.6665417174130824  0.32075634563973665  1.0000
  C   C74       1.0  0.8160372056157854  0.30224393262090393  0.21485615324711196  1.0000
  C   C75       1.0  0.5036779548011338  0.3840591607135124  0.776539535544991  1.0000
  C   C76       1.0  0.30045713254978784  0.2625547361842492  0.8324622264971208  1.0000
  C   C77       1.0  0.16826435100585269  0.9062908499173192  0.9730799587885455  1.0000
  C   C78       1.0  0.3815459208921368  0.2502027907267319  0.2934853979058544  1.0000
  C   C79       1.0  0.6358418371812605  0.7397194832745697  0.8252739202242336  1.0000
  C   C80       1.0  0.2928894911948633  0.23259349507820565  0.34051186946944506  1.0000
  N   N1        1.0  0.6339144032409223  0.5968510475864265  0.5995304076302119  1.0000
  N   N2        1.0  0.36085769472346396  0.4617464536494468  0.9757437626386076  1.0000
  N   N3        1.0  0.9901675021381353  0.9602239198894936  0.9694129530739488  1.0000
  N   N4        1.0  0.49881855489145016  0.38429524252548936  0.5411004853950414  1.0000
  N   N5        1.0  0.053330313900737364  0.9537878041321904  0.9928707653588656  1.0000
  N   N6        1.0  0.4237593693486091  0.5130523074410008  0.6305576226268029  1.0000
  N   N7        1.0  0.6203421277908774  0.48458824526667144  0.4152834768467385  1.0000
  N   N8        1.0  0.3891726947347394  0.43035618340746845  0.5985339031868192  1.0000
  N   N9        1.0  0.6563565816722204  0.5669673527119343  0.4516940457953991  1.0000
  N   N10       1.0  0.5578728957232997  0.40884802376678653  0.5159578615028549  1.0000
  N   N11       1.0  0.5874973627402938  0.6111694755420559  0.6340615824716734  1.0000
  N   N12       1.0  0.33805725118696023  0.43585348707811283  0.45384850864388665  1.0000
  N   N13       1.0  0.4929587351205385  0.5508834655407925  0.41783127314947416  1.0000
  N   N14       1.0  0.4729244608441122  0.7632511918048905  0.642892932772888  1.0000
  N   N15       1.0  0.9781160271136928  0.36403625680781465  0.3981342431351961  1.0000
  N   N16       1.0  0.98625565314768  0.6253808343706597  0.3419921182831089  1.0000
  N   N17       1.0  0.8283602528754558  0.36964829460876564  0.2776537154876736  1.0000
  N   N18       1.0  0.42510668416856123  0.3524978299761941  0.7787277986899495  1.0000
  N   N19       1.0  0.372313993930483  0.339103066328903  0.887020291106971  1.0000
  N   N20       1.0  0.21724857787082644  0.9827323785748447  0.03856785504540731  1.0000
  N   N21       1.0  0.5988138695482024  0.7029009842497659  0.7441320695970147  1.0000
  N   N22       1.0  0.5205747999210006  0.6918963171959832  0.5719466059820205  1.0000
  N   N23       1.0  0.41913240108204525  0.3033967340593692  0.3655382148000541  1.0000
  N   N24       1.0  0.3632968306481175  0.2918482716658701  0.39526955458867247  1.0000
  N   N25       1.0  0.5847045591212777  0.7079927979200634  0.5526463090690257  1.0000
  N   N26       1.0  0.4571603774474369  0.46929394780574546  0.3845380683530664  1.0000
  N   N27       1.0  0.37530767372453516  0.5174184745319935  0.48309297583732286  1.0000
  N   N28       1.0  0.36369278606789385  0.5223009500951578  0.02234962633212941  1.0000
  O   O1        1.0  0.2283659655062422  0.2087140467466  0.3566427396488905  1.0000
  O   O2        1.0  0.13401561124123162  0.6183155680696544  0.4657264975498804  1.0000
  O   O3        1.0  0.46123770839312084  0.30232745663865046  0.6007277798413426  1.0000
  O   O4        1.0  0.7818793197385006  0.22040924448369031  0.6572163746680743  1.0000
  O   O5        1.0  0.6697135818734168  0.39297165969210107  0.5182728940499288  1.0000
