data_image0
_chemical_formula_structural       Zn6H32C76N4O40
_chemical_formula_sum              "Zn6 H32 C76 N4 O40"
_cell_length_a       18.131359267426955
_cell_length_b       18.80476410940479
_cell_length_c       18.415243512762967
_cell_angle_alpha    108.53580874273347
_cell_angle_beta     108.42804443344338
_cell_angle_gamma    108.77650133860091

_space_group_name_H-M_alt    "P 1"
_space_group_IT_number       1

loop_
  _space_group_symop_operation_xyz
  'x, y, z'

loop_
  _atom_site_type_symbol
  _atom_site_label
  _atom_site_symmetry_multiplicity
  _atom_site_fract_x
  _atom_site_fract_y
  _atom_site_fract_z
  _atom_site_occupancy
  Zn  Zn1       1.0  0.489669573111385  0.5388540333886737  0.5649967349108282  1.0000
  Zn  Zn2       1.0  0.5034471497843072  0.43534679594883136  0.43314401780686757  1.0000
  Zn  Zn3       1.0  0.05036889053295825  0.9807562001250503  0.5613179781726745  1.0000
  Zn  Zn4       1.0  0.9324508839074637  0.004217081151672599  0.4516797770832639  1.0000
  Zn  Zn5       1.0  0.07584440899733373  0.5781949429061582  0.005990744880911303  1.0000
  Zn  Zn6       1.0  0.942636811755932  0.45550930429803327  0.001230264805236849  1.0000
  H   H1        1.0  0.789520579105762  0.7008223929456181  0.6349466720841196  1.0000
  H   H2        1.0  0.2242746979153836  0.33985789941630884  0.4948593676360746  1.0000
  H   H3        1.0  0.5198285323710081  0.6796558152382274  0.45697489669287716  1.0000
  H   H4        1.0  0.4872591422989317  0.3146834139112471  0.5663185400867974  1.0000
  H   H5        1.0  0.47649051439648815  0.7616996034381884  0.3847454001503083  1.0000
  H   H6        1.0  0.5339693834228569  0.21259402683431014  0.5985909946558865  1.0000
  H   H7        1.0  0.904935783021564  0.810890625602788  0.6284349632874541  1.0000
  H   H8        1.0  0.11598022913847932  0.21307461956033794  0.4885034960678923  1.0000
  H   H9        1.0  0.40673024268149754  0.541496424644052  0.25615457815698056  1.0000
  H   H10       1.0  0.6350021452743134  0.42942474664577907  0.7038105704741897  1.0000
  H   H11       1.0  0.2568348370334164  0.4251647438106546  0.39554444422561374  1.0000
  H   H12       1.0  0.7483735426678351  0.5328730917270689  0.5353147270216143  1.0000
  H   H13       1.0  0.11178763418018892  0.39188834446697035  0.39094782557272373  1.0000
  H   H14       1.0  0.8972572753574113  0.6099844782123756  0.5532325676468589  1.0000
  H   H15       1.0  0.008995055588783963  0.4280331265919913  0.3002678251133944  1.0000
  H   H16       1.0  0.030106751525380674  0.6440867059477428  0.6819180928461251  1.0000
  H   H17       1.0  0.04917064595920811  0.4906157043345871  0.2124806991065925  1.0000
  H   H18       1.0  0.013580100623030928  0.6022985404963493  0.7923721231709921  1.0000
  H   H19       1.0  0.3029500326668781  0.5733597719038174  0.1620154225697378  1.0000
  H   H20       1.0  0.7654540454093989  0.4510624019241476  0.8240201115012911  1.0000
  H   H21       1.0  0.9165568650496212  0.7133771810205902  0.3345929770685246  1.0000
  H   H22       1.0  0.9911760354549628  0.26673659391472176  0.6320544592550379  1.0000
  H   H23       1.0  0.002358302726946669  0.9545419502407172  0.2855750413461707  1.0000
  H   H24       1.0  0.9724225327331197  0.04011246082993839  0.7056957677629753  1.0000
  H   H25       1.0  0.0315014637421882  0.9826884257821505  0.17248330576371984  1.0000
  H   H26       1.0  0.9718693713964226  0.017901020275601802  0.829721641019944  1.0000
  H   H27       1.0  0.9881060855110917  0.8590594324380093  0.033724790764332054  1.0000
  H   H28       1.0  0.007635783007117416  0.13930827091596854  0.9653582625755494  1.0000
  H   H29       1.0  0.8220078563130074  0.5900814476550381  0.9060128798909876  1.0000
  H   H30       1.0  0.056060699512038105  0.33462069617678486  0.10696604151178957  1.0000
  H   H31       1.0  0.8086635089240133  0.058858290141337505  0.48812390120706095  1.0000
  H   H32       1.0  0.1422040171369545  0.9219246935654155  0.42629740623821294  1.0000
  C   C1        1.0  0.3860627287890068  0.4826341891060864  0.3674292074566311  1.0000
  C   C2        1.0  0.6280560841123091  0.4688681470163161  0.5788711839317245  1.0000
  C   C3        1.0  0.6133017640474634  0.6381662937464938  0.5444553904419254  1.0000
  C   C4        1.0  0.3866320972059256  0.3771351206662885  0.5184637524887422  1.0000
  C   C5        1.0  0.5701577066383477  0.7351463557030015  0.4627155963117532  1.0000
  C   C6        1.0  0.4397680339284235  0.25724142690018675  0.5603198532827777  1.0000
  C   C7        1.0  0.5453260530425937  0.7805016640002692  0.4236452776660969  1.0000
  C   C8        1.0  0.4659540689512837  0.2008459164851502  0.577047954454642  1.0000
  C   C9        1.0  0.6115603344343157  0.8570589565668456  0.4405229344273922  1.0000
  C   C10       1.0  0.4017823318586763  0.12382538015179283  0.5616210351219167  1.0000
  C   C11       1.0  0.700828292720928  0.8847276668477235  0.48722319320823704  1.0000
  C   C12       1.0  0.3140784909308891  0.10374464106359232  0.5357442697417271  1.0000
  C   C13       1.0  0.7280514387373316  0.8315879351890559  0.5180215094940055  1.0000
  C   C14       1.0  0.28801594684628645  0.16672277772151028  0.5283442775941083  1.0000
  C   C15       1.0  0.6605845026622247  0.760170896492646  0.5116393949537682  1.0000
  C   C16       1.0  0.3514302734593072  0.24209611558710983  0.5354571247394659  1.0000
  C   C17       1.0  0.6846856078570696  0.7144239818665952  0.5549570363152015  1.0000
  C   C18       1.0  0.3259012539445436  0.3026646082978885  0.520747660991596  1.0000
  C   C19       1.0  0.7717235965463232  0.7358505225365164  0.6014397805961381  1.0000
  C   C20       1.0  0.24244963263547697  0.292396075720994  0.5044210180952221  1.0000
  C   C21       1.0  0.8369518296311115  0.799062512493073  0.5993317898617792  1.0000
  C   C22       1.0  0.1815982700489229  0.2209769379501694  0.5005407135312225  1.0000
  C   C23       1.0  0.8172187128120995  0.8448213907718342  0.5568708851853047  1.0000
  C   C24       1.0  0.20272131462790094  0.1596256000398242  0.5130577369368723  1.0000
  C   C25       1.0  0.2110759822010237  0.43843800758656926  0.3542043017444385  1.0000
  C   C26       1.0  0.806393959315109  0.5488651881360624  0.5919312848599605  1.0000
  C   C27       1.0  0.1302402361337016  0.4202167883920255  0.3519965244254949  1.0000
  C   C28       1.0  0.8895283769097659  0.591573587552425  0.6019787609955644  1.0000
  C   C29       1.0  0.07203107222083821  0.4397775864929088  0.3004648749721711  1.0000
  C   C30       1.0  0.9645417614351995  0.610807412871523  0.6746780429159218  1.0000
  C   C31       1.0  0.09448294703609861  0.4750852044287798  0.25052440999660774  1.0000
  C   C32       1.0  0.9558598513940879  0.5875503157113826  0.7365879142067374  1.0000
  C   C33       1.0  0.17640798831133256  0.49306252794866623  0.2491931467931964  1.0000
  C   C34       1.0  0.8715306217730969  0.5438781379128202  0.728980690547978  1.0000
  C   C35       1.0  0.23681357886395923  0.4757223905363405  0.3043346293583228  1.0000
  C   C36       1.0  0.7949131586635829  0.5237897124248576  0.6543670326593586  1.0000
  C   C37       1.0  0.3203170205641754  0.4943785110717868  0.3057667340951867  1.0000
  C   C38       1.0  0.7098058200562389  0.4823406561382556  0.6471569472209354  1.0000
  C   C39       1.0  0.3431581221477132  0.5285624191958292  0.2550025554185497  1.0000
  C   C40       1.0  0.7001570181910495  0.4590506668105618  0.7089610152715198  1.0000
  C   C41       1.0  0.28488921347900487  0.5470449376515346  0.20232010899383102  1.0000
  C   C42       1.0  0.7739218895561849  0.4738072110624855  0.7782770920019646  1.0000
  C   C43       1.0  0.20267426936602823  0.52917937999149  0.19771126584227272  1.0000
  C   C44       1.0  0.8587297625623476  0.516952782916526  0.7904365043245392  1.0000
  C   C45       1.0  0.9542146200122159  0.8728916560303119  0.36221701159752234  1.0000
  C   C46       1.0  0.9852359019686716  0.1187004835107786  0.6116965041173119  1.0000
  C   C47       1.0  0.8892277405607558  0.8963305014360118  0.5441569899645915  1.0000
  C   C48       1.0  0.1322647164051673  0.09267607362610161  0.5147649729909817  1.0000
  C   C49       1.0  0.001593919541328133  0.3794009791857178  0.9007533934542594  1.0000
  C   C50       1.0  0.955444179339068  0.6078624478514456  0.09204767115148374  1.0000
  C   C51       1.0  0.14055677790170767  0.5400018505945285  0.13142467080756162  1.0000
  C   C52       1.0  0.9300289371864068  0.5293637861644952  0.8694224561323838  1.0000
  C   C53       1.0  0.9917926883233007  0.902956314531025  0.2285892455467363  1.0000
  C   C54       1.0  0.9824114542548724  0.0914242995589021  0.7621235667072953  1.0000
  C   C55       1.0  0.0070367020869213474  0.9184756145793501  0.16523459436889001  1.0000
  C   C56       1.0  0.9829064901096201  0.07928205114601641  0.8320419031904579  1.0000
  C   C57       1.0  0.985275358109696  0.8498912457993839  0.08851120914943073  1.0000
  C   C58       1.0  0.0011487529206491288  0.14690655774224132  0.9077731938401287  1.0000
  C   C59       1.0  0.955206167266205  0.7677156274969547  0.07790341396594899  1.0000
  C   C60       1.0  0.015315565833191224  0.22522535492539936  0.9118074234537094  1.0000
  C   C61       1.0  0.9518565915230894  0.7513969242371701  0.14804011739107648  1.0000
  C   C62       1.0  0.00523092878263751  0.23696216170894502  0.8365691497676127  1.0000
  C   C63       1.0  0.9627039446852522  0.8199250694709336  0.22107295427726836  1.0000
  C   C64       1.0  0.99364112847703  0.16970878893825866  0.7619597269504724  1.0000
  C   C65       1.0  0.9472388294552374  0.8041717668085937  0.2870778178558099  1.0000
  C   C66       1.0  0.989752192339793  0.18233650505116114  0.6882188774534086  1.0000
  C   C67       1.0  0.9278412587325776  0.7258996378134058  0.2842086792343823  1.0000
  C   C68       1.0  0.9939408305814084  0.2565384170586995  0.6876222850646344  1.0000
  C   C69       1.0  0.9274958668669482  0.6630754639734064  0.21757949720150546  1.0000
  C   C70       1.0  0.9990777539669435  0.3183864166271277  0.7586006966653757  1.0000
  C   C71       1.0  0.9408448278666909  0.6731163808506081  0.150623121153295  1.0000
  C   C72       1.0  0.003408460855475031  0.3110289325227455  0.8321211334992499  1.0000
  C   C73       1.0  0.9156790944987563  0.7011606037552199  0.9868436256857651  1.0000
  C   C74       1.0  0.05650981338587974  0.29898179825998744  0.9988756292130888  1.0000
  C   C75       1.0  0.7654602542523891  0.9746368634539735  0.5192343539245317  1.0000
  C   C76       1.0  0.2514424637230306  0.016106013491288703  0.5147534441655567  1.0000
  N   N1        1.0  0.9187190685837334  0.5864400837015894  0.22820127009816835  1.0000
  N   N2        1.0  0.9921658128702333  0.3902686063282346  0.7467329121610933  1.0000
  N   N3        1.0  0.5795317405528237  0.9108888661128559  0.4107448392649787  1.0000
  N   N4        1.0  0.432841772772086  0.0617075073727307  0.570595510112355  1.0000
  O   O1        1.0  0.4064788735244916  0.5213153972229491  0.44695362680799633  1.0000
  O   O2        1.0  0.6053791689490852  0.4266739734472509  0.49817534711705497  1.0000
  O   O3        1.0  0.41863563380929486  0.4358762402549771  0.33757458044564714  1.0000
  O   O4        1.0  0.5839514918189083  0.5001004017784325  0.6066257773588789  1.0000
  O   O5        1.0  0.5795485165787113  0.6497470081973233  0.5962264501063218  1.0000
  O   O6        1.0  0.41472279796860784  0.3618027749327837  0.46333587550050487  1.0000
  O   O7        1.0  0.5914373349217711  0.5677276963130423  0.4839841592187782  1.0000
  O   O8        1.0  0.4029012804565966  0.4510646161227285  0.5710761555071218  1.0000
  O   O9        1.0  0.008342067095910052  0.8901502109147756  0.4372308304058238  1.0000
  O   O10       1.0  0.9372043205791839  0.10605678150314901  0.5348810240200238  1.0000
  O   O11       1.0  0.9064347672251571  0.9086591267831564  0.34562616150338965  1.0000
  O   O12       1.0  0.030851658899209187  0.0814248799867556  0.6254936534240516  1.0000
  O   O13       1.0  0.9683336515086506  0.910547581030535  0.5887257260770015  1.0000
  O   O14       1.0  0.053374702687740694  0.0695215799549658  0.4629282227274914  1.0000
  O   O15       1.0  0.8683946543923824  0.9198443683636839  0.4865410233793669  1.0000
  O   O16       1.0  0.15452411560880822  0.06600024944575725  0.5701622323121285  1.0000
  O   O17       1.0  0.05515568591521708  0.45520015962102883  0.9262456864319548  1.0000
  O   O18       1.0  0.9059218548694615  0.5294118358759123  0.06741330487972881  1.0000
  O   O19       1.0  0.9426857574560259  0.35465287276778673  0.9246797229489732  1.0000
  O   O20       1.0  0.018777205535791104  0.636102496866279  0.07619477133217605  1.0000
  O   O21       1.0  0.1722725996197241  0.5925022632753354  0.10494418549480863  1.0000
  O   O22       1.0  0.9031855787360853  0.4844878038289622  0.9038098387764963  1.0000
  O   O23       1.0  0.05841927521112913  0.49424847329810007  0.10194436258233709  1.0000
  O   O24       1.0  0.011307521144132884  0.5831957866017635  0.9013705858023331  1.0000
  O   O25       1.0  0.9364416514139504  0.7115767713743821  0.9326370588941871  1.0000
  O   O26       1.0  0.8463076633436516  0.6292910427355237  0.9677472258996931  1.0000
  O   O27       1.0  0.11942008340660952  0.36645487018215317  0.02297298226767456  1.0000
  O   O28       1.0  0.022365960175392316  0.2826068593166795  0.05102490183254102  1.0000
  O   O29       1.0  0.9852454297837735  0.5767878667884077  0.24944125398651815  1.0000
  O   O30       1.0  0.8469420126146048  0.5408100050796351  0.21982866190256117  1.0000
  O   O31       1.0  0.925798005106607  0.3970572355981403  0.7439703453304319  1.0000
  O   O32       1.0  0.05013457215132181  0.43518644868049705  0.7359048614329354  1.0000
  O   O33       1.0  0.525928194419066  0.8766415396859131  0.3332740750854626  1.0000
  O   O34       1.0  0.6060684333564267  0.9840947769638362  0.4654131419974663  1.0000
  O   O35       1.0  0.4958398358001901  0.08740986302313301  0.6409693842050929  1.0000
  O   O36       1.0  0.39597472865648337  0.9911585333610873  0.5070211870531838  1.0000
  O   O37       1.0  0.8147878537975828  0.021853795587205103  0.5964443514622249  1.0000
  O   O38       1.0  0.7617881795564756  0.9992165303115996  0.4572774427343308  1.0000
  O   O39       1.0  0.26173201246767525  0.9835072635137294  0.5620435226088818  1.0000
  O   O40       1.0  0.18275546685982397  0.9763110754522514  0.43376792842022394  1.0000
