data_image0
_chemical_formula_structural       Ho4H28C32O28
_chemical_formula_sum              "Ho4 H28 C32 O28"
_cell_length_a       7.15659352200925
_cell_length_b       7.653432802034133
_cell_length_c       17.29844019636554
_cell_angle_alpha    92.1327583676145
_cell_angle_beta     89.99981731598373
_cell_angle_gamma    90.00003530189439

_space_group_name_H-M_alt    "P 1"
_space_group_IT_number       1

loop_
  _space_group_symop_operation_xyz
  'x, y, z'

loop_
  _atom_site_type_symbol
  _atom_site_label
  _atom_site_symmetry_multiplicity
  _atom_site_fract_x
  _atom_site_fract_y
  _atom_site_fract_z
  _atom_site_occupancy
  Ho  Ho1       1.0  0.0060071361293552  0.6461802441493918  0.7533205606847345  1.0000
  Ho  Ho2       1.0  0.5060090788075229  0.8538237556784338  0.7466806311305304  1.0000
  Ho  Ho3       1.0  0.9939888250839031  0.35381731889568613  0.24667761251274808  1.0000
  Ho  Ho4       1.0  0.49398548507937073  0.14618171111695938  0.25332169642329927  1.0000
  H   H1        1.0  0.15990763406075098  0.4635757762223776  0.9797699749464926  1.0000
  H   H2        1.0  0.6599083296364014  0.03643280532502761  0.5202297583478099  1.0000
  H   H3        1.0  0.8400967110365867  0.5364230690813088  0.020226481416017402  1.0000
  H   H4        1.0  0.3400960154392933  0.9635687390269254  0.4797725157684525  1.0000
  H   H5        1.0  0.2881601884732915  0.30110080317398763  0.5545612332293857  1.0000
  H   H6        1.0  0.7881632873985325  0.19890000313096584  0.9454388039595187  1.0000
  H   H7        1.0  0.7118455539181808  0.6989033477337186  0.44544049829345056  1.0000
  H   H8        1.0  0.21184664693415553  0.8010975935512122  0.054561682082024304  1.0000
  H   H9        1.0  0.48159694882318854  0.24662616091004708  0.6126249979117091  1.0000
  H   H10       1.0  0.9815991350118407  0.25337343868650924  0.8873753471172492  1.0000
  H   H11       1.0  0.5184101908780717  0.7533832367425788  0.38737796127838214  1.0000
  H   H12       1.0  0.0184080047008237  0.746620210323897  0.1126233508550456  1.0000
  H   H13       1.0  0.6683481111348183  0.4907536231585539  0.5550673074307397  1.0000
  H   H14       1.0  0.16835018626114354  0.009247117527898804  0.944932307979876  1.0000
  H   H15       1.0  0.33165902857243873  0.5092531343048918  0.4449338814986774  1.0000
  H   H16       1.0  0.8316583507669433  0.9907478305563233  0.0550658295886066  1.0000
  H   H17       1.0  0.6000714228400311  0.32453912461905793  0.48721384355960146  1.0000
  H   H18       1.0  0.10007136068087155  0.17546101637382353  0.0127854192952341  1.0000
  H   H19       1.0  0.3999301276174022  0.6754650094707628  0.5127867315393786  1.0000
  H   H20       1.0  0.8999343817170666  0.8245339485266215  0.9872138747016662  1.0000
  H   H21       1.0  0.8136233362413278  0.2954386834266245  0.6927696072653902  1.0000
  H   H22       1.0  0.3136238086749683  0.2045699883362673  0.8072310817545657  1.0000
  H   H23       1.0  0.18637122764756237  0.7045576141783985  0.30723143918909557  1.0000
  H   H24       1.0  0.6863651659724608  0.7954380513794562  0.1927683903572088  1.0000
  H   H25       1.0  0.6831506792088217  0.46448670423870914  0.698653770551033  1.0000
  H   H26       1.0  0.18315667721282836  0.035521888408425205  0.801345932392195  1.0000
  H   H27       1.0  0.31684667930904437  0.5355135074043248  0.3013467511195032  1.0000
  H   H28       1.0  0.8168378866897115  0.964483519527896  0.1986523476685562  1.0000
  C   C1        1.0  0.31823627621723455  0.5528718125068366  0.8523650604840753  1.0000
  C   C2        1.0  0.8182292645432695  0.9471297214432112  0.6476356880498457  1.0000
  C   C3        1.0  0.6817638769371255  0.4471270496127319  0.147632552307762  1.0000
  C   C4        1.0  0.18176669665587034  0.05286527708865659  0.3523659188066262  1.0000
  C   C5        1.0  0.4214401094864896  0.5278993528868057  0.9266643071362494  1.0000
  C   C6        1.0  0.9214364836115789  0.9720982910808191  0.5733350967881492  1.0000
  C   C7        1.0  0.5785642356037923  0.4720982101602759  0.073333866055755  1.0000
  C   C8        1.0  0.0785636695327767  0.0278966822267321  0.4266647754256994  1.0000
  C   C9        1.0  0.3099007548856675  0.478322991833437  0.9883370069126443  1.0000
  C   C10       1.0  0.8099001099249462  0.021677808034773705  0.5116618454662358  1.0000
  C   C11       1.0  0.6901021928958926  0.521673246914503  0.0116599920432918  1.0000
  C   C12       1.0  0.19010004321494015  0.9783171820896545  0.48833918317420455  1.0000
  C   C13       1.0  0.6146227621834369  0.5497855237309538  0.9385711128599966  1.0000
  C   C14       1.0  0.11462389838889209  0.9502080512879163  0.5614286382305238  1.0000
  C   C15       1.0  0.38537739096574336  0.450210740241637  0.061427620737646293  1.0000
  C   C16       1.0  0.8853776520698343  0.04978429864766551  0.4385706201483259  1.0000
  C   C17       1.0  0.7450020900804615  0.5953459433510773  0.8754493217514394  1.0000
  C   C18       1.0  0.24500410563567238  0.9046503088874901  0.6245502947276762  1.0000
  C   C19       1.0  0.25499247381666373  0.40464770565633057  0.12454937622906928  1.0000
  C   C20       1.0  0.7549932528766586  0.0953459971266355  0.3754513299382722  1.0000
  C   C21       1.0  0.34914142030328316  0.48483326614187666  0.6461374357480665  1.0000
  C   C22       1.0  0.8491451092628706  0.015162339353807402  0.8538624505778785  1.0000
  C   C23       1.0  0.6508573355374166  0.5151708343135156  0.353860826499556  1.0000
  C   C24       1.0  0.15085224924428786  0.9848313685133478  0.1461402948938826  1.0000
  C   C25       1.0  0.4129485140152766  0.35502946920687606  0.5835381991688564  1.0000
  C   C26       1.0  0.9129476104189604  0.1449701060180146  0.9164628137072199  1.0000
  C   C27       1.0  0.587057228376558  0.6449759891827541  0.41646355016438014  1.0000
  C   C28       1.0  0.08705533734883629  0.8550248756986393  0.08353763671809841  1.0000
  C   C29       1.0  0.5469287102762265  0.43222727509464687  0.5248194836949338  1.0000
  C   C30       1.0  0.04692919180252628  0.06777210013220981  0.9751802724392888  1.0000
  C   C31       1.0  0.4530742374899288  0.5677781832943156  0.4751822656401218  1.0000
  C   C32       1.0  0.9530765505969468  0.932220241395939  0.024818407723529404  1.0000
  O   O1        1.0  0.2962608838733231  0.708835616510811  0.8274889182617288  1.0000
  O   O2        1.0  0.7962521815902759  0.7911737518372349  0.6725119658281358  1.0000
  O   O3        1.0  0.7037238988315904  0.29116589420270605  0.17251104301411152  1.0000
  O   O4        1.0  0.20373399842524256  0.20882776728505806  0.3274885736600979  1.0000
  O   O5        1.0  0.8114029813324561  0.42014531798002974  0.7095919921043006  1.0000
  O   O6        1.0  0.3114090926518357  0.07986460975528334  0.7904052483416281  1.0000
  O   O7        1.0  0.18859018524430834  0.5798535945885206  0.290409089971881  1.0000
  O   O8        1.0  0.6885854712488211  0.9201421140714031  0.2095936277428123  1.0000
  O   O9        1.0  0.23489084028959434  0.4249193810089622  0.8202650374852709  1.0000
  O   O10       1.0  0.734881942486524  0.0750879288584159  0.6797345801020143  1.0000
  O   O11       1.0  0.7651190940535597  0.5750755586671589  0.1797325218689991  1.0000
  O   O12       1.0  0.2651182106606598  0.9249175043045528  0.3202654345949796  1.0000
  O   O13       1.0  0.6805834378194359  0.6519672097880617  0.8119112133569715  1.0000
  O   O14       1.0  0.1805933089338367  0.8480289528336444  0.6880844397330677  1.0000
  O   O15       1.0  0.3194083314642526  0.34803031962226066  0.1880846469900561  1.0000
  O   O16       1.0  0.8194096388370153  0.151960782138417  0.3119147830240863  1.0000
  O   O17       1.0  0.9194300106543308  0.574861626456773  0.8836173509651388  1.0000
  O   O18       1.0  0.41943070534423993  0.9251425791870319  0.6163838792728029  1.0000
  O   O19       1.0  0.0805715398129792  0.4251293823631173  0.116379576750127  1.0000
  O   O20       1.0  0.580569447790239  0.07486551939044263  0.3836196403247527  1.0000
  O   O21       1.0  0.17551407340553027  0.49801820073317066  0.6597336695420992  1.0000
  O   O22       1.0  0.6755066805583921  0.001985217195688403  0.8402700196322216  1.0000
  O   O23       1.0  0.824487477052969  0.5019898558024352  0.3402669589880674  1.0000
  O   O24       1.0  0.32448648599896757  0.9980163860126723  0.15973630198441668  1.0000
  O   O25       1.0  0.4748281981313481  0.5740842991918454  0.6831975576482066  1.0000
  O   O26       1.0  0.9748212608030966  0.925913387084478  0.8168029329980301  1.0000
  O   O27       1.0  0.5251761469495264  0.425919843307078  0.31680359566225036  1.0000
  O   O28       1.0  0.0251719057748403  0.07408159462984541  0.18319751743366908  1.0000
