data_image0
_chemical_formula_structural       Zn2H16C20N4Cl4
_chemical_formula_sum              "Zn2 H16 C20 N4 Cl4"
_cell_length_a       3.6310968830548425
_cell_length_b       11.390454285239539
_cell_length_c       11.742206267123793
_cell_angle_alpha    89.99951874730219
_cell_angle_beta     89.99979841568842
_cell_angle_gamma    90.00058340861881

_space_group_name_H-M_alt    "P 1"
_space_group_IT_number       1

loop_
  _space_group_symop_operation_xyz
  'x, y, z'

loop_
  _atom_site_type_symbol
  _atom_site_label
  _atom_site_symmetry_multiplicity
  _atom_site_fract_x
  _atom_site_fract_y
  _atom_site_fract_z
  _atom_site_occupancy
  Zn  Zn1       1.0  0.5000021549866034  0.7499992681420767  0.7499996993556122  1.0000
  Zn  Zn2       1.0  0.4999918244984444  0.24999943365562421  0.25000029281782327  1.0000
  H   H1        1.0  0.6803499515876086  0.3345296345750485  0.5740241409624359  1.0000
  H   H2        1.0  0.6803397411623423  0.16547163489494213  0.9259757218737686  1.0000
  H   H3        1.0  0.31961059856769236  0.16546817309716036  0.574025016395069  1.0000
  H   H4        1.0  0.319591872908262  0.3345283821820786  0.9259760762763349  1.0000
  H   H5        1.0  0.31965504392571376  0.6654734568852662  0.42597499955870427  1.0000
  H   H6        1.0  0.31964597635642633  0.8345270668889884  0.07402427030400097  1.0000
  H   H7        1.0  0.680402658835071  0.834529650811966  0.4259732725144047  1.0000
  H   H8        1.0  0.6804021065207877  0.6654676858201969  0.07402647079393887  1.0000
  H   H9        1.0  0.6728459229859851  0.5529905820198737  0.5825642423602203  1.0000
  H   H10       1.0  0.6728390560745582  0.9470085303967722  0.9174349751506481  1.0000
  H   H11       1.0  0.3271631153324677  0.9470050194820986  0.5825645272308291  1.0000
  H   H12       1.0  0.32714124763066377  0.5529938185544482  0.9174376075734328  1.0000
  H   H13       1.0  0.32715081052154465  0.447008997725334  0.4174323432933632  1.0000
  H   H14       1.0  0.32713289150760977  0.052991927205631804  0.08256842354205667  1.0000
  H   H15       1.0  0.6728336180716993  0.052990170596658  0.4174380198415618  1.0000
  H   H16       1.0  0.6728554858876734  0.4470083949528886  0.08256408784173168  1.0000
  C   C1        1.0  0.5957917045426626  0.3786020229146275  0.6522307742512793  1.0000
  C   C2        1.0  0.5957810464283214  0.12139457507640121  0.8477640674789129  1.0000
  C   C3        1.0  0.4041651693422638  0.12139159349804635  0.652231918898394  1.0000
  C   C4        1.0  0.40415424405837547  0.3786157787939219  0.8477656785669578  1.0000
  C   C5        1.0  0.4042215528320484  0.6213914113835415  0.34776070164632233  1.0000
  C   C6        1.0  0.4042101791720968  0.8786111501378928  0.15223677629617777  1.0000
  C   C7        1.0  0.5958453341421334  0.8786123758847569  0.34777062813114407  1.0000
  C   C8        1.0  0.5958452435707501  0.6213917023162666  0.15222920379568447  1.0000
  C   C9        1.0  0.5934637013341091  0.5004742266237373  0.6560873071422222  1.0000
  C   C10       1.0  0.5934758577592307  0.9995307667222737  0.8439102902981259  1.0000
  C   C11       1.0  0.406511422157081  0.9995233697567302  0.6560887856564148  1.0000
  C   C12       1.0  0.4065108209366386  0.5004722210962741  0.8439132659647011  1.0000
  C   C13       1.0  0.40652477021216543  0.49952535311139473  0.34390842688698336  1.0000
  C   C14       1.0  0.40652362979741963  0.0004749584983870002  0.15609225673005508  1.0000
  C   C15       1.0  0.5934825572791738  0.00047445408696230007  0.34391716792157456  1.0000
  C   C16       1.0  0.5935051904835903  0.49952648075665024  0.15608246805363274  1.0000
  C   C17       1.0  0.49995958954211533  0.31479011171229143  0.7499980596878114  1.0000
  C   C18       1.0  0.4999685917182291  0.18521406819559877  0.7500036954970566  1.0000
  C   C19       1.0  0.5000536679503683  0.685211223935177  0.24999426780642148  1.0000
  C   C20       1.0  0.500050173731026  0.8147907791179848  0.2500014064107177  1.0000
  N   N1        1.0  0.499990959481707  0.5612403348576935  0.7500047238123386  1.0000
  N   N2        1.0  0.4999968264979274  0.9387555675997991  0.749998081433091  1.0000
  N   N3        1.0  0.5000112819609939  0.43875748902937084  0.24999441673162434  1.0000
  N   N4        1.0  0.49999715285286334  0.06123611075452831  0.25000616891242083  1.0000
  Cl  Cl1       1.0  5.355620189100001e-06  0.7499973243625464  0.6014444038035903  1.0000
  Cl  Cl2       1.0  8.499318226999992e-07  0.7500013011273836  0.8985538158263322  1.0000
  Cl  Cl3       1.0  0.999994131869663  0.2500031333005595  0.3985555883598407  1.0000
  Cl  Cl4       1.0  0.9999931295445992  0.24999652274591003  0.10144532472195777  1.0000
