data_image0
_chemical_formula_structural       Ni2H60C56N4O16
_chemical_formula_sum              "Ni2 H60 C56 N4 O16"
_cell_length_a       10.320546884869444
_cell_length_b       10.980387545679893
_cell_length_c       12.821395764253062
_cell_angle_alpha    111.8087214886312
_cell_angle_beta     90.00117158135048
_cell_angle_gamma    90.00041147670541

_space_group_name_H-M_alt    "P 1"
_space_group_IT_number       1

loop_
  _space_group_symop_operation_xyz
  'x, y, z'

loop_
  _atom_site_type_symbol
  _atom_site_label
  _atom_site_symmetry_multiplicity
  _atom_site_fract_x
  _atom_site_fract_y
  _atom_site_fract_z
  _atom_site_occupancy
  Ni  Ni1       1.0  0.9999984218135011  0.49999836705264034  0.9999947815259628  1.0000
  Ni  Ni2       1.0  0.5000020493202372  0.9999979697890847  0.5000014103519062  1.0000
  H   H1        1.0  0.15721563593948673  0.1436211855361051  0.12002971815778807  1.0000
  H   H2        1.0  0.6572145641840095  0.3563827189175441  0.3799776640961595  1.0000
  H   H3        1.0  0.8427759576810702  0.8563796585991098  0.8799667253165279  1.0000
  H   H4        1.0  0.3427876879913185  0.6436189813674388  0.6200346554353329  1.0000
  H   H5        1.0  0.8495679235532734  0.036133746464805896  0.8711116533876789  1.0000
  H   H6        1.0  0.34957842695426683  0.46386197976156746  0.6288910739220269  1.0000
  H   H7        1.0  0.1504207632488175  0.9638651233633624  0.12888571184306832  1.0000
  H   H8        1.0  0.6504160736044967  0.5361309048448674  0.3711168361807679  1.0000
  H   H9        1.0  0.8570665010282783  0.2611089443138538  0.8759435944423968  1.0000
  H   H10       1.0  0.35707130297975453  0.23888205493705064  0.6240507081142466  1.0000
  H   H11       1.0  0.1429289682503168  0.7388860519040319  0.12404627910252218  1.0000
  H   H12       1.0  0.6429328869507175  0.7611098675733459  0.37595455120890603  1.0000
  H   H13       1.0  0.15187944474289594  0.36455254765958495  0.11209060574394406  1.0000
  H   H14       1.0  0.6518856228659049  0.13545226384908202  0.387915422421507  1.0000
  H   H15       1.0  0.8481121488656882  0.63544928985921  0.8879045988918717  1.0000
  H   H16       1.0  0.3481224429273837  0.8645484680666651  0.6120950242330279  1.0000
  H   H17       1.0  0.12864921661933693  0.5727355051661931  0.670658027925725  1.0000
  H   H18       1.0  0.6286454575237458  0.927264528998293  0.8293457557132909  1.0000
  H   H19       1.0  0.871354973311057  0.4272702186033826  0.32934311271619515  1.0000
  H   H20       1.0  0.37135485667968743  0.0727332851221831  0.17066062792727615  1.0000
  H   H21       1.0  0.7166619995214774  0.5776811181515455  0.6195484287720986  1.0000
  H   H22       1.0  0.21665726126463622  0.9223204094981697  0.8804486996409079  1.0000
  H   H23       1.0  0.28334219038146813  0.4223236372017353  0.3804508389300451  1.0000
  H   H24       1.0  0.7833401460407501  0.07768040971681962  0.11955085567450398  1.0000
  H   H25       1.0  0.1429721788474723  0.8022601560980362  0.6846844828584222  1.0000
  H   H26       1.0  0.6429605126195527  0.6977400849086379  0.8153227220281989  1.0000
  H   H27       1.0  0.8570320110730665  0.19774557391335884  0.3153158798389341  1.0000
  H   H28       1.0  0.35703495689909204  0.30225771668897755  0.18468521744915017  1.0000
  H   H29       1.0  0.9292294765222524  0.18485384219163586  0.5276529838976174  1.0000
  H   H30       1.0  0.42923595056466013  0.315148159281101  0.9723429370263756  1.0000
  H   H31       1.0  0.0707669617633897  0.8151470269500793  0.4723403478507746  1.0000
  H   H32       1.0  0.5707604877639058  0.6848556400767905  0.027652901763083427  1.0000
  H   H33       1.0  0.8833811245683164  0.21596944800138113  0.6704703914976304  1.0000
  H   H34       1.0  0.3833837355717691  0.28403182992963144  0.8295222046541681  1.0000
  H   H35       1.0  0.1166201584239488  0.7840304340377953  0.3295234011970363  1.0000
  H   H36       1.0  0.6166175473839175  0.715962160468095  0.17047046368120522  1.0000
  H   H37       1.0  0.0428143284671307  0.1559647274463742  0.6194691431667108  1.0000
  H   H38       1.0  0.5428189909714335  0.3440319493278423  0.880524966953892  1.0000
  H   H39       1.0  0.9571869544561411  0.8440351982855603  0.3805192039159805  1.0000
  H   H40       1.0  0.457180354137641  0.6559639903704237  0.1194698913509668  1.0000
  H   H41       1.0  0.08828226271214133  0.3628810508269141  0.5879233540704687  1.0000
  H   H42       1.0  0.588286160303312  0.1371203230691691  0.9120683392520161  1.0000
  H   H43       1.0  0.911718051280083  0.6371188686553493  0.41206577094632707  1.0000
  H   H44       1.0  0.41171124708655077  0.8628824142529367  0.0879372957766548  1.0000
  H   H45       1.0  0.9447942184059884  0.9227143414758032  0.663681557646555  1.0000
  H   H46       1.0  0.4447809030693363  0.5772888738292252  0.8363253126882595  1.0000
  H   H47       1.0  0.05521094043785271  0.07729041388532919  0.33631771006605493  1.0000
  H   H48       1.0  0.5552145664802667  0.4227128513681393  0.16368389499167074  1.0000
  H   H49       1.0  0.731890911330872  0.8100572329264537  0.6319250184120333  1.0000
  H   H50       1.0  0.23188022415451567  0.6899454971476048  0.8680758679002023  1.0000
  H   H51       1.0  0.2681132785974043  0.1899494779848894  0.36807566133595765  1.0000
  H   H52       1.0  0.7681162142867066  0.31005625926672314  0.13192945006735354  1.0000
  H   H53       1.0  0.3204432638192857  0.46715195023907075  0.011306253801691821  1.0000
  H   H54       1.0  0.8204463804382061  0.0328468119484526  0.4886943404010962  1.0000
  H   H55       1.0  0.6795560813031473  0.5328469384008372  0.9886887777105284  1.0000
  H   H56       1.0  0.1795578095534438  0.9671578872284314  0.5113119288021577  1.0000
  H   H57       1.0  0.2430781489947691  0.4915614579916153  0.9173388548867578  1.0000
  H   H58       1.0  0.7430727056542565  0.008437517309509701  0.582654598605103  1.0000
  H   H59       1.0  0.7569241028645166  0.5084315702394805  0.08265116257474142  1.0000
  H   H60       1.0  0.25692954643025695  0.9915652262936305  0.4173502585313569  1.0000
  C   C1        1.0  0.08943078389820872  0.16244820473514213  0.06296878241422377  1.0000
  C   C2        1.0  0.5894339257488285  0.3375536214881976  0.43703681783561865  1.0000
  C   C3        1.0  0.9105598407913009  0.8375526331504017  0.9370284389941828  1.0000
  C   C4        1.0  0.4105683263856933  0.6624441614388558  0.5629734555487287  1.0000
  C   C5        1.0  0.9197696191004708  0.1029956371446303  0.9266457232065335  1.0000
  C   C6        1.0  0.4197782058700881  0.39699928248241884  0.5733555533804588  1.0000
  C   C7        1.0  0.08022197453979632  0.8970051945069387  0.07335227615691757  1.0000
  C   C8        1.0  0.5802211393537533  0.6029936271305233  0.4266492449964189  1.0000
  C   C9        1.0  0.9232166270193858  0.2297187249629786  0.9270827963775046  1.0000
  C   C10       1.0  0.4232232745482989  0.2702743011355225  0.5729163646965103  1.0000
  C   C11       1.0  0.07677593548717002  0.7702801823474914  0.07290990122771737  1.0000
  C   C12       1.0  0.5767760707072257  0.7297176026101937  0.42709122840799535  1.0000
  C   C13       1.0  0.0650475745286911  0.4123379514399444  0.7663008373102682  1.0000
  C   C14       1.0  0.565037846658882  0.08766302123373039  0.733693465483931  1.0000
  C   C15       1.0  0.9349546773474559  0.5876609809162474  0.23368874862138955  1.0000
  C   C16       1.0  0.4349634364657433  0.9123348053782294  0.2663113622779674  1.0000
  C   C17       1.0  0.08821712676209612  0.28718300068221936  0.05932742032648966  1.0000
  C   C18       1.0  0.5882223238106263  0.21281781876817973  0.4406786146093466  1.0000
  C   C19       1.0  0.9117754357564324  0.7128149132446707  0.9406665161172254  1.0000
  C   C20       1.0  0.41178089729012873  0.7871819197247659  0.5593330708313288  1.0000
  C   C21       1.0  0.9207134348709334  0.5602698816172875  0.6430882679997652  1.0000
  C   C22       1.0  0.420709199487085  0.9397320067118499  0.8569123193250119  1.0000
  C   C23       1.0  0.0792936618427404  0.4397358671431066  0.3569097608952915  1.0000
  C   C24       1.0  0.5792920836354227  0.060266807041877306  0.14309204754296448  1.0000
  C   C25       1.0  0.0024691787044162  0.0664243569388958  0.9970410881723024  1.0000
  C   C26       1.0  0.5024746183728014  0.4335745282527768  0.5029632144291297  1.0000
  C   C27       1.0  0.9975195080645991  0.9335715764312766  0.002954547961948521  1.0000
  C   C28       1.0  0.4975218201240495  0.5664242355271581  0.4970473759430404  1.0000
  C   C29       1.0  0.0413777530425605  0.623416940950257  0.6614185878074605  1.0000
  C   C30       1.0  0.5413738450226547  0.8765836296973147  0.838585499667303  1.0000
  C   C31       1.0  0.9586274058012807  0.3765878144108754  0.33858067990514934  1.0000
  C   C32       1.0  0.458627438147019  0.1234161399890539  0.16142229602959188  1.0000
  C   C33       1.0  0.8093047448205368  0.6286691636090962  0.6333186119193995  1.0000
  C   C34       1.0  0.30929927091469284  0.8713328766801639  0.8666809796193815  1.0000
  C   C35       1.0  0.19069944508028414  0.3713365788859448  0.3666801948888149  1.0000
  C   C36       1.0  0.6907000743217752  0.12866791134139535  0.1333224654398109  1.0000
  C   C37       1.0  0.048811092458471705  0.7537216873606738  0.6693419848133215  1.0000
  C   C38       1.0  0.5487992143508436  0.7462789910765723  0.8306638191173759  1.0000
  C   C39       1.0  0.9511969732277881  0.24628305554033145  0.33065883881983626  1.0000
  C   C40       1.0  0.4511981930629575  0.2537217594783669  0.16934429358828135  1.0000
  C   C41       1.0  0.9629750535986548  0.21963080385420847  0.615027675694577  1.0000
  C   C42       1.0  0.462974200403835  0.28036783274802696  0.8849661503842582  1.0000
  C   C43       1.0  0.037026229371775805  0.7803700778103746  0.3849641002170328  1.0000
  C   C44       1.0  0.5370241757741923  0.7196281007005753  0.11502948585469838  1.0000
  C   C45       1.0  0.0106582188296471  0.3592392520996839  0.6455882796024638  1.0000
  C   C46       1.0  0.5106577725023912  0.14075986548532882  0.8544037528077764  1.0000
  C   C47       1.0  0.9893440331091342  0.6407625979890312  0.35440536925939614  1.0000
  C   C48       1.0  0.489342541629938  0.8592389794696582  0.14559672432689283  1.0000
  C   C49       1.0  0.9385983694669309  0.821813820133407  0.6590390118694031  1.0000
  C   C50       1.0  0.4385849668016136  0.678188320208605  0.8409666295615776  1.0000
  C   C51       1.0  0.0614077583058403  0.1781919286191425  0.34095901701518727  1.0000
  C   C52       1.0  0.5614124406297876  0.32181340500444827  0.1590425781392922  1.0000
  C   C53       1.0  0.8184879815043903  0.7580378316841702  0.6407335500537668  1.0000
  C   C54       1.0  0.3184774643612941  0.7419653131637249  0.8592696687319755  1.0000
  C   C55       1.0  0.18151814627823631  0.24196791082655986  0.35926525677538723  1.0000
  C   C56       1.0  0.6815199430229485  0.25803545611668  0.14073611013997575  1.0000
  N   N1        1.0  0.0055338880712625  0.32124709752512365  0.993408163099559  1.0000
  N   N2        1.0  0.5055374912254537  0.1787528493751083  0.5065926330458124  1.0000
  N   N3        1.0  0.9944635191813447  0.6787507977155087  0.006588107230214693  1.0000
  N   N4        1.0  0.49446766763745126  0.8212430217101739  0.4934107827121179  1.0000
  O   O1        1.0  0.9755943709941733  0.4383137032232228  0.8417459276769959  1.0000
  O   O2        1.0  0.47558319723726333  0.0616821948889523  0.6582472198731749  1.0000
  O   O3        1.0  0.024408849840469305  0.5616862037989279  0.15824475326034804  1.0000
  O   O4        1.0  0.5244200237339812  0.9383136824224678  0.3417554179192449  1.0000
  O   O5        1.0  0.9007226179629697  0.4336925335846402  0.6337855393238383  1.0000
  O   O6        1.0  0.40072160606128904  0.06630897512275168  0.8662136551380966  1.0000
  O   O7        1.0  0.09927672717633132  0.5663122591803642  0.36620906065854075  1.0000
  O   O8        1.0  0.5992758012779051  0.9336898510832441  0.1337891557988655  1.0000
  O   O9        1.0  0.18517321821164504  0.42248922681380924  0.7811107989522126  1.0000
  O   O10       1.0  0.6851601304876028  0.0775107790480547  0.7188812591443962  1.0000
  O   O11       1.0  0.8148300025667153  0.57750480105053  0.2188772017366957  1.0000
  O   O12       1.0  0.3148421215512016  0.9224811496884795  0.28112322221324576  1.0000
  O   O13       1.0  0.274131936449578  0.5358209381862976  0.9962342858581504  1.0000
  O   O14       1.0  0.7741415039438168  0.9641746224475298  0.5037657551458422  1.0000
  O   O15       1.0  0.7258654707382706  0.46417502646357167  0.0037574606474989375  1.0000
  O   O16       1.0  0.22585493446922558  0.0358310950174783  0.4962361633568832  1.0000
