data_image0
_chemical_formula_structural       Cd2H28C36N8Cl4
_chemical_formula_sum              "Cd2 H28 C36 N8 Cl4"
_cell_length_a       6.738305984985477
_cell_length_b       9.741606938014545
_cell_length_c       12.864641688953302
_cell_angle_alpha    101.44135180130915
_cell_angle_beta     93.52431544542482
_cell_angle_gamma    98.36759090983061

_space_group_name_H-M_alt    "P 1"
_space_group_IT_number       1

loop_
  _space_group_symop_operation_xyz
  'x, y, z'

loop_
  _atom_site_type_symbol
  _atom_site_label
  _atom_site_symmetry_multiplicity
  _atom_site_fract_x
  _atom_site_fract_y
  _atom_site_fract_z
  _atom_site_occupancy
  Cd  Cd1       1.0  0.2606025885368197  0.018470612243774588  0.574140284107429  1.0000
  Cd  Cd2       1.0  0.7393858729120172  0.9815285792153005  0.42586029966706473  1.0000
  H   H1        1.0  0.9099971624389058  0.21405321695507942  0.667542916695119  1.0000
  H   H2        1.0  0.0900091037070325  0.785945994471703  0.33246218254122795  1.0000
  H   H3        1.0  0.8465182070450582  0.23630637926387973  0.2923774249239202  1.0000
  H   H4        1.0  0.1534687535339714  0.7636927868313135  0.7076238795057891  1.0000
  H   H5        1.0  0.012435649975650196  0.3508260353286659  0.23647135118971369  1.0000
  H   H6        1.0  0.9875603361424724  0.6491668081644233  0.7635300290155342  1.0000
  H   H7        1.0  0.8642923820913352  0.853707629800027  0.8011231366159848  1.0000
  H   H8        1.0  0.13570583306898953  0.14628847240224724  0.19887573706623843  1.0000
  H   H9        1.0  0.09697872846669497  0.42311057999593504  0.9958267074150202  1.0000
  H   H10       1.0  0.9030273878896793  0.5768811792397628  0.004178740938201023  1.0000
  H   H11       1.0  0.8510900350651767  0.3854491142511022  0.8315485450634696  1.0000
  H   H12       1.0  0.14890759782777951  0.614544698552862  0.16845771370287824  1.0000
  H   H13       1.0  0.6047017807189833  0.8379897902330169  0.6491974944508245  1.0000
  H   H14       1.0  0.39529644654373197  0.16200632869860235  0.3508006049182057  1.0000
  H   H15       1.0  0.8528414135507064  0.0331363690542403  0.9718061697201537  1.0000
  H   H16       1.0  0.14716278088407359  0.9668598011448849  0.028191369967629526  1.0000
  H   H17       1.0  0.5742023474206307  0.6116214346214547  0.2760473534022055  1.0000
  H   H18       1.0  0.42579943598733655  0.3883907339312244  0.7239472368201731  1.0000
  H   H19       1.0  0.35889590892892204  0.49996010290808346  0.2961888708334045  1.0000
  H   H20       1.0  0.641113087694393  0.5000510477648561  0.703805808654984  1.0000
  H   H21       1.0  0.6349432904286305  0.5640718126495443  0.4505135768477048  1.0000
  H   H22       1.0  0.3650614342070071  0.4359403229841659  0.5494834436302442  1.0000
  H   H23       1.0  0.5590352725022997  0.3794733382821532  0.4063867720024845  1.0000
  H   H24       1.0  0.4409580395446255  0.6205409005681374  0.5936078543198279  1.0000
  H   H25       1.0  0.9288127337019816  0.43239488440338647  0.4332528648496706  1.0000
  H   H26       1.0  0.0711808859143446  0.5676075161165527  0.566748416970583  1.0000
  H   H27       1.0  0.9349395994660624  0.5587907204120269  0.352354908878347  1.0000
  H   H28       1.0  0.065069995860334  0.4412097366297231  0.6476427335659167  1.0000
  C   C1        1.0  0.4524934921007572  0.08941641781481739  0.8205447280292121  1.0000
  C   C2        1.0  0.5475059448980772  0.9105785817815356  0.1794563432266685  1.0000
  C   C3        1.0  0.2924379081213927  0.175638641967616  0.825176133622584  1.0000
  C   C4        1.0  0.7075615167750586  0.8243563408993848  0.1748257119464967  1.0000
  C   C5        1.0  0.5820913123137572  0.21300556759705808  0.005001433106045299  1.0000
  C   C6        1.0  0.41791054804185995  0.7869937015728465  0.9949996335903395  1.0000
  C   C7        1.0  0.5944444215838872  0.10746318515093375  0.9096414695955349  1.0000
  C   C8        1.0  0.4055522927066235  0.8925328916874589  0.09035812474190416  1.0000
  C   C9        1.0  0.27499801119304124  0.2735221407408232  0.9202880169875202  1.0000
  C   C10       1.0  0.7250076357019921  0.7264739879047892  0.07971189929784833  1.0000
  C   C11       1.0  0.010737912961459989  0.23211515214634904  0.7404712427002594  1.0000
  C   C12       1.0  0.9892675804870668  0.767887267261841  0.25953279132348683  1.0000
  C   C13       1.0  0.8633112770160096  0.3389975395610491  0.26734488348134994  1.0000
  C   C14       1.0  0.13668084173050937  0.6610048355950082  0.7326571189941051  1.0000
  C   C15       1.0  0.7492324583137987  0.9218125989802101  0.8098857002263957  1.0000
  C   C16       1.0  0.25076801831135503  0.0781803038751931  0.19011429232641325  1.0000
  C   C17       1.0  0.11247307987217428  0.3494973965827625  0.922343171972301  1.0000
  C   C18       1.0  0.8875227527994413  0.6505017376729114  0.07766232597132476  1.0000
  C   C19       1.0  0.9785129437640309  0.3281009890247403  0.832567039884211  1.0000
  C   C20       1.0  0.02148783221266365  0.6718865670150647  0.1674344341465357  1.0000
  C   C21       1.0  0.5420621890026284  0.40191686513648506  0.18410860055453784  1.0000
  C   C22       1.0  0.4579426648747501  0.5980889462759506  0.8158858508114264  1.0000
  C   C23       1.0  0.7066464423276672  0.32408817255819133  0.17610370690379543  1.0000
  C   C24       1.0  0.2933578413847329  0.6759153661852789  0.8238973552331005  1.0000
  C   C25       1.0  0.6033090158287422  0.9117351756915895  0.724751487960994  1.0000
  C   C26       1.0  0.3966866830402225  0.08826303134645028  0.2752476364531162  1.0000
  C   C27       1.0  0.7441694456666568  0.020029453097585283  0.902904349197215  1.0000
  C   C28       1.0  0.25583172282372857  0.9799666329150651  0.09709618042738552  1.0000
  C   C29       1.0  0.42284717421060963  0.29331350775252923  0.011401609189036297  1.0000
  C   C30       1.0  0.5771581733328901  0.7066879677086814  0.9885968256183875  1.0000
  C   C31       1.0  0.5200524469721444  0.5028725696685753  0.28563292793564443  1.0000
  C   C32       1.0  0.47995060668388595  0.49713856319556976  0.7143607626075977  1.0000
  C   C33       1.0  0.6357485914578974  0.475060405718345  0.3833381280971366  1.0000
  C   C34       1.0  0.3642514483561285  0.5249506596886844  0.6166577780697226  1.0000
  C   C35       1.0  0.8523502996390278  0.4575372929051156  0.363300880226234  1.0000
  C   C36       1.0  0.1476482717278245  0.5424672890819693  0.6366993719894367  1.0000
  N   N1        1.0  0.459579540594106  0.9925689770575228  0.7300839222377962  1.0000
  N   N2        1.0  0.5404184197397016  0.007426030633638399  0.2699163210468996  1.0000
  N   N3        1.0  0.16332939014355935  0.15878573800355156  0.7370537667831131  1.0000
  N   N4        1.0  0.8366750673355979  0.8412050351919259  0.2629475773222012  1.0000
  N   N5        1.0  0.7236448831143748  0.23099042708689396  0.08741009536225873  1.0000
  N   N6        1.0  0.27635796845800803  0.7690066784246736  0.9125929898838552  1.0000
  N   N7        1.0  0.40486898237604413  0.3870063017027403  0.10164624348350064  1.0000
  N   N8        1.0  0.5951398765601041  0.6129974135084665  0.8983480108085687  1.0000
  Cl  Cl1       1.0  0.9271266994409118  0.8385691356466578  0.5446375849456544  1.0000
  Cl  Cl2       1.0  0.07286255891011002  0.1614268812897066  0.4553625154150396  1.0000
  Cl  Cl3       1.0  0.40873283950001144  0.8134643103831249  0.4505877850937524  1.0000
  Cl  Cl4       1.0  0.5912590244199906  0.18653697026181956  0.5494155869841749  1.0000
