data_image0
_chemical_formula_structural       Zn4H66C66N4Cl2O16
_chemical_formula_sum              "Zn4 H66 C66 N4 Cl2 O16"
_cell_length_a       10.036890207600393
_cell_length_b       10.98162683383421
_cell_length_c       26.08603377908325
_cell_angle_alpha    90.14650044244976
_cell_angle_beta     90.57085040636461
_cell_angle_gamma    89.84022589768941

_space_group_name_H-M_alt    "P 1"
_space_group_IT_number       1

loop_
  _space_group_symop_operation_xyz
  'x, y, z'

loop_
  _atom_site_type_symbol
  _atom_site_label
  _atom_site_symmetry_multiplicity
  _atom_site_fract_x
  _atom_site_fract_y
  _atom_site_fract_z
  _atom_site_occupancy
  Zn  Zn1       1.0  0.6642850982067685  0.4872511239223201  0.4987886229040157  1.0000
  Zn  Zn2       1.0  0.36698655907015626  0.4866338250381759  0.4968876181030311  1.0000
  Zn  Zn3       1.0  0.3357278105716048  0.48838418126945976  0.08330118803330323  1.0000
  Zn  Zn4       1.0  0.632866640644771  0.48711347289068385  0.0833733301690103  1.0000
  H   H1        1.0  0.7156809790731061  0.5415648063642209  0.6674140246903093  1.0000
  H   H2        1.0  0.28576780011029973  0.545909246317258  0.9141489804256723  1.0000
  H   H3        1.0  0.6587013295411381  0.35514768041569067  0.9274303605886021  1.0000
  H   H4        1.0  0.673448722172033  0.34657881055036904  0.8322136952830875  1.0000
  H   H5        1.0  0.33992462733325374  0.3575603555888094  0.6531754458020629  1.0000
  H   H6        1.0  0.32390392880210334  0.3497366416830658  0.748345357769182  1.0000
  H   H7        1.0  0.9128487193607813  0.24766504628320976  0.4255508499764958  1.0000
  H   H8        1.0  0.7643209135343768  0.3316918066767728  0.4363381048537747  1.0000
  H   H9        1.0  0.8739601536266405  0.37562223541043943  0.38681988905096903  1.0000
  H   H10       1.0  0.1015542717829092  0.608060597087423  0.6113243791489182  1.0000
  H   H11       1.0  0.25517963804198734  0.5571559119527763  0.5850277192750896  1.0000
  H   H12       1.0  0.1883643558740218  0.7000905801653872  0.5667545641776287  1.0000
  H   H13       1.0  0.10004818704524612  0.34894817157981345  0.3854523989086118  1.0000
  H   H14       1.0  0.2560328912033256  0.3835255644748017  0.41511293747068834  1.0000
  H   H15       1.0  0.16722039586289844  0.2523473393112781  0.4337949259543592  1.0000
  H   H16       1.0  0.9405570096518904  0.7273784873614274  0.5708424208537934  1.0000
  H   H17       1.0  0.7825542365252007  0.6753901910251585  0.5481483357898825  1.0000
  H   H18       1.0  0.858951419890211  0.6055301708839024  0.6021403401731718  1.0000
  H   H19       1.0  0.4674786641741236  0.11986381983146542  0.6197363848251953  1.0000
  H   H20       1.0  0.3987552050468325  0.22902035132936052  0.576758344691811  1.0000
  H   H21       1.0  0.3030084756446314  0.10250875831281545  0.5963278897816693  1.0000
  H   H22       1.0  0.7103547879093668  0.8782437102379321  0.4043311784390724  1.0000
  H   H23       1.0  0.6199474592539432  0.7488710824658822  0.4234369910659268  1.0000
  H   H24       1.0  0.5478312376308169  0.8548882551911701  0.3798794117568178  1.0000
  H   H25       1.0  0.29677021686642047  0.8839982789031211  0.5967387523907917  1.0000
  H   H26       1.0  0.4226187399927143  0.7710321439944535  0.5918471797713138  1.0000
  H   H27       1.0  0.4532889068937466  0.9081112030956218  0.6261662283596579  1.0000
  H   H28       1.0  0.5571363797846233  0.0673559146244642  0.3733701015745652  1.0000
  H   H29       1.0  0.5855582074601956  0.20470946330654266  0.4077462291176772  1.0000
  H   H30       1.0  0.7127681800907483  0.0929805722802328  0.40341154381021493  1.0000
  H   H31       1.0  0.8040859475469376  0.7014663615596247  0.32902845877997333  1.0000
  H   H32       1.0  0.7713650485226042  0.5923950022939479  0.3773597546847114  1.0000
  H   H33       1.0  0.8402621416753958  0.5468145867164864  0.31750508194934923  1.0000
  H   H34       1.0  0.2004779301961648  0.7038296940612836  0.2537942802646498  1.0000
  H   H35       1.0  0.23447321016659833  0.5989064183783767  0.20360611768216333  1.0000
  H   H36       1.0  0.16456911593360252  0.5483428667696871  0.262254093198635  1.0000
  H   H37       1.0  0.8058967136207047  0.5563288062341626  0.22332359928601164  1.0000
  H   H38       1.0  0.712410785126572  0.6711401648245496  0.1922677791863521  1.0000
  H   H39       1.0  0.7960550917967381  0.7024391865919312  0.251303081799179  1.0000
  H   H40       1.0  0.19699256867360762  0.557916221926888  0.3567321151464427  1.0000
  H   H41       1.0  0.29203016892101635  0.6684075659285611  0.3899405337733057  1.0000
  H   H42       1.0  0.21053238514447511  0.7058571042769798  0.33118192343384584  1.0000
  H   H43       1.0  0.08944099060489213  0.24756852598913776  0.15483799070289456  1.0000
  H   H44       1.0  0.2360667109346367  0.33517802891085313  0.1464492670448507  1.0000
  H   H45       1.0  0.12146015809321403  0.3749414626357606  0.1949764594998129  1.0000
  H   H46       1.0  0.9000958033684939  0.6082179918163675  0.9699603632348897  1.0000
  H   H47       1.0  0.7462079756491705  0.5567249008274827  0.9955291965259719  1.0000
  H   H48       1.0  0.8108607446129953  0.6999195905331064  0.014334200506148401  1.0000
  H   H49       1.0  0.89834590346036  0.34615570402668544  0.19473999660070976  1.0000
  H   H50       1.0  0.7428725670035095  0.38229073078235126  0.1648811114374169  1.0000
  H   H51       1.0  0.8321802364464546  0.2513930223656827  0.14546779185757694  1.0000
  H   H52       1.0  0.05843678555528702  0.728997619788302  0.0118672468969194  1.0000
  H   H53       1.0  0.21636046602230158  0.6774144908416772  0.035091893081912004  1.0000
  H   H54       1.0  0.14260135045886813  0.607978738660904  0.9804218107702741  1.0000
  H   H55       1.0  0.5191132868424404  0.12068174666990221  0.9614497170912202  1.0000
  H   H56       1.0  0.5940013358962375  0.22800403621285875  0.0037623939317726  1.0000
  H   H57       1.0  0.685518779410174  0.0999468417836269  0.9822573423282179  1.0000
  H   H58       1.0  0.29761173717509604  0.880706286230719  0.1802962304677962  1.0000
  H   H59       1.0  0.38925586915023314  0.7517722903117202  0.1608033472810817  1.0000
  H   H60       1.0  0.46255203438664694  0.8606571270888989  0.20286041249489273  1.0000
  H   H61       1.0  0.6936754925382403  0.881368603776963  0.9829110332468718  1.0000
  H   H62       1.0  0.567136770460877  0.7702184676551126  0.9886223682525924  1.0000
  H   H63       1.0  0.535869948292259  0.9078010128457592  0.9548285386143152  1.0000
  H   H64       1.0  0.4528638032018577  0.07348065639911282  0.2086787120069005  1.0000
  H   H65       1.0  0.41814921743154093  0.20872331126296462  0.17388017580592677  1.0000
  H   H66       1.0  0.29376873512160984  0.09583302773880578  0.180918230560394  1.0000
  C   C1        1.0  0.49801594777711233  0.7245088031699678  0.504676255296971  1.0000
  C   C2        1.0  0.5376350760618039  0.46074870481469077  0.5972211963677978  1.0000
  C   C3        1.0  0.5045675802430979  0.2507107169682924  0.4936496331388441  1.0000
  C   C4        1.0  0.5212464283933758  0.5351272294656723  0.39938833724273354  1.0000
  C   C5        1.0  0.4999413117498933  0.7252897966076187  0.0771019729608184  1.0000
  C   C6        1.0  0.46390019873024363  0.4621641069938534  0.9839090506988202  1.0000
  C   C7        1.0  0.491858180167604  0.2516943742429588  0.0873047182040168  1.0000
  C   C8        1.0  0.4829167413480917  0.5357141679023557  0.18188323707921236  1.0000
  C   C9        1.0  0.9440410367931806  0.41922567007635086  0.462644040521461  1.0000
  C   C10       1.0  0.08763782828859952  0.5464625581903987  0.5335607016866534  1.0000
  C   C11       1.0  0.0846844764823445  0.41933101927314453  0.4618557066525852  1.0000
  C   C12       1.0  0.9478144522139118  0.5583445548949016  0.5302626229404979  1.0000
  C   C13       1.0  0.504919212302042  0.11400586651166124  0.4968544167071656  1.0000
  C   C14       1.0  0.5029983514391674  0.8613789698044341  0.5024848374918491  1.0000
  C   C15       1.0  0.4546651874026112  0.057898401254099986  0.5410428260402044  1.0000
  C   C16       1.0  0.5554886339866273  0.9177848447943048  0.45868001010794063  1.0000
  C   C17       1.0  0.4540679546438752  0.9298873059420173  0.5438967370023917  1.0000
  C   C18       1.0  0.5548250469944876  0.045773458812966794  0.4556673834040056  1.0000
  C   C19       1.0  0.5287134409648361  0.4505209127818047  0.6543832842633535  1.0000
  C   C20       1.0  0.471457952627695  0.45159110939479064  0.9266890250056008  1.0000
  C   C21       1.0  0.6296087850442333  0.4997369541265754  0.6852059953849547  1.0000
  C   C22       1.0  0.6179143588872975  0.49877184879819225  0.7383965099696328  1.0000
  C   C23       1.0  0.3709644773214223  0.5024905875773485  0.8961273799488865  1.0000
  C   C24       1.0  0.381941855046378  0.500932160872587  0.8429101893016765  1.0000
  C   C25       1.0  0.5808404092691646  0.395249502510957  0.9034394242146748  1.0000
  C   C26       1.0  0.5889984933554616  0.39133354965314027  0.8503432167374428  1.0000
  C   C27       1.0  0.4181081562007876  0.39641321788390366  0.6773488426260101  1.0000
  C   C28       1.0  0.4092564561383299  0.3928782773357966  0.7304359627593442  1.0000
  C   C29       1.0  0.5071810851656267  0.44556329831345204  0.7623277012989007  1.0000
  C   C30       1.0  0.49155729620630245  0.4457101449757345  0.8187056225444708  1.0000
  C   C31       1.0  0.514713375418637  0.5786937850919428  0.3444430338123255  1.0000
  C   C32       1.0  0.48996229144731274  0.5791419177224596  0.23692639561336654  1.0000
  C   C33       1.0  0.6300327989677613  0.5935146636409457  0.3139818356184492  1.0000
  C   C34       1.0  0.37465584978054534  0.594414158715857  0.26741739392761593  1.0000
  C   C35       1.0  0.6166992441738374  0.5999532258636721  0.2601040612642366  1.0000
  C   C36       1.0  0.38792290859881723  0.6001241894845393  0.3212979708687059  1.0000
  C   C37       1.0  0.0555905464874868  0.4197646438959239  0.11881098786875552  1.0000
  C   C38       1.0  0.9124564107278775  0.5466755941780617  0.04764178406188081  1.0000
  C   C39       1.0  0.9148975639985224  0.4189689217693201  0.11890045000822623  1.0000
  C   C40       1.0  0.05201101869266723  0.5593943303750635  0.05166168035469809  1.0000
  C   C41       1.0  0.4925141242276113  0.11490211158738357  0.0844383116787526  1.0000
  C   C42       1.0  0.49513633758275694  0.8621824863268586  0.0793270099621566  1.0000
  C   C43       1.0  0.5391990225987657  0.05774507550662379  0.0397620016878619  1.0000
  C   C44       1.0  0.4469270669476019  0.9197944519517803  0.12380482875483521  1.0000
  C   C45       1.0  0.5401178017154109  0.9296837737866286  0.0371300522656242  1.0000
  C   C46       1.0  0.4469954130893044  0.0478374970315159  0.1264827167159979  1.0000
  C   C47       1.0  0.86895814163929  0.33938895338242486  0.4260520131043748  1.0000
  C   C48       1.0  0.16222250445535744  0.6059227000288416  0.5766043482380496  1.0000
  C   C49       1.0  0.15618864059546675  0.34785597253461015  0.4217306588548482  1.0000
  C   C50       1.0  0.8782894447618617  0.6466707978194889  0.5645560775376666  1.0000
  C   C51       1.0  0.4036794209347292  0.1317475418504515  0.5855040129737646  1.0000
  C   C52       1.0  0.6105246249588774  0.8455618235717349  0.4145474681320138  1.0000
  C   C53       1.0  0.40462180371907414  0.8694236084073809  0.5918698067439437  1.0000
  C   C54       1.0  0.6046691498805005  0.1064881266407554  0.40781401130295347  1.0000
  C   C55       1.0  0.7687154949038587  0.6082101843335012  0.33622357458693136  1.0000
  C   C56       1.0  0.236396339970085  0.6113283876055107  0.2449872038749277  1.0000
  C   C57       1.0  0.7385325084218267  0.633979036559161  0.22982269787432594  1.0000
  C   C58       1.0  0.2661749336846526  0.6345010783279931  0.351762858590007  1.0000
  C   C59       1.0  0.13049635411073984  0.34018823382546504  0.15554749859889236  1.0000
  C   C60       1.0  0.8384310831830818  0.6058781297256033  0.004405445615191201  1.0000
  C   C61       1.0  0.8429228099899505  0.3464649425845892  0.1583052216962813  1.0000
  C   C62       1.0  0.12149746473804873  0.6485345987723433  0.0180746177963087  1.0000
  C   C63       1.0  0.5865996290803822  0.13090939815245406  0.9947397225026933  1.0000
  C   C64       1.0  0.3972271834455298  0.8489083189461722  0.16903732370288793  1.0000
  C   C65       1.0  0.5859902595434577  0.8683616750110944  0.9886194103780072  1.0000
  C   C66       1.0  0.4010001320042421  0.11028451418331289  0.1747153607202065  1.0000
  N   N1        1.0  0.8776428683013509  0.490977229539176  0.4960028238987917  1.0000
  N   N2        1.0  0.15430954324447302  0.4810681203700042  0.49807588367239936  1.0000
  N   N3        1.0  0.12210451131117142  0.4921818223604077  0.08599848136782383  1.0000
  N   N4        1.0  0.8455297611862636  0.4805999721384282  0.0825908673845959  1.0000
  Cl  Cl1       1.0  0.7419710627517518  0.5706089161199515  0.7741682202050982  1.0000
  Cl  Cl2       1.0  0.25831339018667887  0.5743470892453357  0.8074072587670997  1.0000
  O   O1        1.0  0.6091606322513529  0.6684932753868651  0.5068782117186998  1.0000
  O   O2        1.0  0.3838510460548009  0.6740519830681747  0.5036142605420508  1.0000
  O   O3        1.0  0.4272089730870051  0.4577800690402541  0.572607098505614  1.0000
  O   O4        1.0  0.6524376157177444  0.47293482715382845  0.5779389440327947  1.0000
  O   O5        1.0  0.3915434190498957  0.30206779569225267  0.4887757454114023  1.0000
  O   O6        1.0  0.6169334422806401  0.30446977492862  0.49633082984924937  1.0000
  O   O7        1.0  0.6339574841061479  0.5172635386814052  0.4213573436842282  1.0000
  O   O8        1.0  0.4107752215520507  0.5116785522247583  0.4208364769015631  1.0000
  O   O9        1.0  0.3886566145160019  0.6697321762999876  0.07827479776342731  1.0000
  O   O10       1.0  0.6138533601537761  0.6744263140175734  0.0746878489164757  1.0000
  O   O11       1.0  0.5748117023803517  0.45484103073827936  0.008085749948143902  1.0000
  O   O12       1.0  0.35023250668120204  0.4787348922635104  0.0036464479176956006  1.0000
  O   O13       1.0  0.604117075504881  0.3032934783041341  0.09332101262196353  1.0000
  O   O14       1.0  0.3792502459821706  0.30504824012137977  0.0832872394964568  1.0000
  O   O15       1.0  0.37031644409275094  0.509776593564908  0.1614372948174747  1.0000
  O   O16       1.0  0.5932260132072855  0.5203175786876031  0.1589519828736812  1.0000
