data_image0
_chemical_formula_structural       AlH18C30N7O6
_chemical_formula_sum              "Al1 H18 C30 N7 O6"
_cell_length_a       3.9305804691107236
_cell_length_b       18.196583517325564
_cell_length_c       18.116559797254816
_cell_angle_alpha    121.05906888979614
_cell_angle_beta     96.87573221432413
_cell_angle_gamma    94.3835083723188

_space_group_name_H-M_alt    "P 1"
_space_group_IT_number       1

loop_
  _space_group_symop_operation_xyz
  'x, y, z'

loop_
  _atom_site_type_symbol
  _atom_site_label
  _atom_site_symmetry_multiplicity
  _atom_site_fract_x
  _atom_site_fract_y
  _atom_site_fract_z
  _atom_site_occupancy
  Al  Al1       1.0  0.9926487198918392  0.9990374811212632  0.49465597960588054  1.0000
  H   H1        1.0  0.4569271167456677  0.3133050237573157  0.41738957047055436  1.0000
  H   H2        1.0  0.7156914577900934  0.084590991544971  0.8969717229252652  1.0000
  H   H3        1.0  0.5365624445437193  0.6034273408474746  0.18717992969095576  1.0000
  H   H4        1.0  0.5613545830643998  0.31700695919399646  0.9001430144145954  1.0000
  H   H5        1.0  0.7235359141814042  0.008371329462008194  0.7356285735512458  1.0000
  H   H6        1.0  0.5260878357806857  0.7639118045459553  0.26901413162615023  1.0000
  H   H7        1.0  0.3875700604463148  0.6009073899627851  0.41670597429909856  1.0000
  H   H8        1.0  0.5486512353728659  0.0788233813190686  0.18101932476757548  1.0000
  H   H9        1.0  0.4538253771239694  0.23284381182953948  0.49541760121149986  1.0000
  H   H10       1.0  0.26494660437021617  0.9305744365138864  0.20717240444344043  1.0000
  H   H11       1.0  0.6355560618559223  0.9464424191220431  0.28286485855029037  1.0000
  H   H12       1.0  0.6851098464828597  0.9530330647023036  0.18999713732236498  1.0000
  H   H13       1.0  0.07636466450759366  0.7766566601494419  0.5310061174914438  1.0000
  H   H14       1.0  0.49650970724421456  0.8373056823522377  0.5644540748543817  1.0000
  H   H15       1.0  0.4376138405627897  0.7337431931070242  0.5536959948634673  1.0000
  H   H16       1.0  0.25239488435494906  0.24883293941257986  0.7019862847158436  1.0000
  H   H17       1.0  0.6652864870163169  0.23691921187655396  0.6734299032381583  1.0000
  H   H18       1.0  0.6177117222861028  0.3273360365646242  0.7764333259568161  1.0000
  C   C1        1.0  0.48216056549205877  0.06462766028914049  0.42930504559087973  1.0000
  C   C2        1.0  0.5853205556516414  0.0677634340352427  0.6302720537673351  1.0000
  C   C3        1.0  0.4250234971332175  0.8655769642245515  0.428990349533393  1.0000
  C   C4        1.0  0.4731514135656453  0.24426053012670929  0.38330225669408685  1.0000
  C   C5        1.0  0.5013860979793775  0.20026032126155974  0.2943682693260214  1.0000
  C   C6        1.0  0.6829393819644877  0.11797675809754081  0.861732793482588  1.0000
  C   C7        1.0  0.6331854746963398  0.20517410084708843  0.9073672321763906  1.0000
  C   C8        1.0  0.45539724428714806  0.5928009773033478  0.29710267679134006  1.0000
  C   C9        1.0  0.49496712650591224  0.638350544090798  0.25457300621066975  1.0000
  C   C10       1.0  0.5925509784916655  0.2488988010696502  0.8626759974614088  1.0000
  C   C11       1.0  0.5828633781102537  0.20719158330152246  0.7726375343985976  1.0000
  C   C12       1.0  0.6274567452876383  0.11897330248303459  0.7274177559366919  1.0000
  C   C13       1.0  0.6861703152492353  0.07608900678788902  0.7725288068236933  1.0000
  C   C14       1.0  0.4868628814713956  0.7267848937792961  0.29986560661284745  1.0000
  C   C15       1.0  0.4280501008628048  0.7706883727346536  0.3864711053802735  1.0000
  C   C16       1.0  0.39008631744760425  0.7262024443344117  0.43060788970436187  1.0000
  C   C17       1.0  0.4078322918161134  0.6373309234763765  0.3844773494329984  1.0000
  C   C18       1.0  0.5227975469654425  0.11129652693782081  0.24969998025122206  1.0000
  C   C19       1.0  0.5108479945676194  0.06449706682851539  0.2910298199588013  1.0000
  C   C20       1.0  0.4863946647443598  0.1101322700155904  0.380417371232319  1.0000
  C   C21       1.0  0.47084523999100003  0.1993500790648071  0.4261194613693675  1.0000
  C   C22       1.0  0.4740999204729802  0.3748097404469918  0.253462730364781  1.0000
  C   C23       1.0  0.5777344891808055  0.24455327916494704  0.12313650690148849  1.0000
  C   C24       1.0  0.5109605913051354  0.24727527601415744  0.24843745208939788  1.0000
  C   C25       1.0  0.47359000630314074  0.49904673861284005  0.2501589406600431  1.0000
  C   C26       1.0  0.5482916939461474  0.37811819076949854  0.12343020408535915  1.0000
  C   C27       1.0  0.6138058732618602  0.2511775840682162  0.0012724026043998242  1.0000
  C   C28       1.0  0.5263450948301982  0.9686245846670618  0.24055447393619303  1.0000
  C   C29       1.0  0.34944112502652286  0.7710550729550787  0.5250994455989255  1.0000
  C   C30       1.0  0.5288935085334641  0.25772380935424616  0.7287005882201923  1.0000
  N   N1        1.0  0.5331083354071636  0.3324814581153889  0.1666566234889544  1.0000
  N   N2        1.0  0.5735688619333172  0.2032342620621463  0.165962637672358  1.0000
  N   N3        1.0  0.45585604775946104  0.3304098221538966  0.29297614952331225  1.0000
  N   N4        1.0  0.43696111345816735  0.45846893056076954  0.29401661239079857  1.0000
  N   N5        1.0  0.5259808835192743  0.46244553916116626  0.16704818470101654  1.0000
  N   N6        1.0  0.6230149914007939  0.20477645119110113  0.03995326796086823  1.0000
  N   N7        1.0  0.5842783722202752  0.33593840556730464  0.039823342203490555  1.0000
  O   O1        1.0  0.21124464164852685  0.9010558818824846  0.47959148307867827  1.0000
  O   O2        1.0  0.21219420690994176  0.010600800908555596  0.41098912740384447  1.0000
  O   O3        1.0  0.3374867568088717  0.08186200931550051  0.5890618983139148  1.0000
  O   O4        1.0  0.6434845206583473  0.9069742140366018  0.4105526768193285  1.0000
  O   O5        1.0  0.7851352413584323  0.012678463036372992  0.5930847739294122  1.0000
  O   O6        1.0  0.7505260396716766  0.08346335880637669  0.48679656106446595  1.0000
