data_image0
_chemical_formula_structural       Mn4H12C8N36O4
_chemical_formula_sum              "Mn4 H12 C8 N36 O4"
_cell_length_a       6.411837247888986
_cell_length_b       9.708845336292987
_cell_length_c       10.462692159525906
_cell_angle_alpha    89.99984058552782
_cell_angle_beta     95.71355674442341
_cell_angle_gamma    89.99913681809149

_space_group_name_H-M_alt    "P 1"
_space_group_IT_number       1

loop_
  _space_group_symop_operation_xyz
  'x, y, z'

loop_
  _atom_site_type_symbol
  _atom_site_label
  _atom_site_symmetry_multiplicity
  _atom_site_fract_x
  _atom_site_fract_y
  _atom_site_fract_z
  _atom_site_occupancy
  Mn  Mn1       1.0  0.5317003194557373  0.16402967031956442  0.3702502271993709  1.0000
  Mn  Mn2       1.0  0.9683013305183936  0.6640306558267279  0.1297489186399333  1.0000
  Mn  Mn3       1.0  0.4682990283620043  0.8359704706887283  0.6297500517842212  1.0000
  Mn  Mn4       1.0  0.0316980172993482  0.3359694851815646  0.870251360343666  1.0000
  H   H1        1.0  0.24092155899782602  0.4794832895247436  0.6286069536214571  1.0000
  H   H2        1.0  0.25907999439759527  0.9794804990803668  0.8713952904322186  1.0000
  H   H3        1.0  0.7590777793388311  0.520516851485034  0.3713923690242283  1.0000
  H   H4        1.0  0.7409177670844828  0.02051964193888979  0.12860298603109754  1.0000
  H   H5        1.0  0.8203807439459609  0.13237635957224103  0.5784251391698023  1.0000
  H   H6        1.0  0.6796228879123233  0.6323773058098324  0.9215741332842032  1.0000
  H   H7        1.0  0.1796217101635378  0.8676248114131011  0.4215724504869343  1.0000
  H   H8        1.0  0.32037645989343844  0.36762386518705614  0.07842614569733541  1.0000
  H   H9        1.0  0.8242280048688785  0.28715176051660046  0.5361001867200345  1.0000
  H   H10       1.0  0.6757720263339169  0.7871536482680167  0.9638984670761562  1.0000
  H   H11       1.0  0.17577134292489663  0.7128504404688908  0.46390009225944356  1.0000
  H   H12       1.0  0.3242273119907609  0.21284752273035676  0.03610085556747582  1.0000
  C   C1        1.0  0.28950927263965553  0.271503656315886  0.6097302342820401  1.0000
  C   C2        1.0  0.2104954854160681  0.7714982068175401  0.8902660568868016  1.0000
  C   C3        1.0  0.710491642551581  0.7284964846844129  0.3902701345460217  1.0000
  C   C4        1.0  0.789505420306064  0.2285009041956343  0.10973335560540684  1.0000
  C   C5        1.0  0.2736377287785103  0.4378698126543694  0.43770243988191043  1.0000
  C   C6        1.0  0.22636355665436983  0.9378682787602411  0.062300926748719135  1.0000
  C   C7        1.0  0.7263647727723493  0.562128268357753  0.5622999314705412  1.0000
  C   C8        1.0  0.7736342143087854  0.06213186225753729  0.9376983060525039  1.0000
  N   N1        1.0  0.3642493091926085  0.16151500821226955  0.5501914308308784  1.0000
  N   N2        1.0  0.1357580264988272  0.6615152799037955  0.9498072126402309  1.0000
  N   N3        1.0  0.635753173372123  0.8384851327800216  0.4498090278416457  1.0000
  N   N4        1.0  0.864241311837823  0.33848486110598225  0.05019211000545453  1.0000
  N   N5        1.0  0.35345843391002774  0.057185329693979284  0.6351405156972236  1.0000
  N   N6        1.0  0.14654190563229014  0.5571888382017032  0.8648560930431234  1.0000
  N   N7        1.0  0.6465409139196936  0.9428137813257105  0.3648597632884291  1.0000
  N   N8        1.0  0.8534574327043672  0.44281130280807446  0.13514322960256211  1.0000
  N   N9        1.0  0.27804218238481576  0.10168414974485528  0.7388958385752533  1.0000
  N   N10       1.0  0.22195557355728107  0.6016861830086666  0.7611024151322499  1.0000
  N   N11       1.0  0.7219571749140102  0.8983159912619524  0.26110539674624533  1.0000
  N   N12       1.0  0.7780422068869655  0.3983139580076268  0.2388977740068868  1.0000
  N   N13       1.0  0.23190074180705272  0.23659230721744243  0.7260275772969822  1.0000
  N   N14       1.0  0.2681064241744338  0.7365917787546719  0.7739718122650815  1.0000
  N   N15       1.0  0.7681001733961638  0.7634068037942537  0.27397279153313303  1.0000
  N   N16       1.0  0.7318929141622232  0.26340836225510594  0.22602751038061095  1.0000
  N   N17       1.0  0.2739232820319302  0.4027573103300241  0.5639554051723865  1.0000
  N   N18       1.0  0.22608779831077191  0.9027577468578084  0.9360380314010616  1.0000
  N   N19       1.0  0.726079200556761  0.5972407706850688  0.4360450535042518  1.0000
  N   N20       1.0  0.7739115400258855  0.09724239415196925  0.06396129124462392  1.0000
  N   N21       1.0  0.34730050871349505  0.36100565368484167  0.3445955124201349  1.0000
  N   N22       1.0  0.15270407530785954  0.8610076693941618  0.15540251325573007  1.0000
  N   N23       1.0  0.6527004159708056  0.6389934573253696  0.655405812747887  1.0000
  N   N24       1.0  0.847295253559693  0.13899144162849805  0.8445958530541094  1.0000
  N   N25       1.0  0.3119968815382492  0.437762803279014  0.236627668945289  1.0000
  N   N26       1.0  0.18799965686071118  0.9377610505385262  0.2633706468905857  1.0000
  N   N27       1.0  0.6880009083751021  0.5622383677243901  0.7633734765296938  1.0000
  N   N28       1.0  0.811999671982882  0.0622401204613325  0.7366277194151325  1.0000
  N   N29       1.0  0.22531626964020288  0.5546411521243754  0.2648038755165701  1.0000
  N   N30       1.0  0.27467821945743504  0.05463813372765708  0.23519629913192838  1.0000
  N   N31       1.0  0.774681520285128  0.44535898889043307  0.7351972699604732  1.0000
  N   N32       1.0  0.725322676771633  0.9453620072755979  0.764802157020313  1.0000
  N   N33       1.0  0.1982812589998488  0.5586838035567181  0.3909913256425315  1.0000
  N   N34       1.0  0.3017146749918282  0.05867986280134117  0.10900605367957893  1.0000
  N   N35       1.0  0.8017196372411989  0.44131530745794795  0.6090071305117706  1.0000
  N   N36       1.0  0.698283095971334  0.9413202782164372  0.8909931791216439  1.0000
  O   O1        1.0  0.8153998299167354  0.19105495322749275  0.4996984531524547  1.0000
  O   O2        1.0  0.6846012008174185  0.6910571145890428  0.0003015409990965131  1.0000
  O   O3        1.0  0.1846010662883657  0.808947247752968  0.5003000029956726  1.0000
  O   O4        1.0  0.3153981470003231  0.30894302641925003  0.9996987379845028  1.0000
