data_image0
_chemical_formula_structural       Zn8H24C36O26
_chemical_formula_sum              "Zn8 H24 C36 O26"
_cell_length_a       15.307801103453803
_cell_length_b       21.692710746394372
_cell_length_c       17.0352489968859
_cell_angle_alpha    59.355728864274056
_cell_angle_beta     66.86433825626318
_cell_angle_gamma    90.34777001224151

_space_group_name_H-M_alt    "P 1"
_space_group_IT_number       1

loop_
  _space_group_symop_operation_xyz
  'x, y, z'

loop_
  _atom_site_type_symbol
  _atom_site_label
  _atom_site_symmetry_multiplicity
  _atom_site_fract_x
  _atom_site_fract_y
  _atom_site_fract_z
  _atom_site_occupancy
  Zn  Zn1       1.0  0.9400286471109423  0.8919473154703039  0.10479999819074277  1.0000
  Zn  Zn2       1.0  0.9398087665356769  0.043331660317861107  0.10063942757969353  1.0000
  Zn  Zn3       1.0  0.9083551064160461  0.03298035600825241  0.9325656562251082  1.0000
  Zn  Zn4       1.0  0.1174102879612775  0.0386202276167396  0.9237531907998502  1.0000
  Zn  Zn5       1.0  0.5091554147899303  0.6095310719760505  0.9375058706193472  1.0000
  Zn  Zn6       1.0  0.5128372116565032  0.4605180927082557  0.9352064925721992  1.0000
  Zn  Zn7       1.0  0.33472281902808737  0.4606337819852869  0.11624238263352275  1.0000
  Zn  Zn8       1.0  0.5447137776542021  0.46796673212394785  0.10504200047853378  1.0000
  H   H1        1.0  0.7721936908172609  0.8824890753201442  0.4396705910153359  1.0000
  H   H2        1.0  0.7717590482499119  0.7454119800387601  0.42695384936460107  1.0000
  H   H3        1.0  0.6767227005539524  0.7617640052882989  0.6133855872004262  1.0000
  H   H4        1.0  0.6775244592747215  0.6257786620084005  0.5981265766251415  1.0000
  H   H5        1.0  0.6931689776172971  0.8652577076261206  0.9826883839404774  1.0000
  H   H6        1.0  0.8031707333661019  0.746565514493881  0.060247152378963185  1.0000
  H   H7        1.0  0.6448426553378326  0.753743494387592  0.9842966631932629  1.0000
  H   H8        1.0  0.7554520656505447  0.6352877747433255  0.0608987179134743  1.0000
  H   H9        1.0  0.26990261369842744  0.8729119970817792  0.8941801313044095  1.0000
  H   H10       1.0  0.12403650575032549  0.7401893529222648  0.1114660094083036  1.0000
  H   H11       1.0  0.3217594782535542  0.7558459616686122  0.9397858338726908  1.0000
  H   H12       1.0  0.17745296155364804  0.6218470692605038  0.15657853482663595  1.0000
  H   H13       1.0  0.8047436717266833  0.2348127421445484  0.8810839848700028  1.0000
  H   H14       1.0  0.7498209707598206  0.1913372836469804  0.10089689847440314  1.0000
  H   H15       1.0  0.7091211456135438  0.31576140226707855  0.9257494718045579  1.0000
  H   H16       1.0  0.6549365930625582  0.27051534218460926  0.14617484777502207  1.0000
  H   H17       1.0  0.29627985607980634  0.1900136190861872  0.9374529704943911  1.0000
  H   H18       1.0  0.11441130018709343  0.21274219973112457  0.07472802943988195  1.0000
  H   H19       1.0  0.3399521998072144  0.2906877651991521  0.9587408998358458  1.0000
  H   H20       1.0  0.1576975895437798  0.3127952381766263  0.09651353255942051  1.0000
  H   H21       1.0  0.08017678857989098  0.1595228657926029  0.595819365628394  1.0000
  H   H22       1.0  0.2511675736173943  0.2212342587665006  0.6108086832212011  1.0000
  H   H23       1.0  0.20441486248671487  0.27239431730175323  0.4264349765115796  1.0000
  H   H24       1.0  0.3744684875759035  0.3342005650031227  0.4425084345394623  1.0000
  C   C1        1.0  0.8476022063172549  0.8929710846264811  0.2929591799421443  1.0000
  C   C2        1.0  0.7880707174897879  0.849906313522453  0.4060748016452891  1.0000
  C   C3        1.0  0.753837981391257  0.7751231589675457  0.46495391070541114  1.0000
  C   C4        1.0  0.6948655221572793  0.7323629373395377  0.5749524895500358  1.0000
  C   C5        1.0  0.661111677827904  0.6575612219448602  0.6329222638704975  1.0000
  C   C6        1.0  0.601741356178238  0.6131397573470496  0.7461071759256227  1.0000
  C   C7        1.0  0.8041945715008867  0.8823704972359753  0.024825612791225544  1.0000
  C   C8        1.0  0.7426631921729623  0.8381826077501702  0.013055766563525173  1.0000
  C   C9        1.0  0.751272257330271  0.7707065159443901  0.03140076495200362  1.0000
  C   C10       1.0  0.6967279028111832  0.729579826614966  0.013145199439286307  1.0000
  C   C11       1.0  0.7057772963681046  0.6623229525468873  0.030803162297388394  1.0000
  C   C12       1.0  0.6449656606124065  0.6184640069816822  0.017988717567583017  1.0000
  C   C13       1.0  0.13889937350113274  0.8868008911535555  0.9912423790715578  1.0000
  C   C14       1.0  0.20501725378022687  0.8421955452509025  0.9692445719084904  1.0000
  C   C15       1.0  0.18961840203951397  0.7688447578826539  0.03671853637307269  1.0000
  C   C16       1.0  0.2563407306641921  0.7268710234075328  0.01468375375754499  1.0000
  C   C17       1.0  0.24182805315501105  0.6534845380593169  0.08115279598488456  1.0000
  C   C18       1.0  0.30905484648312165  0.6102899281461875  0.056560435387609645  1.0000
  C   C19       1.0  0.8440273073637741  0.1410283205004461  0.9833642179733106  1.0000
  C   C20       1.0  0.80034599194137  0.2049073535273749  0.9575350530851879  1.0000
  C   C21       1.0  0.7532851161380449  0.22364883262034138  0.024722400234765064  1.0000
  C   C22       1.0  0.7059475781392662  0.2832662137942705  0.001782077363714181  1.0000
  C   C23       1.0  0.6586256320362055  0.30107516762783604  0.07002135323796214  1.0000
  C   C24       1.0  0.6131249063585714  0.3639653210836968  0.04691598452112084  1.0000
  C   C25       1.0  0.1477720039499744  0.12446693923691753  0.0040469811116921085  1.0000
  C   C26       1.0  0.21937620860620655  0.18162921876210456  0.9868975613973703  1.0000
  C   C27       1.0  0.19260152247023404  0.22305344270395713  0.02624923292795968  1.0000
  C   C28       1.0  0.2617413561134896  0.2803013416114056  0.007226928607131712  1.0000
  C   C29       1.0  0.234694260612919  0.32141852520545205  0.047041996195105275  1.0000
  C   C30       1.0  0.3059061141801038  0.3782093640288409  0.030996645447068347  1.0000
  C   C31       1.0  0.08678264759121396  0.11111751757313477  0.7411116244589095  1.0000
  C   C32       1.0  0.12555729341287503  0.16437097843128612  0.629276725335636  1.0000
  C   C33       1.0  0.20954968920135295  0.21891008073154697  0.5724632235835898  1.0000
  C   C34       1.0  0.24595541816724875  0.2745838137577792  0.46491310500545796  1.0000
  C   C35       1.0  0.3294067717574123  0.3295308065092613  0.40865365624267724  1.0000
  C   C36       1.0  0.3674153267553777  0.384282076128784  0.2972995328441926  1.0000
  O   O1        1.0  0.9758699212619106  0.0005682284284986991  0.01862079217909946  1.0000
  O   O2        1.0  0.8706158155945829  0.9636118500993046  0.24774957225610472  1.0000
  O   O3        1.0  0.8706090626527967  0.8569787503185182  0.2504340932959296  1.0000
  O   O4        1.0  0.5797266637294953  0.5427103670298408  0.7892693673432095  1.0000
  O   O5        1.0  0.5779638144228799  0.647756216107183  0.7906154236624515  1.0000
  O   O6        1.0  0.8026273523423126  0.9507312791888579  0.9841624178614558  1.0000
  O   O7        1.0  0.8543140287804719  0.8505263566377225  0.07188193935177635  1.0000
  O   O8        1.0  0.647922407486945  0.5504515492510221  0.05687846634180719  1.0000
  O   O9        1.0  0.5941714012577252  0.6502136581188225  0.9717735920289243  1.0000
  O   O10       1.0  0.17196743201011347  0.9569550665166704  0.9241046139203704  1.0000
  O   O11       1.0  0.05654053808617483  0.853281605204387  0.07314098236374628  1.0000
  O   O12       1.0  0.2778179173755007  0.5398707283156767  0.12226764670250388  1.0000
  O   O13       1.0  0.3906304095306652  0.6452420698119283  0.9738117983536871  1.0000
  O   O14       1.0  0.8670272010015838  0.12169482980576157  0.919677524621747  1.0000
  O   O15       1.0  0.8544642436105504  0.11012825232997865  0.06500714129882833  1.0000
  O   O16       1.0  0.5898599828183037  0.3816888569875799  0.1123016708921868  1.0000
  O   O17       1.0  0.6013089237213549  0.3955011498027757  0.9660569059002029  1.0000
  O   O18       1.0  0.18447744258482152  0.09480639806238857  0.9540479623845075  1.0000
  O   O19       1.0  0.057054868492443206  0.10970110441649442  0.06534699477900567  1.0000
  O   O20       1.0  0.2686880067627939  0.4071663502611145  0.08188486211321325  1.0000
  O   O21       1.0  0.396808189360442  0.39333181465008243  0.9698341616525284  1.0000
  O   O22       1.0  0.9998429054641208  0.0690188777187259  0.7890590457379149  1.0000
  O   O23       1.0  0.1410873601167495  0.11171266722057986  0.7818957290062942  1.0000
  O   O24       1.0  0.45333241878185504  0.42755643667362614  0.2501983456684302  1.0000
  O   O25       1.0  0.3134133346288976  0.38404676856734443  0.2560481081934897  1.0000
  O   O26       1.0  0.4759784152134189  0.5009280923801073  0.020172986977897343  1.0000
