data_image0
_chemical_formula_structural       Ca2H24C16N4O16
_chemical_formula_sum              "Ca2 H24 C16 N4 O16"
_cell_length_a       5.56089016413596
_cell_length_b       7.61578746542593
_cell_length_c       13.155892050150204
_cell_angle_alpha    95.79751446713202
_cell_angle_beta     90.00053436199198
_cell_angle_gamma    90.00052324826494

_space_group_name_H-M_alt    "P 1"
_space_group_IT_number       1

loop_
  _space_group_symop_operation_xyz
  'x, y, z'

loop_
  _atom_site_type_symbol
  _atom_site_label
  _atom_site_symmetry_multiplicity
  _atom_site_fract_x
  _atom_site_fract_y
  _atom_site_fract_z
  _atom_site_occupancy
  Ca  Ca1       1.0  1.19065609638e-05  0.500021261954288  6.110656336503544e-06  1.0000
  Ca  Ca2       1.0  0.5000012050514399  7.305467065100247e-06  0.5000066364997195  1.0000
  H   H1        1.0  0.8581519438947678  0.004345999155084701  0.9213108563989464  1.0000
  H   H2        1.0  0.3581446125976839  0.49565105316625585  0.5786907403836921  1.0000
  H   H3        1.0  0.14185090119296007  0.9956503167981052  0.07869448889634607  1.0000
  H   H4        1.0  0.6418492411216973  0.5043610415725297  0.4213063723617337  1.0000
  H   H5        1.0  0.6903646591647501  0.81812561962019  0.8734223218769372  1.0000
  H   H6        1.0  0.19036915007411884  0.6818571368496436  0.6265770131154936  1.0000
  H   H7        1.0  0.309645378972526  0.1818693569509051  0.1265799074924985  1.0000
  H   H8        1.0  0.8096444844546156  0.31812328758533687  0.37341907560064397  1.0000
  H   H9        1.0  0.5553245339650345  0.7763230089965772  0.2134879586952394  1.0000
  H   H10       1.0  0.055360142926176095  0.7236784795404176  0.2865196175796285  1.0000
  H   H11       1.0  0.4446747145671281  0.22367593184423376  0.7865152541068596  1.0000
  H   H12       1.0  0.9446696762160939  0.27632175671542564  0.7134798676550318  1.0000
  H   H13       1.0  0.3520023506055594  0.9534115249971578  0.24383836527802313  1.0000
  H   H14       1.0  0.8520261799262555  0.5465843480958911  0.2561654661862107  1.0000
  H   H15       1.0  0.6479915031333832  0.046584800724133395  0.7561685007922776  1.0000
  H   H16       1.0  0.1479928494900378  0.45341057949330116  0.7438291592315736  1.0000
  H   H17       1.0  0.25808427056144717  0.7251387809012686  0.8616793671336394  1.0000
  H   H18       1.0  0.7580918830402439  0.7748616557145668  0.6383197021134633  1.0000
  H   H19       1.0  0.7419149779796114  0.2748588499395268  0.1383252921097693  1.0000
  H   H20       1.0  0.2419091637468398  0.2251438498385951  0.3616785596771663  1.0000
  H   H21       1.0  0.45655197221047666  0.5835157068528362  0.8881309026235795  1.0000
  H   H22       1.0  0.9565588330228819  0.9164836507420162  0.6118688632993566  1.0000
  H   H23       1.0  0.5434562676357614  0.41648188971122835  0.11186843385941359  1.0000
  H   H24       1.0  0.043440415534036  0.0835258240179328  0.3881311423401711  1.0000
  C   C1        1.0  0.6844748342093608  0.9367879223044968  0.92822144152489  1.0000
  C   C2        1.0  0.18446050428472197  0.5632066316977031  0.5717732147355788  1.0000
  C   C3        1.0  0.3155298091245626  0.0632149534593154  0.0717781923618617  1.0000
  C   C4        1.0  0.8155207614187103  0.43679488495691743  0.4282202615718873  1.0000
  C   C5        1.0  0.6749010677191762  0.880250337580179  0.03416088631894347  1.0000
  C   C6        1.0  0.17490719566450957  0.6197586705041617  0.4658445294113349  1.0000
  C   C7        1.0  0.3251035756400284  0.11975912739752909  0.9658375985379166  1.0000
  C   C8        1.0  0.8250812631838684  0.3802455053925797  0.5341521372054743  1.0000
  C   C9        1.0  0.5239112378583286  0.9166544695411999  0.20658345871508738  1.0000
  C   C10       1.0  0.023934578662974097  0.5833440882164213  0.2934169914477067  1.0000
  C   C11       1.0  0.47607901925563567  0.08334181205041347  0.7934165637738317  1.0000
  C   C12       1.0  0.976075459430177  0.4166548085512786  0.7065793778036493  1.0000
  C   C13       1.0  0.7243368330910797  0.025234527637174202  0.2635484264711039  1.0000
  C   C14       1.0  0.22435264588781928  0.4747600955779845  0.23645186278145755  1.0000
  C   C15       1.0  0.27564802921151704  0.9747643886384552  0.7364509843149489  1.0000
  C   C16       1.0  0.7756501991041558  0.5252348515544796  0.7635458041901797  1.0000
  N   N1        1.0  0.5081465358949445  0.9481289643282266  0.09966157207113467  1.0000
  N   N2        1.0  0.008168357521839198  0.5518694547574371  0.4003365297466459  1.0000
  N   N3        1.0  0.4918383264854356  0.0518752556699127  0.9003419381117366  1.0000
  N   N4        1.0  0.9918560667925007  0.4481268318702406  0.5996642532121186  1.0000
  O   O1        1.0  0.8336666961670431  0.7751288803579541  0.05979849569241219  1.0000
  O   O2        1.0  0.33368964815736035  0.7248668926704765  0.44021210124203236  1.0000
  O   O3        1.0  0.1663073764798781  0.2248608217595844  0.9402041965860943  1.0000
  O   O4        1.0  0.6662988108654347  0.27513738126077664  0.5597997733163851  1.0000
  O   O5        1.0  0.8452007012572904  0.1337310730362304  0.21915623652606087  1.0000
  O   O6        1.0  0.3452180620178069  0.3662525978205124  0.280840096394428  1.0000
  O   O7        1.0  0.15478955573617267  0.8662533058155261  0.7808393148017742  1.0000
  O   O8        1.0  0.6547811863673445  0.6337370553787524  0.7191549919668959  1.0000
  O   O9        1.0  0.7568239631923958  0.9946688641508246  0.3568887203083263  1.0000
  O   O10       1.0  0.2568321685250794  0.5053446690996496  0.1431051010863413  1.0000
  O   O11       1.0  0.243180680106299  0.005336621809569  0.6431064999016484  1.0000
  O   O12       1.0  0.7431652816549956  0.4946568574220578  0.8568898960497505  1.0000
  O   O13       1.0  0.29574730194478593  0.6331145476357491  0.9083118175631526  1.0000
  O   O14       1.0  0.7957531230369524  0.8668835357141588  0.5916857426078437  1.0000
  O   O15       1.0  0.7042483499285693  0.36687644005802167  0.09168562633460198  1.0000
  O   O16       1.0  0.20424432734141357  0.13313519726992237  0.4083178250861507  1.0000
