data_image0
_chemical_formula_structural       Cu2H16C14I2N4O4
_chemical_formula_sum              "Cu2 H16 C14 I2 N4 O4"
_cell_length_a       4.218155385073297
_cell_length_b       9.864913205375299
_cell_length_c       11.092293630888744
_cell_angle_alpha    82.57906900879634
_cell_angle_beta     89.6121718972559
_cell_angle_gamma    83.03455502696144

_space_group_name_H-M_alt    "P 1"
_space_group_IT_number       1

loop_
  _space_group_symop_operation_xyz
  'x, y, z'

loop_
  _atom_site_type_symbol
  _atom_site_label
  _atom_site_symmetry_multiplicity
  _atom_site_fract_x
  _atom_site_fract_y
  _atom_site_fract_z
  _atom_site_occupancy
  Cu  Cu1       1.0  0.8109605380611526  0.11117216555858532  0.4781784895572799  1.0000
  Cu  Cu2       1.0  0.18902198987144198  0.8888280123753914  0.5218236141371904  1.0000
  H   H1        1.0  0.39604306664037386  0.366355875072621  0.4766453139397626  1.0000
  H   H2        1.0  0.6039470458512568  0.6336422742745427  0.5233515664540533  1.0000
  H   H3        1.0  0.2577055298274615  0.5897701120042241  0.34324593148348015  1.0000
  H   H4        1.0  0.7422961520103755  0.4102290478119315  0.656749885013525  1.0000
  H   H5        1.0  0.9344497916764424  0.43467154118966533  0.08424863366865762  1.0000
  H   H6        1.0  0.06556326896921413  0.5653296114912577  0.9157514224028347  1.0000
  H   H7        1.0  0.23775573775511563  0.21983958754584168  0.1484121012976871  1.0000
  H   H8        1.0  0.7622497463763125  0.7801543939464679  0.8515869655221948  1.0000
  H   H9        1.0  0.1791199640592964  0.1208021594667628  0.2869960010005315  1.0000
  H   H10       1.0  0.8208761179507962  0.879191796404648  0.7130085206574747  1.0000
  H   H11       1.0  0.15774350646966442  0.859704440456511  0.9874323321641043  1.0000
  H   H12       1.0  0.8422551302630836  0.14029772734106422  0.012573088403982498  1.0000
  H   H13       1.0  0.4181596625159826  0.9336809498026996  0.08199405624625913  1.0000
  H   H14       1.0  0.5818407194498789  0.06632331173159402  0.9180066209888693  1.0000
  H   H15       1.0  0.009112465588835113  0.9270945350415829  0.12431781137480165  1.0000
  H   H16       1.0  0.9908941198313743  0.0729045269037769  0.8756879107305124  1.0000
  C   C1        1.0  0.5121311991331723  0.38724782333542157  0.3892627795263692  1.0000
  C   C2        1.0  0.4878633804832404  0.6127513449353756  0.6107339698423857  1.0000
  C   C3        1.0  0.4339333096228373  0.5102860623338543  0.3152381232910599  1.0000
  C   C4        1.0  0.5660686640142316  0.489712059745912  0.6847587062483315  1.0000
  C   C5        1.0  0.5879738065690745  0.5282704328469237  0.20222638661309844  1.0000
  C   C6        1.0  0.4120297651602272  0.4717307416479244  0.7977737101419252  1.0000
  C   C7        1.0  0.8095031366969322  0.42399840672590733  0.1704226470978156  1.0000
  C   C8        1.0  0.19050151543429913  0.5759986642581794  0.8295760876721872  1.0000
  C   C9        1.0  0.8796509820323306  0.3015311566585268  0.2517514899028228  1.0000
  C   C10       1.0  0.12035256076530491  0.6984700336479294  0.7482468021340055  1.0000
  C   C11       1.0  0.5221263387464319  0.6570666370156175  0.11617811386992831  1.0000
  C   C12       1.0  0.477875620424804  0.34293149296995307  0.8838178133103725  1.0000
  C   C13       1.0  0.21383695564841784  0.8747365392952418  0.08082388122836905  1.0000
  C   C14       1.0  0.7861682141731235  0.1252676876146808  0.9191794827422869  1.0000
  I   I1        1.0  0.2907440991582106  0.11004351073565032  0.6262977529161518  1.0000
  I   I2        1.0  0.709247181389088  0.8899679996906401  0.3736994729712819  1.0000
  N   N1        1.0  0.7298390405632061  0.2837734913233234  0.3606271921602939  1.0000
  N   N2        1.0  0.2701560792541713  0.7162236251920931  0.6393688762159471  1.0000
  N   N3        1.0  0.09462206442309912  0.19794653611737797  0.22083569513497991  1.0000
  N   N4        1.0  0.9053773175148334  0.8020525896232513  0.7791646433284001  1.0000
  O   O1        1.0  0.2851390110113812  0.7438800464352795  0.1552455229221863  1.0000
  O   O2        1.0  0.7148730560273648  0.25612516232158106  0.8447613092889127  1.0000
  O   O3        1.0  0.6659361547195957  0.6825443208362358  0.020559414187850702  1.0000
  O   O4        1.0  0.3340379646985667  0.31745177540089736  0.9794413682051301  1.0000
