data_image0
_chemical_formula_structural       Co2H22C34N8O8
_chemical_formula_sum              "Co2 H22 C34 N8 O8"
_cell_length_a       9.645113686824738
_cell_length_b       9.257550508238042
_cell_length_c       10.515738067229748
_cell_angle_alpha    65.30266624364435
_cell_angle_beta     70.06142802532891
_cell_angle_gamma    88.84153595450164

_space_group_name_H-M_alt    "P 1"
_space_group_IT_number       1

loop_
  _space_group_symop_operation_xyz
  'x, y, z'

loop_
  _atom_site_type_symbol
  _atom_site_label
  _atom_site_symmetry_multiplicity
  _atom_site_fract_x
  _atom_site_fract_y
  _atom_site_fract_z
  _atom_site_occupancy
  Co  Co1       1.0  0.6012628182211088  0.9955243688034939  0.22845396077757843  1.0000
  Co  Co2       1.0  0.3987172580333364  0.004479534391819596  0.7715435546065095  1.0000
  H   H1        1.0  0.8339452122228935  0.8719432930381715  0.003957822805880043  1.0000
  H   H2        1.0  0.1660760243835426  0.12806278454247177  0.9960361460363033  1.0000
  H   H3        1.0  0.8687230162520833  0.358707255665486  0.2788656812176102  1.0000
  H   H4        1.0  0.1313009193861419  0.6412799386644751  0.7211551506134484  1.0000
  H   H5        1.0  0.8813357257266928  0.15006691301221048  0.9000789778309438  1.0000
  H   H6        1.0  0.1186530003446293  0.8499235349949076  0.09992985332035438  1.0000
  H   H7        1.0  0.6212980294761152  0.4031792398942711  0.33332093010644576  1.0000
  H   H8        1.0  0.3787220366225198  0.5968251019093459  0.6666845978971953  1.0000
  H   H9        1.0  0.636519671684077  0.5401467797021269  0.7825713661360042  1.0000
  H   H10       1.0  0.3634779349195014  0.45984624347164527  0.21741357924928925  1.0000
  H   H11       1.0  0.9090157627471455  0.7395786356420118  0.8473462182234145  1.0000
  H   H12       1.0  0.09100274091250778  0.2604094948704869  0.15267501140073145  1.0000
  H   H13       1.0  0.4567410075500575  0.632605672799393  0.40137557801218554  1.0000
  H   H14       1.0  0.5432745847184179  0.36741057387998677  0.5986103174835549  1.0000
  H   H15       1.0  0.48226313337702453  0.31374318788756733  0.07750802261026726  1.0000
  H   H16       1.0  0.5177349408894756  0.6862638776066844  0.9224843612810929  1.0000
  H   H17       1.0  0.745576821802068  0.5772259654614516  0.5509588343544466  1.0000
  H   H18       1.0  0.2544205104082451  0.4227630914138416  0.4490402014561497  1.0000
  H   H19       1.0  0.0732403131969477  0.3079875273772146  0.707482589276026  1.0000
  H   H20       1.0  0.9267582750052128  0.6920021436279669  0.2925243654821728  1.0000
  H   H21       1.0  0.8718383010116993  0.0510249079160303  0.7212087692041749  1.0000
  H   H22       1.0  0.128130910147604  0.9489593019007357  0.278797412540236  1.0000
  C   C1        1.0  0.6934488101809392  0.0663491680742823  0.5763104322630782  1.0000
  C   C2        1.0  0.30652782799526074  0.9336541690307739  0.42368174538398784  1.0000
  C   C3        1.0  0.8497213542995823  0.026510377677063005  0.5338597423811677  1.0000
  C   C4        1.0  0.15025832234525888  0.9734898009684799  0.46613751959724714  1.0000
  C   C5        1.0  0.9237128919273588  0.9973120824787928  0.40793896390536616  1.0000
  C   C6        1.0  0.0762649692509569  0.0026917411262133003  0.5920592907787281  1.0000
  C   C7        1.0  0.8492693433595236  0.9910758629994799  0.30608291592403014  1.0000
  C   C8        1.0  0.1507034117919375  0.008943117042278495  0.693907910272948  1.0000
  C   C9        1.0  0.8974722716996197  0.4359273400719488  0.647237694396992  1.0000
  C   C10       1.0  0.10252657440094029  0.5640662334167459  0.3527542489806168  1.0000
  C   C11       1.0  0.7472904752700558  0.7788522678610407  0.09905221266457452  1.0000
  C   C12       1.0  0.2527275211965048  0.22115400940899824  0.9009474699040682  1.0000
  C   C13       1.0  0.9263539273070831  0.41995775981325073  0.15703973672218316  1.0000
  C   C14       1.0  0.0736725368097026  0.5800307265914596  0.8429978539593678  1.0000
  C   C15       1.0  0.7928788162313367  0.22385786906325222  0.9102593334622141  1.0000
  C   C16       1.0  0.2071173357188769  0.7761301404885259  0.08974336436588722  1.0000
  C   C17       1.0  0.6364100187734536  0.5333290782137111  0.27495769812458093  1.0000
  C   C18       1.0  0.3636134029291044  0.4666755106053132  0.7250485628396321  1.0000
  C   C19       1.0  0.6626932337693744  0.4265323896773125  0.8510336358315699  1.0000
  C   C20       1.0  0.33730255062510384  0.5734635261874459  0.14895927844806076  1.0000
  C   C21       1.0  0.9496627399694404  0.6351796584157301  0.9139344203060918  1.0000
  C   C22       1.0  0.050377557583963985  0.36480498262648803  0.08608890196686053  1.0000
  C   C23       1.0  0.557446454642104  0.6459656332116169  0.3080822192547146  1.0000
  C   C24       1.0  0.442570685442213  0.3540437544782975  0.6919097977719917  1.0000
  C   C25       1.0  0.5886670701031987  0.31568172536738354  0.9963530841001713  1.0000
  C   C26       1.0  0.41132940779873184  0.6843205044386025  0.003641787447733817  1.0000
  C   C27       1.0  0.8772518434898515  0.5559156058704603  0.07001117375624227  1.0000
  C   C28       1.0  0.12277539266313652  0.4440924575051355  0.9300067335840367  1.0000
  C   C29       1.0  0.8572448045925682  0.5440011790713868  0.5297560520004579  1.0000
  C   C30       1.0  0.14276014168272158  0.45598689358172345  0.4702400048064775  1.0000
  C   C31       1.0  0.0405605166876626  0.3922157526098147  0.6171689980177107  1.0000
  C   C32       1.0  0.9594346829208431  0.607773543750028  0.3828353818693417  1.0000
  C   C33       1.0  0.9273774562570904  0.028002477305975004  0.6236400363201752  1.0000
  C   C34       1.0  0.07259602217969528  0.9719913160525093  0.3763589585505614  1.0000
  N   N1        1.0  0.6708902819259919  0.1900636924081809  0.0318577850151485  1.0000
  N   N2        1.0  0.3291018153082703  0.8099385696621085  0.9681413279986304  1.0000
  N   N3        1.0  0.6279959550241044  0.7982289123982653  0.19838580825085475  1.0000
  N   N4        1.0  0.37202406532278326  0.20177743095090508  0.8015951073656425  1.0000
  N   N5        1.0  0.7915949829011099  0.3670501058794429  0.796677640733563  1.0000
  N   N6        1.0  0.2083995231999438  0.6329328765391651  0.20332478188522182  1.0000
  N   N7        1.0  0.7561889914079741  0.6191021086841743  0.14198083970544687  1.0000
  N   N8        1.0  0.24384088059433395  0.38090051240411776  0.8580270252278909  1.0000
  O   O1        1.0  0.9246213963245539  0.9930959071615532  0.18119490544112454  1.0000
  O   O2        1.0  0.07535165386274659  0.006947228015306495  0.8187897538442996  1.0000
  O   O3        1.0  0.5980426896498798  0.9540543139106602  0.6978436551965147  1.0000
  O   O4        1.0  0.40193163448099506  0.0459485607142653  0.3021437360188273  1.0000
  O   O5        1.0  0.7056733472454366  0.9827930164622455  0.3583544673671215  1.0000
  O   O6        1.0  0.294309987717611  0.017220813369462493  0.6416417565250327  1.0000
  O   O7        1.0  0.6675007236090805  0.20370393017522298  0.5057938516644712  1.0000
  O   O8        1.0  0.33248372356074896  0.7963006292092983  0.494191525109791  1.0000
