data_image0
_chemical_formula_structural       Cd2H32C48S2N20
_chemical_formula_sum              "Cd2 H32 C48 S2 N20"
_cell_length_a       9.667795419167575
_cell_length_b       12.108720371782201
_cell_length_c       12.549762793805469
_cell_angle_alpha    116.05839488267789
_cell_angle_beta     94.90388967684831
_cell_angle_gamma    106.39919014216001

_space_group_name_H-M_alt    "P 1"
_space_group_IT_number       1

loop_
  _space_group_symop_operation_xyz
  'x, y, z'

loop_
  _atom_site_type_symbol
  _atom_site_label
  _atom_site_symmetry_multiplicity
  _atom_site_fract_x
  _atom_site_fract_y
  _atom_site_fract_z
  _atom_site_occupancy
  Cd  Cd1       1.0  0.2279405928728409  0.23254936106374652  0.570592735309951  1.0000
  Cd  Cd2       1.0  0.7720617863953408  0.7674512399815753  0.4294074336866912  1.0000
  H   H1        1.0  0.6362770949964086  0.04261148013479499  0.6688508648770863  1.0000
  H   H2        1.0  0.3637230316648043  0.9573890312424421  0.33115466324184667  1.0000
  H   H3        1.0  0.478917340675821  0.10320049663281589  0.5529082121766251  1.0000
  H   H4        1.0  0.5210861548106962  0.8967951806668564  0.44709233938805676  1.0000
  H   H5        1.0  0.3439592418412616  0.31586769762638767  0.8593132106189214  1.0000
  H   H6        1.0  0.6560378816154042  0.6841299442087773  0.14068288189118747  1.0000
  H   H7        1.0  0.49417012260676774  0.2653847568559796  0.9885656536634995  1.0000
  H   H8        1.0  0.5058245294346974  0.7346147747924048  0.01143502995581967  1.0000
  H   H9        1.0  0.8424429084344212  0.39280155289606  0.018603348950200837  1.0000
  H   H10       1.0  0.1575531016650941  0.6071931566300534  0.9813898098738176  1.0000
  H   H11       1.0  0.8603181239716945  0.6168851826867864  0.17166951530985108  1.0000
  H   H12       1.0  0.13968035668868584  0.3831105295822964  0.828324270284021  1.0000
  H   H13       1.0  0.6606112038681928  0.4804105895908178  0.3911820212179221  1.0000
  H   H14       1.0  0.3393929198454017  0.5195890660996552  0.6088162916002984  1.0000
  H   H15       1.0  0.6468921737322121  0.2526664293541643  0.25543774758729393  1.0000
  H   H16       1.0  0.3531094310525729  0.7473322032686693  0.7445615199337323  1.0000
  H   H17       1.0  0.041928255239675055  0.2815345047295068  0.1870877848999583  1.0000
  H   H18       1.0  0.9580681887607979  0.7184669944448814  0.8129146789473436  1.0000
  H   H19       1.0  0.1993063839136227  0.34373195258385175  0.3874111147093656  1.0000
  H   H20       1.0  0.8006896970291206  0.6562685725416342  0.6125901076637915  1.0000
  H   H21       1.0  0.8601513409226196  0.09305099859708577  0.44538189378268794  1.0000
  H   H22       1.0  0.1398439655367196  0.906947558105912  0.5546184271148532  1.0000
  H   H23       1.0  0.6984961079992189  0.009595263666859899  0.24244099528289095  1.0000
  H   H24       1.0  0.3015010629710487  0.9904052910491571  0.7575587336336224  1.0000
  H   H25       1.0  0.9791850861144339  0.9617652446154352  0.11935928810055418  1.0000
  H   H26       1.0  0.02081329494887999  0.038238283058987584  0.8806402115567237  1.0000
  H   H27       1.0  0.023798228668070413  0.766144216216297  0.10490043351003914  1.0000
  H   H28       1.0  0.9762041739297371  0.23385928754753837  0.8951041626293444  1.0000
  H   H29       1.0  0.6633240898935001  0.5127535878389722  0.807169162711034  1.0000
  H   H30       1.0  0.33667964572405396  0.48724797619644267  0.19283391724844975  1.0000
  H   H31       1.0  0.6018424352924966  0.69809260993037  0.8085707926783738  1.0000
  H   H32       1.0  0.3981577639206293  0.30190793193387566  0.1914323632315557  1.0000
  C   C1        1.0  0.6557659326070607  0.1024913120121838  0.9091943135292337  1.0000
  C   C2        1.0  0.34423257138294616  0.8975073029754128  0.09080389920737986  1.0000
  C   C3        1.0  0.7227895386005869  0.165693378004292  0.03392884289809217  1.0000
  C   C4        1.0  0.27721078153240325  0.8343072146716463  0.9660703593301674  1.0000
  C   C5        1.0  0.7752024081645814  0.08445806991016268  0.06889706776669158  1.0000
  C   C6        1.0  0.22479713748500524  0.9155405543432877  0.9311012329859522  1.0000
  C   C7        1.0  0.7473805545360576  0.9599413069233121  0.9703708493422026  1.0000
  C   C8        1.0  0.25261860301748834  0.0400592256750798  0.029632218551704177  1.0000
  C   C9        1.0  0.5778795724429743  0.14698239674500968  0.8399879040973984  1.0000
  C   C10       1.0  0.4221203120803734  0.853017191395011  0.16001242886572678  1.0000
  C   C11       1.0  0.5724534607920262  0.1027098162238431  0.7151876581151697  1.0000
  C   C12       1.0  0.4275478042646623  0.8972907450686021  0.2848147950744531  1.0000
  C   C13       1.0  0.48531634993934597  0.13705844678517554  0.6498272632459744  1.0000
  C   C14       1.0  0.5146866595627485  0.8629411691524208  0.35017333376522675  1.0000
  C   C15       1.0  0.41211059184411886  0.2572583196656026  0.8206472935441554  1.0000
  C   C16       1.0  0.5878911330061811  0.7427432563250989  0.17935323817427204  1.0000
  C   C17       1.0  0.4970239765932263  0.2288264969773408  0.8930644256292479  1.0000
  C   C18       1.0  0.5029735816187396  0.7711750419499166  0.10693575402508047  1.0000
  C   C19       1.0  0.7392424767138266  0.3014367993231274  0.12177974994038716  1.0000
  C   C20       1.0  0.2607552769767522  0.6985598574043193  0.8782167705842736  1.0000
  C   C21       1.0  0.8012053546325292  0.4069186418196721  0.09995881670729284  1.0000
  C   C22       1.0  0.1987925433075403  0.5930809684379807  0.9000381772784392  1.0000
  C   C23       1.0  0.8103929553655009  0.5322451710910128  0.184455688250864  1.0000
  C   C24       1.0  0.1896067112039502  0.4677535039741299  0.8155386588201023  1.0000
  C   C25       1.0  0.7023261243872128  0.4565863022826305  0.30870539015025844  1.0000
  C   C26       1.0  0.29767582012566857  0.5434104016705986  0.6912906917021713  1.0000
  C   C27       1.0  0.6926272117640551  0.32886724029464887  0.23067696260049786  1.0000
  C   C28       1.0  0.3073732546252542  0.6711313424129769  0.7693253798498388  1.0000
  C   C29       1.0  0.9994650252904407  0.23523007650334182  0.24054987515944487  1.0000
  C   C30       1.0  0.0005332348530088248  0.764773400359388  0.7594535781795029  1.0000
  C   C31       1.0  0.08589105601026856  0.27255833093121845  0.3532451998569995  1.0000
  C   C32       1.0  0.9141064296497844  0.7274431775090306  0.6467573520063253  1.0000
  C   C33       1.0  0.8994880116596274  0.1302510381031112  0.38458787397472344  1.0000
  C   C34       1.0  0.10050736735163204  0.8697475490869023  0.6154100747138144  1.0000
  C   C35       1.0  0.8083072678636752  0.0838908359094432  0.2707420798330205  1.0000
  C   C36       1.0  0.1916884016533941  0.9161086948424637  0.7292594825386585  1.0000
  C   C37       1.0  0.8599315305280938  0.13406150287293875  0.19465756516264315  1.0000
  C   C38       1.0  0.14006561625820518  0.8659390416807397  0.8053429544902072  1.0000
  C   C39       1.0  0.7834836550952315  0.8487543860322045  0.966193102908832  1.0000
  C   C40       1.0  0.2165165924858456  0.1512461761567252  0.03380847152843099  1.0000
  C   C41       1.0  0.904469495120992  0.8647090850158816  0.0490817663765951  1.0000
  C   C42       1.0  0.09552927318402028  0.1352954268697886  0.9509181840184908  1.0000
  C   C43       1.0  0.9299718803290489  0.7536368181844749  0.040242974162687385  1.0000
  C   C44       1.0  0.0700261610061617  0.2463686381595593  0.9597597111631867  1.0000
  C   C45       1.0  0.7311372813801854  0.6138650726648577  0.8760676069449287  1.0000
  C   C46       1.0  0.2688668414790598  0.3861374755817906  0.12393592375236291  1.0000
  C   C47       1.0  0.696883861785807  0.7183945035697262  0.8766787936820605  1.0000
  C   C48       1.0  0.3031174991524209  0.2816089909282481  0.12332571444130014  1.0000
  S   S1        1.0  0.6592450349735942  0.9451026524429481  0.8364081665674873  1.0000
  S   S2        1.0  0.340747437867158  0.0548939274681857  0.16359028608604828  1.0000
  N   N1        1.0  0.4039785775299549  0.21126772826075058  0.7003313021192809  1.0000
  N   N2        1.0  0.596021766787004  0.7887328745775263  0.29966710937264196  1.0000
  N   N3        1.0  0.7594185076231666  0.5566753366335461  0.2858738035446746  1.0000
  N   N4        1.0  0.24058280665580864  0.4433223524274012  0.7141218502932104  1.0000
  N   N5        1.0  0.038277462425540386  0.21944146500552358  0.423867421516988  1.0000
  N   N6        1.0  0.9617206059548237  0.7805561454461553  0.5761319219544843  1.0000
  N   N7        1.0  0.8457051930223757  0.6291790117764078  0.9567389058736919  1.0000
  N   N8        1.0  0.15429648345997998  0.37082254388962343  0.043263207317401964  1.0000
  N   N9        1.0  0.40994996921397575  0.32404661638055626  0.49565385532744693  1.0000
  N   N10       1.0  0.5900505463976273  0.6759490940955643  0.5043416877711521  1.0000
  N   N11       1.0  0.5018492721542884  0.2758149309489396  0.463341983257905  1.0000
  N   N12       1.0  0.49815250392513366  0.7241788093117447  0.5366544158697905  1.0000
  N   N13       1.0  0.5930138782881613  0.2304901486562585  0.4305145231428539  1.0000
  N   N14       1.0  0.4069857661041495  0.7695035527480271  0.5694832814254552  1.0000
  N   N15       1.0  0.052100592382082284  0.15253828201061734  0.6687265224061462  1.0000
  N   N16       1.0  0.9479019311355898  0.8474652725649103  0.33127412005156714  1.0000
  N   N17       1.0  0.9327452930560723  0.06921530696975961  0.6229660511477348  1.0000
  N   N18       1.0  0.06725463983521254  0.9307843014949385  0.37703270034271696  1.0000
  N   N19       1.0  0.8117070758405872  0.9872727656075282  0.5801456562890406  1.0000
  N   N20       1.0  0.18829714375455348  0.012729823288474098  0.4198547114629178  1.0000
