data_image0
_chemical_formula_structural       Zn2H34C48N2Cl14O8
_chemical_formula_sum              "Zn2 H34 C48 N2 Cl14 O8"
_cell_length_a       14.648578312174184
_cell_length_b       15.141688689427012
_cell_length_c       15.87447778249105
_cell_angle_alpha    91.70213259053872
_cell_angle_beta     89.56809985850468
_cell_angle_gamma    89.93597351981875

_space_group_name_H-M_alt    "P 1"
_space_group_IT_number       1

loop_
  _space_group_symop_operation_xyz
  'x, y, z'

loop_
  _atom_site_type_symbol
  _atom_site_label
  _atom_site_symmetry_multiplicity
  _atom_site_fract_x
  _atom_site_fract_y
  _atom_site_fract_z
  _atom_site_occupancy
  Zn  Zn1       1.0  0.3950031978345405  0.49632296432435646  0.5028240350592199  1.0000
  Zn  Zn2       1.0  0.6025612966735706  0.4994073472297272  0.4980105448048491  1.0000
  H   H1        1.0  0.9362936915741569  0.5238058159932706  0.6247192060335678  1.0000
  H   H2        1.0  0.6441328531859156  0.16881195346864794  0.3255685902662862  1.0000
  H   H3        1.0  0.6877816108616057  0.6410677602630058  0.9259276235156335  1.0000
  H   H4        1.0  0.5767194786233247  0.6865511023015785  0.9207163828689602  1.0000
  H   H5        1.0  0.6164305037329569  0.6127793523193503  0.838966916113236  1.0000
  H   H6        1.0  0.3250303470442616  0.5518080287400622  0.8370841953305046  1.0000
  H   H7        1.0  0.2807409448442967  0.4825931391830807  0.9156943285535988  1.0000
  H   H8        1.0  0.26535196835875036  0.5987626084300715  0.9253174803226614  1.0000
  H   H9        1.0  0.7182578027195914  0.5810056909682045  0.0816933405642928  1.0000
  H   H10       1.0  0.6516181509032818  0.5473124967253752  0.1687866379584619  1.0000
  H   H11       1.0  0.6911882870941141  0.46839310473806245  0.0914760236003147  1.0000
  H   H12       1.0  0.06109025716201439  0.6294450211036986  0.5380977549066657  1.0000
  H   H13       1.0  0.2487036351108712  0.5426187061023665  0.0627466010948368  1.0000
  H   H14       1.0  0.29761956359205743  0.4386944317329053  0.036441457069422305  1.0000
  H   H15       1.0  0.3080493670915486  0.48535770624276603  0.14114025884166642  1.0000
  H   H16       1.0  0.4333629606539232  0.2733879661917483  0.068366771599699  1.0000
  H   H17       1.0  0.4458620805964059  0.3376373263928229  0.16279506443262898  1.0000
  H   H18       1.0  0.3536047271517049  0.35698938429722915  0.0947933988636649  1.0000
  H   H19       1.0  0.6422193839482446  0.37530936522519903  0.0345520204345249  1.0000
  H   H20       1.0  0.598794584187999  0.3724036861272779  0.14042266454650593  1.0000
  H   H21       1.0  0.5759878428599733  0.28558843599347467  0.06643561412077761  1.0000
  H   H22       1.0  0.40639719900389076  0.015463556187718597  0.3846694742467847  1.0000
  H   H23       1.0  0.42255738742957755  0.07160656620474266  0.6173274885545652  1.0000
  H   H24       1.0  0.4648140014555224  0.945189585936738  0.3104386523610572  1.0000
  H   H25       1.0  0.3589067618936639  0.9116362816999554  0.3517082608187962  1.0000
  H   H26       1.0  0.5940840823440181  0.024472795394935094  0.6408307799893792  1.0000
  H   H27       1.0  0.5292568994963958  0.9570496748938311  0.708473429078218  1.0000
  H   H28       1.0  0.6400561921434827  0.9234743032526678  0.6775059143299914  1.0000
  H   H29       1.0  0.5955791304644152  0.04648178979357449  0.3981198200282847  1.0000
  H   H30       1.0  0.36697665520804884  0.2874621947203692  0.6118325956846036  1.0000
  H   H31       1.0  0.3969061691509452  0.20592281530812065  0.6856472466510299  1.0000
  H   H32       1.0  0.47076032160639864  0.29615006837203584  0.6665780347695147  1.0000
  H   H33       1.0  0.5921815472275114  0.2741603296852517  0.3444733876085095  1.0000
  H   H34       1.0  0.6911367535841747  0.24639763734152348  0.3999904796775482  1.0000
  C   C1        1.0  0.5201573146799632  0.6650400237877249  0.5034870667463025  1.0000
  C   C2        1.0  0.5418080055796111  0.8138026464383401  0.5766967129264842  1.0000
  C   C3        1.0  0.5136699000379535  0.7642526410750109  0.5058500470918261  1.0000
  C   C4        1.0  0.5041773660987374  0.9498371246993712  0.5096961524471553  1.0000
  C   C5        1.0  0.4633614632918465  0.10195440470119618  0.5681885901598136  1.0000
  C   C6        1.0  0.5603591824651487  0.0880330485797174  0.4454650587101838  1.0000
  C   C7        1.0  0.4740780981919314  0.4974226861429115  0.6610195215582308  1.0000
  C   C8        1.0  0.47044416766520664  0.1940330660516096  0.567969248273272  1.0000
  C   C9        1.0  0.5697621878235208  0.17976670725288102  0.44286128775541306  1.0000
  C   C10       1.0  0.5240801807319143  0.23257071099817486  0.5045251435226916  1.0000
  C   C11       1.0  0.5078967345246994  0.047970797617566084  0.5076977840084994  1.0000
  C   C12       1.0  0.4927731958159071  0.40154443089529934  0.0507039293606368  1.0000
  C   C13       1.0  0.9006166151317315  0.5137239254314991  0.5653596007324353  1.0000
  C   C14       1.0  0.09726830399984719  0.5686789199844428  0.5209516458234235  1.0000
  C   C15       1.0  0.8055284656419202  0.5171124461437698  0.5635459391188817  1.0000
  C   C16       1.0  0.19216512949784456  0.565237945513836  0.5262668525244294  1.0000
  C   C17       1.0  0.8032870894810599  0.4861257114001916  0.4205336070876769  1.0000
  C   C18       1.0  0.195862736868257  0.42048259984898817  0.47693747311786444  1.0000
  C   C19       1.0  0.8993329485882808  0.4850547672524995  0.41553574675785404  1.0000
  C   C20       1.0  0.09993754344945667  0.41655927602521803  0.472714423661607  1.0000
  C   C21       1.0  0.9488193779758305  0.4965161088805202  0.4905613015666646  1.0000
  C   C22       1.0  0.049901160057061085  0.4935935096762591  0.4932166166165928  1.0000
  C   C23       1.0  0.47856521388719386  0.4024909035651447  0.9519649193071801  1.0000
  C   C24       1.0  0.5292623977610802  0.3312315580555066  0.5008777478259177  1.0000
  C   C25       1.0  0.4683746245816423  0.4995618550197705  0.3414145840469445  1.0000
  C   C26       1.0  0.4029979436576878  0.5620340442253848  0.952138306233671  1.0000
  C   C27       1.0  0.5847502410827161  0.545260176811098  0.953281383424617  1.0000
  C   C28       1.0  0.5773487242338291  0.5564122828947262  0.0529158433487709  1.0000
  C   C29       1.0  0.3943593235865066  0.549976368510471  0.050845472204613905  1.0000
  C   C30       1.0  0.4729090503248229  0.5025925371827782  0.2506141759441007  1.0000
  C   C31       1.0  0.4899185333967821  0.5020547704667989  0.9187245472199239  1.0000
  C   C32       1.0  0.48711592266963066  0.5051294505362661  0.0837627652435486  1.0000
  C   C33       1.0  0.42359855567255517  0.248598673054552  0.6365356933480726  1.0000
  C   C34       1.0  0.48270992171465094  0.5053108709930144  0.17474205151459907  1.0000
  C   C35       1.0  0.6272388595361278  0.2191651934628638  0.37439063856673743  1.0000
  C   C36       1.0  0.6172074469869103  0.6277747686188562  0.9069871821089777  1.0000
  C   C37       1.0  0.31259035284654146  0.5460393847533634  0.9048101036987647  1.0000
  C   C38       1.0  0.6650583823384506  0.5350564129311978  0.10141707138875232  1.0000
  C   C39       1.0  0.30702211025387527  0.4994166339666535  0.0738608986251776  1.0000
  C   C40       1.0  0.4254795243333618  0.3399750753384295  0.09656894200225001  1.0000
  C   C41       1.0  0.5844236507389909  0.35726650772955537  0.07384196388411371  1.0000
  C   C42       1.0  0.4224197436309964  0.946486069558773  0.36799760481419236  1.0000
  C   C43       1.0  0.5780828001264666  0.9559928148572678  0.6553550958007435  1.0000
  C   C44       1.0  0.4887923285981655  0.499481380536693  0.8278251822660323  1.0000
  C   C45       1.0  0.48038019138429877  0.49838710700598904  0.7518725091595613  1.0000
  C   C46       1.0  0.46906646430122817  0.9018185651192211  0.4393511963026242  1.0000
  C   C47       1.0  0.5400933100496274  0.906511836246622  0.5799492566665451  1.0000
  C   C48       1.0  0.4769714553399211  0.8094214211052914  0.4383016482683502  1.0000
  N   N1        1.0  0.7574381427734024  0.5020432036256253  0.4929706275239099  1.0000
  N   N2        1.0  0.2409273654677619  0.49325208859513475  0.5033572365779619  1.0000
  Cl  Cl1       1.0  0.37002022125325595  0.6534517257788863  0.10820874929342493  1.0000
  Cl  Cl2       1.0  0.6821359554717146  0.47320716685329955  0.9242369911472111  1.0000
  Cl  Cl3       1.0  0.3694579724754732  0.35510792665606056  0.9207309040626158  1.0000
  Cl  Cl4       1.0  0.5522001245152593  0.32499975123247543  0.8953993318841855  1.0000
  Cl  Cl5       1.0  0.44189940637244246  0.7488824010452219  0.3496465179925963  1.0000
  Cl  Cl6       1.0  0.579037626200943  0.7573558302591933  0.6640566502575425  1.0000
  Cl  Cl7       1.0  0.5696565342647728  0.6741591423070971  0.0817286893431231  1.0000
  Cl  Cl8       1.0  0.7471689263412457  0.5408416198889084  0.6549019443845269  1.0000
  Cl  Cl9       1.0  0.24929650532706654  0.656240137481774  0.5636528135570205  1.0000
  Cl  Cl10      1.0  0.7409038720988403  0.4668668677219613  0.3318419416726712  1.0000
  Cl  Cl11      1.0  0.2590466991185281  0.32979175927287224  0.4487494521888848  1.0000
  Cl  Cl12      1.0  0.9539416390509883  0.47317500561177894  0.3202193482021158  1.0000
  Cl  Cl13      1.0  0.0459982876938412  0.3194671353292192  0.446802217722194  1.0000
  Cl  Cl14      1.0  0.4208001369934564  0.6762945124601032  0.9242441441305118  1.0000
  O   O1        1.0  0.4452621808234553  0.6239870762214751  0.5071578042710527  1.0000
  O   O2        1.0  0.6000548130311001  0.6317098706866416  0.4983124023244017  1.0000
  O   O3        1.0  0.39373270475934413  0.4949678202055523  0.6300795548719621  1.0000
  O   O4        1.0  0.5493221177466623  0.4989716786203147  0.6213544718307845  1.0000
  O   O5        1.0  0.453535052782108  0.3718209315076493  0.4995771645429628  1.0000
  O   O6        1.0  0.6082540279377397  0.36729242507114185  0.4984665568598814  1.0000
  O   O7        1.0  0.3892495307819814  0.4975785324685588  0.3757230686997843  1.0000
  O   O8        1.0  0.5449233069832005  0.4984413135171266  0.3780000775967309  1.0000
