data_image0
_chemical_formula_structural       Cu2H20C12Br4N16Cl4
_chemical_formula_sum              "Cu2 H20 C12 Br4 N16 Cl4"
_cell_length_a       6.892479860084895
_cell_length_b       7.588165800063737
_cell_length_c       13.173735692546622
_cell_angle_alpha    92.35184700206034
_cell_angle_beta     89.99931599997448
_cell_angle_gamma    90.00018184346484

_space_group_name_H-M_alt    "P 1"
_space_group_IT_number       1

loop_
  _space_group_symop_operation_xyz
  'x, y, z'

loop_
  _atom_site_type_symbol
  _atom_site_label
  _atom_site_symmetry_multiplicity
  _atom_site_fract_x
  _atom_site_fract_y
  _atom_site_fract_z
  _atom_site_occupancy
  Cu  Cu1       1.0  0.9999977800351305  0.49999444818648436  0.9999997641576857  1.0000
  Cu  Cu2       1.0  0.499994529261123  0.9999916466447233  0.9999981684803247  1.0000
  H   H1        1.0  0.5583026752614018  0.5510761374886286  0.09131487806175193  1.0000
  H   H2        1.0  0.05831136992634361  0.9489277091787757  0.9086766297262943  1.0000
  H   H3        1.0  0.4416918640562032  0.4489292494135384  0.9086929199357103  1.0000
  H   H4        1.0  0.941686071280827  0.05105771827781071  0.09131482816344773  1.0000
  H   H5        1.0  0.34217654502611333  0.5365330174613164  0.25002761633017917  1.0000
  H   H6        1.0  0.8421896124317669  0.96347142228673  0.7499715675350418  1.0000
  H   H7        1.0  0.6578310520676781  0.46348024120887044  0.7499765434767769  1.0000
  H   H8        1.0  0.15781363220708758  0.0365219270909307  0.250020807793419  1.0000
  H   H9        1.0  0.47522037365265385  0.6384461263821991  0.35370430820501053  1.0000
  H   H10       1.0  0.9752285344748728  0.8615598632297221  0.6462942294293796  1.0000
  H   H11       1.0  0.5247785182578398  0.3615605627299843  0.6463019976086387  1.0000
  H   H12       1.0  0.024777611900340404  0.13844007242068557  0.3536975184440224  1.0000
  H   H13       1.0  0.5561447714898905  0.3277707120722084  0.4123014993112833  1.0000
  H   H14       1.0  0.056149300473627796  0.17223390086832074  0.5876949001730553  1.0000
  H   H15       1.0  0.4438439644166364  0.6722373043170788  0.5877055921606741  1.0000
  H   H16       1.0  0.9438539441397394  0.8277673955050561  0.4123006704142399  1.0000
  H   H17       1.0  0.38738655073285594  0.2421264970265042  0.31912737110522477  1.0000
  H   H18       1.0  0.8873933162678185  0.2578800516224575  0.6808711764764724  1.0000
  H   H19       1.0  0.6126123412877504  0.7578840652648325  0.6808714211160665  1.0000
  H   H20       1.0  0.11260992827896392  0.7421186570582208  0.3191288969934121  1.0000
  C   C1        1.0  0.6688295719693828  0.5171315240107361  0.1457711253442184  1.0000
  C   C2        1.0  0.16883408528690316  0.9828699686162353  0.8542281229070812  1.0000
  C   C3        1.0  0.3311751232856749  0.4828752319856164  0.854241254602613  1.0000
  C   C4        1.0  0.8311517490776552  0.0171207345343731  0.14576344046860612  1.0000
  C   C5        1.0  0.4604539543058266  0.5189036870229984  0.30446533978017953  1.0000
  C   C6        1.0  0.9604627674208572  0.9811035958834468  0.6955332988688314  1.0000
  C   C7        1.0  0.539550741061987  0.4811135451425272  0.695540417663537  1.0000
  C   C8        1.0  0.0395303212268416  0.0188923913374452  0.3044591292136047  1.0000
  C   C9        1.0  0.4277214224659005  0.35745504773515796  0.3672094323470746  1.0000
  C   C10       1.0  0.9277188180954781  0.14255418369273087  0.6327866862669183  1.0000
  C   C11       1.0  0.5722789203909144  0.6425608153412201  0.6327917431326002  1.0000
  C   C12       1.0  0.07228152478675298  0.8574484483239361  0.3672104292288268  1.0000
  Br  Br1       1.0  0.7873767263624953  0.2665112456763409  0.9221459440347817  1.0000
  Br  Br2       1.0  0.2873778916018138  0.23347932733461363  0.07785507059960393  1.0000
  Br  Br3       1.0  0.21262071472188634  0.7334795661629414  0.0778554898018271  1.0000
  Br  Br4       1.0  0.7126297055198947  0.7665167351378983  0.9221441908624899  1.0000
  N   N1        1.0  0.6387954539768472  0.49785471884319327  0.24520618827014573  1.0000
  N   N2        1.0  0.1388048680919383  0.002152733940803799  0.7547951609663103  1.0000
  N   N3        1.0  0.3612063396955634  0.5021558936100163  0.7547971595546913  1.0000
  N   N4        1.0  0.8612157866548314  0.9978420764961555  0.24521014824647844  1.0000
  N   N5        1.0  0.8102671520214599  0.45843823902721687  0.28999961192459284  1.0000
  N   N6        1.0  0.3102735990684947  0.041562891690951204  0.7099984608124432  1.0000
  N   N7        1.0  0.18974044507218932  0.5415644515149866  0.7100028184321943  1.0000
  N   N8        1.0  0.6897281946523178  0.9584305078448027  0.28999847013056984  1.0000
  N   N9        1.0  0.9410367065520263  0.4546340393167513  0.21933515881040933  1.0000
  N   N10       1.0  0.4410528682515462  0.04536205941987251  0.7806636658727016  1.0000
  N   N11       1.0  0.058959283655262595  0.5453567892410476  0.7806677935668205  1.0000
  N   N12       1.0  0.5589489254794984  0.9546313317559908  0.21933250580183034  1.0000
  N   N13       1.0  0.8569681221499933  0.49093070760578433  0.12891257223797944  1.0000
  N   N14       1.0  0.3569715235389666  0.009066547396834301  0.8710851853160336  1.0000
  N   N15       1.0  0.14302641714949968  0.5090601627502167  0.8710941764853289  1.0000
  N   N16       1.0  0.6430346226697169  0.9909216349578428  0.12891695503874703  1.0000
  Cl  Cl1       1.0  0.23438934963357377  0.4037903965397333  0.45451427202297623  1.0000
  Cl  Cl2       1.0  0.7343917994602407  0.09621063590319781  0.5454872214007765  1.0000
  Cl  Cl3       1.0  0.7655892304020142  0.5962135543840646  0.5454828698919344  1.0000
  Cl  Cl4       1.0  0.26560419083424597  0.9037933317555017  0.45451143900709223  1.0000
