data_image0
_chemical_formula_structural       Al2H10C24S2O12F2
_chemical_formula_sum              "Al2 H10 C24 S2 O12 F2"
_cell_length_a       6.6206598297016654
_cell_length_b       12.911710169121628
_cell_length_c       17.679579572702202
_cell_angle_alpha    81.72444556408512
_cell_angle_beta     81.57394585710873
_cell_angle_gamma    71.43228348079673

_space_group_name_H-M_alt    "P 1"
_space_group_IT_number       1

loop_
  _space_group_symop_operation_xyz
  'x, y, z'

loop_
  _atom_site_type_symbol
  _atom_site_label
  _atom_site_symmetry_multiplicity
  _atom_site_fract_x
  _atom_site_fract_y
  _atom_site_fract_z
  _atom_site_occupancy
  Al  Al1       1.0  0.49999564456181395  0.49995768956241443  0.5000169631900204  1.0000
  Al  Al2       1.0  3.191186112865393e-05  0.4999612874914091  0.4999951115483368  1.0000
  H   H1        1.0  0.30110076659641993  0.3796989983543638  0.5654547686200074  1.0000
  H   H2        1.0  0.6991071776268427  0.6201354681981782  0.4344600660768945  1.0000
  H   H3        1.0  0.6981000650838284  0.4418350526396323  0.2780659539506728  1.0000
  H   H4        1.0  0.7772438021333556  0.44447861483356366  0.13563444258966229  1.0000
  H   H5        1.0  0.09710698991305126  0.5314490989343738  0.11782784854175078  1.0000
  H   H6        1.0  0.9028021112783405  0.46896188528025107  0.8821564999874024  1.0000
  H   H7        1.0  0.30185611161418535  0.5580371897321328  0.7219203008138064  1.0000
  H   H8        1.0  0.2227400353130093  0.5554479576409647  0.8643554761925851  1.0000
  H   H9        1.0  0.5075603452362857  0.8860753738156287  0.456478409700267  1.0000
  H   H10       1.0  0.4925246811367072  0.11381761758610759  0.5435382640823646  1.0000
  C   C1        1.0  0.8734854056936144  0.3035494072057078  0.5082828193637637  1.0000
  C   C2        1.0  0.6769053449277463  0.5149921285747895  0.6360040142496997  1.0000
  C   C3        1.0  0.12659338979977974  0.6963550676410291  0.4917333612946847  1.0000
  C   C4        1.0  0.323146761337938  0.48503473698745136  0.3639817290055871  1.0000
  C   C5        1.0  0.35869616482877126  0.48250084054337333  0.2787334190308569  1.0000
  C   C6        1.0  0.5691932914226001  0.45945423896581866  0.24184297918655767  1.0000
  C   C7        1.0  0.6128363648376264  0.4617706262521821  0.1626251764171087  1.0000
  C   C8        1.0  0.44340955009010224  0.4886031258845378  0.11609089804167638  1.0000
  C   C9        1.0  0.23176974193595604  0.5102723461163449  0.15181367357625664  1.0000
  C   C10       1.0  0.19343986811421127  0.5067043860057224  0.23124435924747636  1.0000
  C   C11       1.0  0.48335630750720066  0.49602354130528414  0.03501639925322309  1.0000
  C   C12       1.0  0.5165656380574788  0.5041429398475827  0.9649753032459638  1.0000
  C   C13       1.0  0.5565252577853882  0.5115483709945465  0.8839034128220931  1.0000
  C   C14       1.0  0.7681208588340099  0.49008427817785355  0.8481890878693643  1.0000
  C   C15       1.0  0.806468005758731  0.49358468640126313  0.7687466751037916  1.0000
  C   C16       1.0  0.6412591443069714  0.5176366014704142  0.7212476492520918  1.0000
  C   C17       1.0  0.43076862815585326  0.5405285702452004  0.7581354819240145  1.0000
  C   C18       1.0  0.38711312632203476  0.5382887673557021  0.8373498438627888  1.0000
  C   C19       1.0  0.21712858953792857  0.8776623310397864  0.476641875282503  1.0000
  C   C20       1.0  0.7829552102548191  0.12225217051916099  0.5233924692520375  1.0000
  C   C21       1.0  0.07567001348908067  0.8149234105425761  0.49277893477234586  1.0000
  C   C22       1.0  0.9244236890993207  0.18498221972278367  0.5072401738068775  1.0000
  C   C23       1.0  0.8908769681210202  0.010161151158307303  0.5122821628245048  1.0000
  C   C24       1.0  0.10921768039802507  0.9897567741058567  0.4877585904977264  1.0000
  S   S1        1.0  0.8145293161662719  0.8925068907586532  0.523029163933927  1.0000
  S   S2        1.0  0.1855608121649439  0.10738833911201338  0.4770130676498566  1.0000
  O   O1        1.0  0.6768139842407662  0.3552243558190184  0.525112178488399  1.0000
  O   O2        1.0  0.869117717201611  0.48951886148685014  0.60420836773023  1.0000
  O   O3        1.0  0.9737048074679605  0.6537646061705683  0.5073330844707156  1.0000
  O   O4        1.0  0.49047493949219517  0.4641171392001553  0.398143028366128  1.0000
  O   O5        1.0  0.32329547154935784  0.6446626967551762  0.4748779132797336  1.0000
  O   O6        1.0  0.1308905196184113  0.510440085284074  0.3958114786390893  1.0000
  O   O7        1.0  0.02637083422575874  0.34614926021585285  0.4926888000980511  1.0000
  O   O8        1.0  0.5095653632092618  0.5358218276252702  0.6018281809114399  1.0000
  O   O9        1.0  0.26392630726810035  0.45279373595565875  0.5381647734079847  1.0000
  O   O10       1.0  0.7361104844857708  0.5471064691684119  0.46185384141258345  1.0000
  O   O11       1.0  0.42723646968187984  0.8353517310647192  0.45258948893315654  1.0000
  O   O12       1.0  0.5728260187665128  0.16455514195477863  0.547431507545127  1.0000
  F   F1        1.0  0.9851699200179667  0.5294054583142227  0.26131469205398616  1.0000
  F   F2        1.0  0.014668224310582907  0.4709818270124018  0.7386556107011442  1.0000
