data_image0
_chemical_formula_structural       Ag2H16C28N6O6
_chemical_formula_sum              "Ag2 H16 C28 N6 O6"
_cell_length_a       8.56678096502427
_cell_length_b       9.385369400251449
_cell_length_c       9.732442644757365
_cell_angle_alpha    90.71331103630918
_cell_angle_beta     112.48798487347884
_cell_angle_gamma    116.92303935917394

_space_group_name_H-M_alt    "P 1"
_space_group_IT_number       1

loop_
  _space_group_symop_operation_xyz
  'x, y, z'

loop_
  _atom_site_type_symbol
  _atom_site_label
  _atom_site_symmetry_multiplicity
  _atom_site_fract_x
  _atom_site_fract_y
  _atom_site_fract_z
  _atom_site_occupancy
  Ag  Ag1       1.0  0.7102105195480063  0.5273144887701874  0.6019714676348187  1.0000
  Ag  Ag2       1.0  0.2897844999051741  0.4726894725409422  0.39802801980961516  1.0000
  H   H1        1.0  0.8389208488389388  0.11145915622383028  0.8087282842990293  1.0000
  H   H2        1.0  0.1610662614938362  0.8885397692757806  0.1912654355606875  1.0000
  H   H3        1.0  0.7148628928163916  0.0273673600424758  0.0033318120178051627  1.0000
  H   H4        1.0  0.285135253159005  0.9726354348433899  0.9966666605941299  1.0000
  H   H5        1.0  0.6360751168208479  0.7485479991793298  0.056717878288530664  1.0000
  H   H6        1.0  0.3639350200169176  0.2514647984970182  0.9432918735775574  1.0000
  H   H7        1.0  0.6555780497577217  0.554028633561124  0.8912634669076951  1.0000
  H   H8        1.0  0.34442699652993275  0.4459840873558321  0.10874766060404542  1.0000
  H   H9        1.0  0.7550334849899017  0.15024294877114386  0.23056676678681506  1.0000
  H   H10       1.0  0.24495149025101867  0.8497499345119407  0.7694333894477126  1.0000
  H   H11       1.0  0.8873123180445431  0.3685605151036242  0.09115483286526432  1.0000
  H   H12       1.0  0.11267995691241581  0.6314251901613873  0.9088415569872765  1.0000
  H   H13       1.0  0.9301704460006873  0.6445996090487184  0.16510172386035288  1.0000
  H   H14       1.0  0.06984988542988184  0.3553999730691118  0.834901081395948  1.0000
  H   H15       1.0  0.8395578421379924  0.6949510222712902  0.3687134960578788  1.0000
  H   H16       1.0  0.1604556133512034  0.3050520479447841  0.6312860002151908  1.0000
  C   C1        1.0  0.8955208186523577  0.9246154992756958  0.6422472368678669  1.0000
  C   C2        1.0  0.10448949128401348  0.0753730318453165  0.3577593275373872  1.0000
  C   C3        1.0  0.9639961048988822  0.9743438301098523  0.5511181944753218  1.0000
  C   C4        1.0  0.0360193051949409  0.025615721193744896  0.44889091250473  1.0000
  C   C5        1.0  0.8202864084553808  0.8783748232559744  0.7508746994932451  1.0000
  C   C6        1.0  0.1797139996947479  0.12162077992532262  0.2491285932196874  1.0000
  C   C7        1.0  0.8039403885750288  0.9908516970280774  0.8336274613535507  1.0000
  C   C8        1.0  0.1960563556879151  0.009148627342128198  0.16636846976281558  1.0000
  C   C9        1.0  0.7353630468253485  0.9438288108592944  0.9429666197792345  1.0000
  C   C10       1.0  0.2646267132461801  0.0561725750619857  0.057025949775876904  1.0000
  C   C11       1.0  0.687587565422575  0.787163454045377  0.97003405576789  1.0000
  C   C12       1.0  0.312416764863471  0.2128480135929323  0.029973740756823016  1.0000
  C   C13       1.0  0.7005752946761987  0.6802780074040555  0.8802807490080369  1.0000
  C   C14       1.0  0.29942709430000747  0.31973224408083917  0.1197304986886962  1.0000
  C   C15       1.0  0.5530999107605937  0.0661421747053907  0.47949125477428833  1.0000
  C   C16       1.0  0.44689147509615157  0.9338665438363023  0.520504991552059  1.0000
  C   C17       1.0  0.6461309520794744  0.18771153374844116  0.4405348566656144  1.0000
  C   C18       1.0  0.35385293862641726  0.8122861496500988  0.55946188568781  1.0000
  C   C19       1.0  0.7323338410771641  0.31145920025737445  0.3709477331661618  1.0000
  C   C20       1.0  0.2676604623744153  0.6885435077751083  0.6290484232912519  1.0000
  C   C21       1.0  0.780147607740986  0.27393774477484106  0.25755485163072234  1.0000
  C   C22       1.0  0.21984317405165393  0.7260564685462754  0.7424472599451732  1.0000
  C   C23       1.0  0.8523891973719202  0.39400465441308086  0.18189850746467331  1.0000
  C   C24       1.0  0.14760506433098886  0.6059823210678273  0.8181006119335663  1.0000
  C   C25       1.0  0.8734928873358639  0.5474140299873724  0.2211858381091431  1.0000
  C   C26       1.0  0.12651444442417403  0.45258043955955424  0.7788125752080931  1.0000
  C   C27       1.0  0.8259743599619114  0.5770898446517377  0.336128274641723  1.0000
  C   C28       1.0  0.17404038141700784  0.4229132605223995  0.6638726804292645  1.0000
  N   N1        1.0  0.7627199191493047  0.7221308559413941  0.7716512620856903  1.0000
  N   N2        1.0  0.23727621512965408  0.2778683412959353  0.22835575971832606  1.0000
  N   N3        1.0  0.7579462750285089  0.46283987648276786  0.41157766179192384  1.0000
  N   N4        1.0  0.24205579900268484  0.5371654047724091  0.588420089193704  1.0000
  N   N5        1.0  0.5800712355949855  0.26075507219226074  0.7837427080987425  1.0000
  N   N6        1.0  0.41992942157838087  0.7392477205264356  0.2162504411520842  1.0000
  O   O1        1.0  0.7613403740074388  0.33381187974408977  0.8186671613503052  1.0000
  O   O2        1.0  0.23866019006126743  0.6661885044482573  0.18132799556172327  1.0000
  O   O3        1.0  0.47359706974456367  0.31083963794321784  0.6908528191874197  1.0000
  O   O4        1.0  0.5264058745540011  0.6891582905035492  0.30913387142661714  1.0000
  O   O5        1.0  0.5064767881615425  0.14272919918554555  0.8407382403611834  1.0000
  O   O6        1.0  0.49352086588500993  0.8572772045264259  0.15925803653940554  1.0000
