data_image0
_chemical_formula_structural       Zn8H60C60Cl2O26
_chemical_formula_sum              "Zn8 H60 C60 Cl2 O26"
_cell_length_a       18.41946167061406
_cell_length_b       18.52741563674031
_cell_length_c       18.573561893235627
_cell_angle_alpha    90.85954777980199
_cell_angle_beta     119.49675621186496
_cell_angle_gamma    119.35449298910714

_space_group_name_H-M_alt    "P 1"
_space_group_IT_number       1

loop_
  _space_group_symop_operation_xyz
  'x, y, z'

loop_
  _atom_site_type_symbol
  _atom_site_label
  _atom_site_symmetry_multiplicity
  _atom_site_fract_x
  _atom_site_fract_y
  _atom_site_fract_z
  _atom_site_occupancy
  Zn  Zn1       1.0  0.08516450130218083  0.954719169444225  0.5448422916847094  1.0000
  Zn  Zn2       1.0  0.08855715998527808  0.12853558597512918  0.5405137339433352  1.0000
  Zn  Zn3       1.0  0.9151891632471346  0.9530092221360321  0.5450848402908619  1.0000
  Zn  Zn4       1.0  0.9116088710892497  0.9564339185879688  0.3717595826983598  1.0000
  Zn  Zn5       1.0  0.9066656588198893  0.5397903568931424  0.9567266493007338  1.0000
  Zn  Zn6       1.0  0.08470355135249004  0.5422852732424205  0.9590121304124397  1.0000
  Zn  Zn7       1.0  0.9191284654001419  0.3739389118695441  0.9603566265997829  1.0000
  Zn  Zn8       1.0  0.08537991384661561  0.5447480441960975  0.13289033204901554  1.0000
  H   H1        1.0  0.07062920508631243  0.7994596434923692  0.723822042020906  1.0000
  H   H2        1.0  0.07496777880557905  0.3433829243114914  0.8089593742292893  1.0000
  H   H3        1.0  0.8893691119053954  0.09370379332571589  0.7014491738649442  1.0000
  H   H4        1.0  0.03736476970268385  0.26278779580590583  0.6898810616110325  1.0000
  H   H5        1.0  0.5743929733383268  0.3190960028057431  0.833978666406239  1.0000
  H   H6        1.0  0.4198302371223475  0.2540438692465798  0.6714127324747282  1.0000
  H   H7        1.0  0.2761677102702151  0.05627034038039371  0.3372822695917463  1.0000
  H   H8        1.0  0.8997600724214789  0.713245580682674  0.8072475385091665  1.0000
  H   H9        1.0  0.03306520730244227  0.6851943108345467  0.7726509926737536  1.0000
  H   H10       1.0  0.8936485932872458  0.7973766447027373  0.7051073665651376  1.0000
  H   H11       1.0  0.696102871271428  0.591205824668215  0.3132608360537788  1.0000
  H   H12       1.0  0.411114796023952  0.6750826846862951  0.3111376401106085  1.0000
  H   H13       1.0  0.7544863464612843  0.7060374000357756  0.351921386575917  1.0000
  H   H14       1.0  0.6323171402206427  0.6380683771624548  0.2512838597025748  1.0000
  H   H15       1.0  0.7686676449358599  0.7231595257049507  0.22473320293884308  1.0000
  H   H16       1.0  0.7061988198679003  0.608638760501023  0.18178000001667266  1.0000
  H   H17       1.0  0.8470945498885598  0.6129440665793737  0.3064519011049996  1.0000
  H   H18       1.0  0.9008088356001378  0.7192101951212422  0.3671337323613669  1.0000
  H   H19       1.0  0.6081299308021998  0.04919495090265971  0.27967731926609235  1.0000
  H   H20       1.0  0.47648943657071596  0.9620621269288063  0.2115029111073808  1.0000
  H   H21       1.0  0.5292498128547293  0.0287642848398164  0.3162876109184866  1.0000
  H   H22       1.0  0.5057377580802079  0.8859866749406036  0.32621847691479633  1.0000
  H   H23       1.0  0.41456559273053956  0.7044928896421181  0.14979629379290313  1.0000
  H   H24       1.0  0.6366519625032578  0.9708660510324164  0.3891685042038517  1.0000
  H   H25       1.0  0.6407539553324282  0.9300283143839606  0.2597387568432196  1.0000
  H   H26       1.0  0.5114516493264387  0.8428393064439278  0.20312866375462582  1.0000
  H   H27       1.0  0.668756464439717  0.10564409703676599  0.11160107783461383  1.0000
  H   H28       1.0  0.6543757294848831  0.003193643534928  0.10318555277562069  1.0000
  H   H29       1.0  0.6121699270542892  0.0337872113435722  0.15785795303467165  1.0000
  H   H30       1.0  0.7785987017941807  0.05518729856798639  0.267806944823974  1.0000
  H   H31       1.0  0.7929663050027996  0.15722265133693716  0.276848023458605  1.0000
  H   H32       1.0  0.8563224703186305  0.18381754951057874  0.18050660910198252  1.0000
  H   H33       1.0  0.8465551006724753  0.0837720015356993  0.17568650661945648  1.0000
  H   H34       1.0  0.5945653027432979  0.7304254465262969  0.37459267262674695  1.0000
  H   H35       1.0  0.6461020514049308  0.1693914553152993  0.6048748552565897  1.0000
  H   H36       1.0  0.5796341750399067  0.06321500351627658  0.6106347423230007  1.0000
  H   H37       1.0  0.5209980561162766  0.08593290902049938  0.5134113297110761  1.0000
  H   H38       1.0  0.4499991806671985  0.0870390475763898  0.5980393345297941  1.0000
  H   H39       1.0  0.5173427918304582  0.19274243534126606  0.5940827505391439  1.0000
  H   H40       1.0  0.6727659416651973  0.2340655141973826  0.7458816127825331  1.0000
  H   H41       1.0  0.5989701048970133  0.13068529722647776  0.7496423492801015  1.0000
  H   H42       1.0  0.27856813571749917  0.9304855466339957  0.7573627072887561  1.0000
  H   H43       1.0  0.40476902286200545  0.9619223856566633  0.8348608465415879  1.0000
  H   H44       1.0  0.3414707896059281  0.9825091756598923  0.8709839520658562  1.0000
  H   H45       1.0  0.09282563173696431  0.39944034411575297  0.3129623746194099  1.0000
  H   H46       1.0  0.4658589630191088  0.12249895566552033  0.8671908150166061  1.0000
  H   H47       1.0  0.3397293528783364  0.08910857763924437  0.789462666146818  1.0000
  H   H48       1.0  0.3377345832725638  0.018555257140477007  0.671023615958454  1.0000
  H   H49       1.0  0.46661050968376117  0.057549012826527204  0.7497492493969632  1.0000
  H   H50       1.0  0.6999975621084502  0.4102247433270493  0.02231207724554454  1.0000
  H   H51       1.0  0.6447394824114522  0.4199399146098201  0.0745638890402985  1.0000
  H   H52       1.0  0.6052573044499708  0.4312064226548955  0.969251027024072  1.0000
  H   H53       1.0  0.7234564311717263  0.5802951165768349  0.08497306051930319  1.0000
  H   H54       1.0  0.7780067281814168  0.569870610918379  0.03337408106732911  1.0000
  H   H55       1.0  0.8783504842149695  0.5328387602527087  0.15667129907950522  1.0000
  H   H56       1.0  0.9684214838754668  0.2367807709316878  0.15190252023426618  1.0000
  H   H57       1.0  0.823033542553503  0.5402891095454335  0.2083429066954351  1.0000
  H   H58       1.0  0.11325569346861641  0.29662015064784714  0.394638236585827  1.0000
  H   H59       1.0  0.8774600266791452  0.19142585610735807  0.7816085603579667  1.0000
  H   H60       1.0  0.14410560956596172  0.9811031828619363  0.3659105631925854  1.0000
  C   C1        1.0  0.9851447347275623  0.13418953745401296  0.3607318790985163  1.0000
  C   C2        1.0  0.9893689333653625  0.6802545810216002  0.7983155843918299  1.0000
  C   C3        1.0  0.9476299999474093  0.7793983512301637  0.727286174684501  1.0000
  C   C4        1.0  0.008208389747103443  0.8655826120763307  0.6450306489440649  1.0000
  C   C5        1.0  0.012544047100071473  0.8120830991482749  0.7030862458875121  1.0000
  C   C6        1.0  0.44610479006298914  0.7026716861357585  0.2761030429665396  1.0000
  C   C7        1.0  0.3843167739716263  0.6840918856716698  0.189067586453703  1.0000
  C   C8        1.0  0.5563059790846194  0.7541140477377154  0.3257242448451833  1.0000
  C   C9        1.0  0.6158913521498445  0.8300831325774779  0.31862257926331944  1.0000
  C   C10       1.0  0.04942792239690861  0.32935055108799816  0.2773041191999043  1.0000
  C   C11       1.0  0.006933464321782877  0.3045045746511478  0.1901530678667598  1.0000
  C   C12       1.0  0.15585942853451215  0.845122664414582  0.21468078331014337  1.0000
  C   C13       1.0  0.04553168806867799  0.27025770980681335  0.3276966963377603  1.0000
  C   C14       1.0  0.9663879192644061  0.18590986125936834  0.3010685293548578  1.0000
  C   C15       1.0  0.9380508684358163  0.22147531623056688  0.7713598831062357  1.0000
  C   C16       1.0  0.2743285629425145  0.1368653587473219  0.6295187295221325  1.0000
  C   C17       1.0  0.009864676009293227  0.308837385849948  0.8129238069708579  1.0000
  C   C18       1.0  0.9369731282327648  0.16461155674276276  0.7158809454444466  1.0000
  C   C19       1.0  0.9903134143870247  0.19324502167369662  0.680352321247675  1.0000
  C   C20       1.0  0.55530373815796  0.21765560087010977  0.7569151004636937  1.0000
  C   C21       1.0  0.6118445516163931  0.2970364496763481  0.8185382050075419  1.0000
  C   C22       1.0  0.4448040583741175  0.1592376356640912  0.7173911110066628  1.0000
  C   C23       1.0  0.0783712854350113  0.7984469991327002  0.2301542081436807  1.0000
  C   C24       1.0  0.385249225288966  0.18802123639160576  0.6752387330461573  1.0000
  C   C25       1.0  0.2727981240185427  0.6342595780799272  0.13880209569360594  1.0000
  C   C26       1.0  0.7239053933158459  0.3583800409809613  0.8703543801469709  1.0000
  C   C27       1.0  0.9870831946565276  0.6257463761985137  0.8554685744237107  1.0000
  C   C28       1.0  0.7273477844994786  0.8694539431082688  0.37039952083803473  1.0000
  C   C29       1.0  0.007619442241946092  0.3646091541851958  0.13908466521274218  1.0000
  C   C30       1.0  0.005419165917864113  0.3638866887948495  0.8666131899286854  1.0000
  C   C31       1.0  0.0009666451423695854  0.6440844710027205  0.13730100835390854  1.0000
  C   C32       1.0  0.9926238648752131  0.13393216770099065  0.6290037922565616  1.0000
  C   C33       1.0  0.0009456802292929221  0.8623808827662314  0.36399416631888226  1.0000
  C   C34       1.0  0.07561204494371741  0.8501021226515277  0.28621646910845294  1.0000
  C   C35       1.0  0.1471614755177269  0.9428336587538837  0.3236571614265173  1.0000
  C   C36       1.0  0.22081772713728018  0.9851724180453941  0.30834327659835736  1.0000
  C   C37       1.0  0.225225487683282  0.9360630190976664  0.25369219164137746  1.0000
  C   C38       1.0  0.8602004002960512  0.6764464270150939  0.2999571422785223  1.0000
  C   C39       1.0  0.7569698692481522  0.6642786645937022  0.2432886274468374  1.0000
  C   C40       1.0  0.707042116476664  0.6489102670199643  0.29242150217612556  1.0000
  C   C41       1.0  0.5822720346249638  0.8835116956489132  0.2688732611501622  1.0000
  C   C42       1.0  0.567690911121971  0.9342087652872664  0.32129804967305364  1.0000
  C   C43       1.0  0.5441761983414675  0.9970662217227966  0.2798803236152095  1.0000
  C   C44       1.0  0.8613217705667324  0.13888372656604278  0.21752237941465313  1.0000
  C   C45       1.0  0.0015421370198109578  0.8068901896718615  0.3045981017099491  1.0000
  C   C46       1.0  0.7771212366954573  0.10268841701188339  0.2332393626066748  1.0000
  C   C47       1.0  0.6723097108980554  0.058961016308245504  0.14683150314446888  1.0000
  C   C48       1.0  0.5944957039172322  0.18194552206792025  0.7222106290386067  1.0000
  C   C49       1.0  0.5268782860971939  0.14309492019786058  0.6211910721981795  1.0000
  C   C50       1.0  0.5708136459730255  0.11384755453157419  0.5855686330616338  1.0000
  C   C51       1.0  0.40939454842337847  0.07142567356404328  0.7315587646543378  1.0000
  C   C52       1.0  0.39331904985276367  0.0711532954687328  0.805625179305018  1.0000
  C   C53       1.0  0.35238655940191393  0.9815521439231671  0.8179622211188544  1.0000
  C   C54       1.0  0.8476828440560662  0.5674395247454526  0.16618891044723216  1.0000
  C   C55       1.0  0.7538424892960264  0.5449835124202594  0.07634207798393082  1.0000
  C   C56       1.0  0.9301847244804544  0.716462941287176  0.2701863654059976  1.0000
  C   C57       1.0  0.671379624486711  0.4462030801502621  0.033319840221174915  1.0000
  C   C58       1.0  0.9294910319869911  0.665136462214221  0.21140979719724134  1.0000
  C   C59       1.0  0.0034448647042921174  0.7056037648532651  0.19413492605359287  1.0000
  C   C60       1.0  0.9438388904248497  0.7228804453612555  0.7805148595484752  1.0000
  Cl  Cl1       1.0  0.3195406179316647  0.9931227590564761  0.23682426414622162  1.0000
  Cl  Cl2       1.0  0.1660742350170138  0.7920025003555224  0.14668578054692455  1.0000
  O   O1        1.0  0.9998937155042069  0.9988712628300433  0.5002659351002096  1.0000
  O   O2        1.0  0.9560137253870806  0.3270136490671192  0.05592800434002503  1.0000
  O   O3        1.0  0.07433738278056967  0.4466388793195719  0.8972956101057293  1.0000
  O   O4        1.0  0.9348098057467596  0.0515984615252663  0.32207796571431413  1.0000
  O   O5        1.0  0.05607707903202895  0.6166129396185623  0.1779550499603672  1.0000
  O   O6        1.0  0.9341751009002409  0.3255668807944118  0.8778962112990601  1.0000
  O   O7        1.0  0.939241708307868  0.6210065723866903  0.05457553517717144  1.0000
  O   O8        1.0  0.9275060848385122  0.607138429584701  0.8793227886900183  1.0000
  O   O9        1.0  0.05623876871554483  0.4464043851280976  0.17916883859743385  1.0000
  O   O10       1.0  0.2279300331238543  0.6220735019850422  0.0562711677828104  1.0000
  O   O11       1.0  0.7739060304781658  0.3241512018432288  0.8902576791941784  1.0000
  O   O12       1.0  0.22635203822263608  0.05596894227585379  0.6235603640304461  1.0000
  O   O13       1.0  0.06378134832780796  0.8811754496786367  0.6169131379318529  1.0000
  O   O14       1.0  0.23279323704985438  0.17785024267413266  0.5974406471541158  1.0000
  O   O15       1.0  0.7714034227517031  0.8656001188066823  0.44753706681461847  1.0000
  O   O16       1.0  0.062242636811525594  0.17247505127725302  0.6156927504139489  1.0000
  O   O17       1.0  0.9343059142102345  0.8790067820667031  0.3257317713051648  1.0000
  O   O18       1.0  0.9271258912145015  0.0509881915818085  0.6034440837576511  1.0000
  O   O19       1.0  0.06648446569566582  0.8877821127327152  0.4463900166720052  1.0000
  O   O20       1.0  0.7700295442136916  0.9040793400126788  0.3313224307607427  1.0000
  O   O21       1.0  0.04948463626361384  0.17491120653502887  0.44330170592360935  1.0000
  O   O22       1.0  0.9502451738701934  0.8913920594785479  0.6269207988376664  1.0000
  O   O23       1.0  0.999405039326653  0.5026047823085092  0.003481029827568741  1.0000
  O   O24       1.0  0.23027451014534248  0.608453461595346  0.1794226981715923  1.0000
  O   O25       1.0  0.7620400862404892  0.4408524595687667  0.8934666625130775  1.0000
  O   O26       1.0  0.047551502136783906  0.6021762808506991  0.8760317226717974  1.0000
