data_image0
_chemical_formula_structural       Ag4H24C24O14
_chemical_formula_sum              "Ag4 H24 C24 O14"
_cell_length_a       4.589592628626389
_cell_length_b       11.738520973197978
_cell_length_c       12.949856446419341
_cell_angle_alpha    72.38311026194594
_cell_angle_beta     85.66797705074568
_cell_angle_gamma    84.13787070812691

_space_group_name_H-M_alt    "P 1"
_space_group_IT_number       1

loop_
  _space_group_symop_operation_xyz
  'x, y, z'

loop_
  _atom_site_type_symbol
  _atom_site_label
  _atom_site_symmetry_multiplicity
  _atom_site_fract_x
  _atom_site_fract_y
  _atom_site_fract_z
  _atom_site_occupancy
  Ag  Ag1       1.0  0.6189785399861948  0.8374479787324065  0.08466868539895953  1.0000
  Ag  Ag2       1.0  0.38102233965137344  0.16255867352286663  0.9153312487531833  1.0000
  Ag  Ag3       1.0  0.3488159659183837  0.6123824077010056  0.9757860044127823  1.0000
  Ag  Ag4       1.0  0.6511929927281416  0.38761613605858264  0.02421132869574899  1.0000
  H   H1        1.0  0.5512320257415836  0.7769726581006823  0.7200394066612076  1.0000
  H   H2        1.0  0.44876565439842875  0.22302769797794045  0.2799569617927559  1.0000
  H   H3        1.0  0.843023703972847  0.6512833023233998  0.8232405281385053  1.0000
  H   H4        1.0  0.1569718268077054  0.348717088657935  0.17676206775592357  1.0000
  H   H5        1.0  0.8153660606643954  0.7650899644897751  0.8652369651362973  1.0000
  H   H6        1.0  0.18463821395848615  0.2349104086657761  0.13476539406836707  1.0000
  H   H7        1.0  0.12740729742917975  0.792543266231448  0.17630569219984688  1.0000
  H   H8        1.0  0.8725987961501364  0.20745887728132573  0.8236922631815843  1.0000
  H   H9        1.0  0.5565384258478474  0.9714862283383072  0.36888456634131456  1.0000
  H   H10       1.0  0.4434661791780741  0.028512339557309512  0.6311159692461105  1.0000
  H   H11       1.0  0.5080664534174488  0.5947941233678408  0.4116752084398099  1.0000
  H   H12       1.0  0.4919401426291259  0.40520531796370574  0.5883211680660239  1.0000
  H   H13       1.0  0.9061159365784306  0.4908946383228639  0.3275229822394861  1.0000
  H   H14       1.0  0.09388629669725651  0.5091048195331425  0.6724750546782302  1.0000
  H   H15       1.0  0.1644103452128434  0.5717642820641445  0.23484930023119682  1.0000
  H   H16       1.0  0.8355927438088387  0.4282306873796174  0.7651491893612102  1.0000
  H   H17       1.0  0.9734906649692335  0.06808840225404113  0.2622535055188847  1.0000
  H   H18       1.0  0.026518841895956786  0.9319074773821545  0.7377499590490825  1.0000
  H   H19       1.0  0.22021518296869394  0.993290411780578  0.18860479962835783  1.0000
  H   H20       1.0  0.7797816643010264  0.0067144517392136996  0.8113949713184352  1.0000
  H   H21       1.0  0.16665780431809912  0.8655222897223638  0.48470171013469343  1.0000
  H   H22       1.0  0.8333422384218635  0.13447716878430072  0.5152956149219676  1.0000
  H   H23       1.0  0.11819847648846604  0.7142693507014429  0.49275359452959566  1.0000
  H   H24       1.0  0.8817992036515464  0.28573100537718693  0.5072427739243678  1.0000
  C   C1        1.0  0.8177731723014787  0.6824404197483886  0.2871827378898431  1.0000
  C   C2        1.0  0.18222048919610498  0.3175581590121155  0.7128157804592802  1.0000
  C   C3        1.0  0.9351042642706276  0.7926268836253032  0.23214849690170053  1.0000
  C   C4        1.0  0.06489561555538612  0.20737347941422973  0.7678501254803294  1.0000
  C   C5        1.0  0.8440386678440815  0.8975662185958201  0.2615859354401379  1.0000
  C   C6        1.0  0.1559634070927984  0.10243414759882805  0.738414169836453  1.0000
  C   C7        1.0  0.6264831243512107  0.8912256824159857  0.3445515181414434  1.0000
  C   C8        1.0  0.3735150902820479  0.10877199812189531  0.6554486686714469  1.0000
  C   C9        1.0  0.5033492803082495  0.7832468717852311  0.39824937689242274  1.0000
  C   C10       1.0  0.49665531556738785  0.21675168849881743  0.6017496166279981  1.0000
  C   C11       1.0  0.6004578056801294  0.679475397750757  0.36928688696810497  1.0000
  C   C12       1.0  0.3995468039209271  0.3205231739506403  0.6307144196528255  1.0000
  C   C13       1.0  0.9291407606560472  0.5711621617209771  0.25785406392390087  1.0000
  C   C14       1.0  0.0708592866590578  0.42883730059147507  0.7421440321662656  1.0000
  C   C15       1.0  0.7785390832871855  0.549688171133873  0.16550999365392013  1.0000
  C   C16       1.0  0.22145879179275596  0.45031130705238115  0.8344904747091916  1.0000
  C   C17       1.0  0.9852619674404297  0.011895990148588002  0.20749662839508423  1.0000
  C   C18       1.0  0.014739772518275625  0.9881061775002138  0.7925045294652404  1.0000
  C   C19       1.0  0.8588982928512792  0.09166242843786422  0.10115880580108437  1.0000
  C   C20       1.0  0.14109656339778104  0.9083415616459974  0.898845124227307  1.0000
  C   C21       1.0  0.28127976292718426  0.7771475312819408  0.49157246780919167  1.0000
  C   C22       1.0  0.718722465773361  0.22285192276827817  0.508424798075026  1.0000
  C   C23       1.0  0.4375795664932554  0.7309171916552517  0.5977235585782095  1.0000
  C   C24       1.0  0.5624151365399683  0.2690760131890571  0.40227797028774853  1.0000
  O   O1        1.0  0.5705014529247168  0.6242485040196472  0.11960625231606054  1.0000
  O   O2        1.0  0.42950061286188673  0.37575185456343246  0.8803923108935263  1.0000
  O   O3        1.0  0.8719799824905936  0.4558884636766579  0.13927977231499963  1.0000
  O   O4        1.0  0.12801788343907106  0.544111006898028  0.8607191539811082  1.0000
  O   O5        1.0  0.6574808319134321  0.05640873044604432  0.05943935478276069  1.0000
  O   O6        1.0  0.3425066152830211  0.9435997652251874  0.9405650711217745  1.0000
  O   O7        1.0  0.9696942664211006  0.19220563851720135  0.05904655836454959  1.0000
  O   O8        1.0  0.030312031248414015  0.8077956347147649  0.9409570389930407  1.0000
  O   O9        1.0  0.5576224613942741  0.6288109243029893  0.6299928860947546  1.0000
  O   O10       1.0  0.44236535335416244  0.3711840991705914  0.3700106439057577  1.0000
  O   O11       1.0  0.4372149856146096  0.8133676879892349  0.6497946801329633  1.0000
  O   O12       1.0  0.562783047804139  0.18663088185837046  0.3502037198712813  1.0000
  O   O13       1.0  0.7052408634506265  0.7217414420718956  0.8263189217295658  1.0000
  O   O14       1.0  0.294756685801417  0.27825984518006663  0.17368414128429063  1.0000
