data_image0
_chemical_formula_structural       Cu12H24C36I12N24
_chemical_formula_sum              "Cu12 H24 C36 I12 N24"
_cell_length_a       5.198798455050202
_cell_length_b       15.396788856182217
_cell_length_c       19.62125653008574
_cell_angle_alpha    90.0002817506669
_cell_angle_beta     89.99980722552779
_cell_angle_gamma    89.99952779204631

_space_group_name_H-M_alt    "P 1"
_space_group_IT_number       1

loop_
  _space_group_symop_operation_xyz
  'x, y, z'

loop_
  _atom_site_type_symbol
  _atom_site_label
  _atom_site_symmetry_multiplicity
  _atom_site_fract_x
  _atom_site_fract_y
  _atom_site_fract_z
  _atom_site_occupancy
  Cu  Cu1       1.0  0.6197807626855011  0.6215784884290725  0.7500008121263377  1.0000
  Cu  Cu2       1.0  0.11977867454855581  0.8784181909157807  0.2500004283740509  1.0000
  Cu  Cu3       1.0  0.38021812383707504  0.3784174721592066  0.2499993376018566  1.0000
  Cu  Cu4       1.0  0.8802240589154028  0.12158621298465279  0.7499992117175225  1.0000
  Cu  Cu5       1.0  0.16243850441609453  0.5102673477913201  0.6708896581899638  1.0000
  Cu  Cu6       1.0  0.6624329532085653  0.9897324620874954  0.3291115441894448  1.0000
  Cu  Cu7       1.0  0.837557536968305  0.4897307199585441  0.17088820872225344  1.0000
  Cu  Cu8       1.0  0.33756685482781995  0.0102704841421755  0.8291093594192347  1.0000
  Cu  Cu9       1.0  0.8375642291154648  0.4897318602189173  0.3291094722401269  1.0000
  Cu  Cu10      1.0  0.3375755508388636  0.010270642831294197  0.6708875862456551  1.0000
  Cu  Cu11      1.0  0.16243750250827563  0.5102652406365848  0.8291124506590178  1.0000
  Cu  Cu12      1.0  0.6624339551292523  0.9897332702716569  0.1708892613692186  1.0000
  H   H1        1.0  0.9291964833464945  0.688805963107754  0.6193593244738909  1.0000
  H   H2        1.0  0.42918863606442403  0.8111859713824857  0.38063858154770713  1.0000
  H   H3        1.0  0.07079636360853671  0.31119113548956523  0.11936143205819862  1.0000
  H   H4        1.0  0.5708047488877883  0.18881144914581677  0.8806373938273212  1.0000
  H   H5        1.0  0.070806250199567  0.3111925954132459  0.3806387866522273  1.0000
  H   H6        1.0  0.5708064034137833  0.18881063869397963  0.6193605488807634  1.0000
  H   H7        1.0  0.9291967523916684  0.6887996292290666  0.8806422852219385  1.0000
  H   H8        1.0  0.4291979845874395  0.8111923052669638  0.11936173661162999  1.0000
  H   H9        1.0  0.3012575614787067  0.5510985838363069  0.5211541072812694  1.0000
  H   H10       1.0  0.8012645903541299  0.9489021445588859  0.4788428938033035  1.0000
  H   H11       1.0  0.698724988050465  0.4489024519374567  0.0211566999763235  1.0000
  H   H12       1.0  0.19872947441061228  0.05109263777355721  0.9788415018989839  1.0000
  H   H13       1.0  0.6987317073243702  0.4489090674987395  0.47884094596044247  1.0000
  H   H14       1.0  0.1987362196866442  0.051095114992591596  0.5211552173211373  1.0000
  H   H15       1.0  0.3012508161752195  0.551095457148584  0.97884599802277  1.0000
  H   H16       1.0  0.8012655650402324  0.9489059207627191  0.0211581381846386  1.0000
  H   H17       1.0  0.7006243332964601  0.37653408143813755  0.6392525491209683  1.0000
  H   H18       1.0  0.20060600163201775  0.12345970413958438  0.3607497282751595  1.0000
  H   H19       1.0  0.29937018528213605  0.6234618415817151  0.1392495536642002  1.0000
  H   H20       1.0  0.7994030232828281  0.8765466857801272  0.8607464298083087  1.0000
  H   H21       1.0  0.29939955908461974  0.6234566832193521  0.3607450523291433  1.0000
  H   H22       1.0  0.799396731830299  0.8765440502795129  0.6392514407692147  1.0000
  H   H23       1.0  0.7006152365553718  0.37653801593515357  0.8607485574721779  1.0000
  H   H24       1.0  0.2006054806760389  0.1234622645212724  0.139255248894969  1.0000
  C   C1        1.0  0.7595789912349745  0.6512645611396122  0.6064218274432207  1.0000
  C   C2        1.0  0.25956812620402303  0.848733683567815  0.39357979776012547  1.0000
  C   C3        1.0  0.2404178666024777  0.34873505512587843  0.1064208718318014  1.0000
  C   C4        1.0  0.7404154772436017  0.15126381725717405  0.8935783120904546  1.0000
  C   C5        1.0  0.24042374222252494  0.34873984276399034  0.3935788319510607  1.0000
  C   C6        1.0  0.7404211426601179  0.15126617395168296  0.6064208616313138  1.0000
  C   C7        1.0  0.7595829434591579  0.6512589570046926  0.8935802971944469  1.0000
  C   C8        1.0  0.2595814857060716  0.8487360402517864  0.1064223472975456  1.0000
  C   C9        1.0  0.6615454952225192  0.6277927201995511  0.5426175529349635  1.0000
  C   C10       1.0  0.1615447817114983  0.872199947761956  0.45738008266707203  1.0000
  C   C11       1.0  0.33844062956622883  0.3722052012883453  0.0426186397872073  1.0000
  C   C12       1.0  0.8384437843736592  0.12778950554155702  0.9573794372063987  1.0000
  C   C13       1.0  0.3384418500961388  0.3722103847450667  0.4573805582068857  1.0000
  C   C14       1.0  0.8384425637359101  0.12779276540542378  0.5426180284545267  1.0000
  C   C15       1.0  0.6615390217762851  0.6277875118990651  0.9573825292459688  1.0000
  C   C16       1.0  0.1615454845564912  0.8722058055706584  0.0426196932221146  1.0000
  C   C17       1.0  0.4374519072186729  0.5805689361069709  0.5560106890462535  1.0000
  C   C18       1.0  0.9374312548804442  0.9194366150117829  0.4439958737017307  1.0000
  C   C19       1.0  0.5625475125373142  0.4194362127831042  0.056007172798700794  1.0000
  C   C20       1.0  0.06254016893871038  0.08056314703789981  0.9439880929011153  1.0000
  C   C21       1.0  0.5625527496668353  0.4194419626610896  0.4439920089652531  1.0000
  C   C22       1.0  0.0625541669344756  0.08056324251615618  0.5560058049941432  1.0000
  C   C23       1.0  0.43745137394342487  0.580563644718481  0.943991957634374  1.0000
  C   C24       1.0  0.9374529470261664  0.9194328135551261  0.0560110375269431  1.0000
  C   C25       1.0  0.7371746232508513  0.3863966445716472  0.6931323837273241  1.0000
  C   C26       1.0  0.2371495242342903  0.11359833983612329  0.3068739382153892  1.0000
  C   C27       1.0  0.2628346011453147  0.6135976642242723  0.1931283631883289  1.0000
  C   C28       1.0  0.7628621065215384  0.8864090148182839  0.8068702011962188  1.0000
  C   C29       1.0  0.26284542205522843  0.6135954190711815  0.3068677659838174  1.0000
  C   C30       1.0  0.7628647503321914  0.8864073630253984  0.6931272308276277  1.0000
  C   C31       1.0  0.7371681324232499  0.3863982963571573  0.8068712768867885  1.0000
  C   C32       1.0  0.23715216800793124  0.1135999354720454  0.1931304582017717  1.0000
  C   C33       1.0  0.6172123868043329  0.3494061552881362  0.7500007925286384  1.0000
  C   C34       1.0  0.1171870913467217  0.15059370426595114  0.25000359804366923  1.0000
  C   C35       1.0  0.3828018878974007  0.6505904547572354  0.249996808937162  1.0000
  C   C36       1.0  0.882829106702502  0.8494145965404059  0.7499985903062623  1.0000
  I   I1        1.0  0.33017993734592466  0.25400223969452174  0.7500017541912101  1.0000
  I   I2        1.0  0.8301544985174446  0.2459937888194688  0.2500075425312076  1.0000
  I   I3        1.0  0.6698285668012574  0.745991772425512  0.2499994148315992  1.0000
  I   I4        1.0  0.16984246434840602  0.7540086666590965  0.7500012712835584  1.0000
  I   I5        1.0  0.8048942022408312  0.6604081200048526  0.4473158067368672  1.0000
  I   I6        1.0  0.3048853957567133  0.8395919489725897  0.5526852683138159  1.0000
  I   I7        1.0  0.1951002618001851  0.3395871162285218  0.9473150328338491  1.0000
  I   I8        1.0  0.6950967544912743  0.1604066844562411  0.052683681933743315  1.0000
  I   I9        1.0  0.19510853128426936  0.33959108800854654  0.5526843429959314  1.0000
  I   I10       1.0  0.695098102541678  0.16040855803773726  0.44731437177875943  1.0000
  I   I11       1.0  0.8048986247272084  0.6604081948752665  0.0526856265444309  1.0000
  I   I12       1.0  0.30490597900487165  0.8395951214998832  0.947315958152764  1.0000
  N   N1        1.0  0.6022215650498098  0.6192355222781386  0.6552423580605264  1.0000
  N   N2        1.0  0.10223168336146671  0.8807644526003741  0.3447588981357015  1.0000
  N   N3        1.0  0.3977689039232146  0.3807637473808825  0.15524138663447223  1.0000
  N   N4        1.0  0.8977717736003258  0.11923469377688181  0.8447556180346396  1.0000
  N   N5        1.0  0.3977677037756848  0.3807669331888377  0.344759320638687  1.0000
  N   N6        1.0  0.8977787441960743  0.1192393018034394  0.6552407419511681  1.0000
  N   N7        1.0  0.6022261355935966  0.6192289657838616  0.8447592727404682  1.0000
  N   N8        1.0  0.10222903638893402  0.8807664626926409  0.15524300274875463  1.0000
  N   N9        1.0  0.40459202303805597  0.5754759226680549  0.6241485318680234  1.0000
  N   N10       1.0  0.9046009603604475  0.9245271204880723  0.3758488865084786  1.0000
  N   N11       1.0  0.5953969161775917  0.4245251025589383  0.12414959295834652  1.0000
  N   N12       1.0  0.0954021028003282  0.07547351775266258  0.8758507398863244  1.0000
  N   N13       1.0  0.5953972457794804  0.424529780213497  0.3758480503239596  1.0000
  N   N14       1.0  0.09540754368861569  0.07547663391205359  0.6241487149738278  1.0000
  N   N15       1.0  0.4045961997807836  0.5754695590729993  0.8758531050266782  1.0000
  N   N16       1.0  0.9045987071679776  0.9245282882092594  0.1241499195037576  1.0000
  N   N17       1.0  0.9207662190137569  0.4418872524595089  0.7150418119651363  1.0000
  N   N18       1.0  0.4207581607197355  0.05810852776187401  0.28496026866162794  1.0000
  N   N19       1.0  0.0792331102880652  0.5581071922738303  0.2150387585575047  1.0000
  N   N20       1.0  0.5792518240714557  0.9418967424905631  0.7849569120253719  1.0000
  N   N21       1.0  0.07924420865644069  0.5581074091392253  0.2849578281040124  1.0000
  N   N22       1.0  0.5792484197676658  0.9418971751070301  0.715039881082113  1.0000
  N   N23       1.0  0.9207676997655696  0.4418887683070735  0.7849598622157572  1.0000
  N   N24       1.0  0.4207586034458473  0.0581102593436356  0.21504272806782146  1.0000
