data_image0
_chemical_formula_structural       Zn2H17C36S2N3O10F4
_chemical_formula_sum              "Zn2 H17 C36 S2 N3 O10 F4"
_cell_length_a       12.782648706383352
_cell_length_b       16.37340988480361
_cell_length_c       17.74012813363712
_cell_angle_alpha    95.70969111600787
_cell_angle_beta     90.0446243863551
_cell_angle_gamma    91.72538679162074

_space_group_name_H-M_alt    "P 1"
_space_group_IT_number       1

loop_
  _space_group_symop_operation_xyz
  'x, y, z'

loop_
  _atom_site_type_symbol
  _atom_site_label
  _atom_site_symmetry_multiplicity
  _atom_site_fract_x
  _atom_site_fract_y
  _atom_site_fract_z
  _atom_site_occupancy
  Zn  Zn1       1.0  0.5004450520830376  0.4133628769479714  0.4944979556527402  1.0000
  Zn  Zn2       1.0  0.5040954252428874  0.5858006604186342  0.5035846267761459  1.0000
  H   H1        1.0  0.39501168566773254  0.7111019884220229  0.4257758094421008  1.0000
  H   H2        1.0  0.39539047525604326  0.8627898186621719  0.4264326108092719  1.0000
  H   H3        1.0  0.6380409427042507  0.8748524771748193  0.5987065184901041  1.0000
  H   H4        1.0  0.6257548067631973  0.7216812124323368  0.5900951524711788  1.0000
  H   H5        1.0  0.3570487892904096  0.12548129039550557  0.4050907681866534  1.0000
  H   H6        1.0  0.6060518489960741  0.13690085213401915  0.5726780086906729  1.0000
  H   H7        1.0  0.6088337869912408  0.2883783684567902  0.5716381730028106  1.0000
  H   H8        1.0  0.3705481987281942  0.2782673642002321  0.4128393971341567  1.0000
  H   H9        1.0  0.505984843469399  0.6188906051739027  0.2646815462914277  1.0000
  H   H10       1.0  0.5054757878681926  0.613592945805756  0.1251304806965905  1.0000
  H   H11       1.0  0.4919782873965772  0.3483411492102348  0.11114150324007002  1.0000
  H   H12       1.0  0.4947431650364607  0.35595632841123853  0.25157502112505636  1.0000
  H   H13       1.0  0.5083231207162839  0.6523473185417217  0.8871951708703634  1.0000
  H   H14       1.0  0.49302417520315334  0.3871185120065661  0.8731948579150457  1.0000
  H   H15       1.0  0.4927145351656249  0.3817657413179133  0.7336656792403178  1.0000
  H   H16       1.0  0.5094340029666924  0.6446629932846336  0.7467273631272918  1.0000
  H   H17       1.0  0.8663314010070876  0.6291977975511929  0.5046967169645883  1.0000
  C   C1        1.0  0.5012450591298004  0.49162979753328534  0.35155680831113767  1.0000
  C   C2        1.0  0.2973565007935335  0.4986470771208077  0.4989992220760087  1.0000
  C   C3        1.0  0.5019902765014307  0.5088466416466345  0.6467178555012226  1.0000
  C   C4        1.0  0.7073210671227912  0.5002297015917492  0.500307507622111  1.0000
  C   C5        1.0  0.4472723570462023  0.7503933947128161  0.46320592250555154  1.0000
  C   C6        1.0  0.4481253050024136  0.835253797586944  0.4638884735703216  1.0000
  C   C7        1.0  0.5174445796352244  0.8831986255900759  0.5132725664919351  1.0000
  C   C8        1.0  0.5828628197503605  0.8412852124702539  0.5595601082524412  1.0000
  C   C9        1.0  0.5766508143508844  0.756211878175513  0.5551181737661821  1.0000
  C   C10       1.0  0.5255016475440186  0.9724802525546111  0.5193768650023358  1.0000
  C   C11       1.0  0.47294072473197707  0.0275298151942565  0.48205540037554345  1.0000
  C   C12       1.0  0.4143700134972263  0.158727452204495  0.442706955149852  1.0000
  C   C13       1.0  0.4812329020519498  0.11681302394015348  0.4878630395095485  1.0000
  C   C14       1.0  0.5524789642336927  0.16450380738034204  0.5358724892386209  1.0000
  C   C15       1.0  0.5545038975876437  0.24927220059493754  0.5357422272274874  1.0000
  C   C16       1.0  0.42148805592976407  0.2437680386520853  0.4464999342388226  1.0000
  C   C17       1.0  0.5000175284624931  0.4878687187087252  0.266949964142249  1.0000
  C   C18       1.0  0.5029094018538771  0.559896948820743  0.23029653622972296  1.0000
  C   C19       1.0  0.5025549434145731  0.5567308835183766  0.15177958126025712  1.0000
  C   C20       1.0  0.4984475474010209  0.48024156895684916  0.10700826563994784  1.0000
  C   C21       1.0  0.49520627573326675  0.4078810111001233  0.14443144754505974  1.0000
  C   C22       1.0  0.4964543475393839  0.41186159789125293  0.22295722666294893  1.0000
  C   C23       1.0  0.4976891854731773  0.47173146773018  0.024610852240883205  1.0000
  C   C24       1.0  0.5010512903141587  0.5289516226080407  0.9737055097754921  1.0000
  C   C25       1.0  0.505424808895114  0.592814399132166  0.853888741761999  1.0000
  C   C26       1.0  0.5009971959905143  0.5204640974705085  0.8913227284863086  1.0000
  C   C27       1.0  0.49666850252024375  0.4439765706121009  0.8465338396544697  1.0000
  C   C28       1.0  0.4968006556823852  0.4407746996075304  0.7680143036923114  1.0000
  C   C29       1.0  0.5018270860498006  0.5127935603521223  0.7313422241033792  1.0000
  C   C30       1.0  0.506104369798237  0.5887796569765342  0.7753525426326321  1.0000
  C   C31       1.0  0.10989607590968119  0.43048292696202844  0.4996354804428621  1.0000
  C   C32       1.0  0.8922110837479095  0.5663296795782672  0.502284185988259  1.0000
  C   C33       1.0  0.1812976057468632  0.496392739624497  0.5026809350123076  1.0000
  C   C34       1.0  0.8230598863837812  0.499689348757947  0.499838994293782  1.0000
  C   C35       1.0  0.9968347222798286  0.5405519686433917  0.5012185372567046  1.0000
  C   C36       1.0  0.0046227267340554915  0.45460076992814885  0.4974943681966124  1.0000
  S   S1        1.0  0.11882037626517668  0.5889620427522713  0.5044450147892193  1.0000
  S   S2        1.0  0.8837334695882432  0.4056109353794568  0.49513935534990594  1.0000
  N   N1        1.0  0.5099963380887258  0.711386621278379  0.507831711204517  1.0000
  N   N2        1.0  0.4908682500776037  0.28830802374427117  0.4917588621486291  1.0000
  N   N3        1.0  0.1352373602583583  0.3441693175127084  0.49984209031735116  1.0000
  O   O1        1.0  0.5116732192814624  0.4242056944566528  0.38051808175069374  1.0000
  O   O2        1.0  0.49186289536996947  0.5621130993566936  0.38841785313435656  1.0000
  O   O3        1.0  0.3412996595814803  0.5696982771564052  0.5111711439636082  1.0000
  O   O4        1.0  0.3415982851794084  0.43090948515212796  0.4830694066348472  1.0000
  O   O5        1.0  0.5134111855312469  0.5766896890405987  0.6175006461292016  1.0000
  O   O6        1.0  0.49049049525146426  0.43816218078939767  0.6100292572978889  1.0000
  O   O7        1.0  0.6607724801019401  0.4306134191332233  0.5036937386199298  1.0000
  O   O8        1.0  0.6650692354325187  0.5692018112869874  0.4974054188841068  1.0000
  O   O9        1.0  0.0871342350509892  0.2954650448556819  0.45257085278465337  1.0000
  O   O10       1.0  0.19810325402956147  0.32463755195846034  0.5472850374359767  1.0000
  F   F1        1.0  0.5981126876565028  0.004858087255904302  0.5714351471777024  1.0000
  F   F2        1.0  0.40024427975511395  0.99497457509473  0.43020354628092156  1.0000
  F   F3        1.0  0.4931580786919624  0.39142581356544076  0.9935965073243906  1.0000
  F   F4        1.0  0.505508056346045  0.6092754052509193  0.004742780600423697  1.0000
