data_image0
_chemical_formula_structural       Zn2H18C32S3N6O15
_chemical_formula_sum              "Zn2 H18 C32 S3 N6 O15"
_cell_length_a       12.803899739292268
_cell_length_b       15.964500646127917
_cell_length_c       17.221355734610807
_cell_angle_alpha    95.43539063599378
_cell_angle_beta     90.51365291531081
_cell_angle_gamma    93.69449972484824

_space_group_name_H-M_alt    "P 1"
_space_group_IT_number       1

loop_
  _space_group_symop_operation_xyz
  'x, y, z'

loop_
  _atom_site_type_symbol
  _atom_site_label
  _atom_site_symmetry_multiplicity
  _atom_site_fract_x
  _atom_site_fract_y
  _atom_site_fract_z
  _atom_site_occupancy
  Zn  Zn1       1.0  0.4973290117231883  0.40942990075163255  0.49738255764268063  1.0000
  Zn  Zn2       1.0  0.4998875340734442  0.5906565389358107  0.5009044942416168  1.0000
  H   H1        1.0  0.3810075129742643  0.7183886154955983  0.44154693551441687  1.0000
  H   H2        1.0  0.38209620988172327  0.876493365805885  0.44455902547501586  1.0000
  H   H3        1.0  0.6688677986655022  0.8903306821025865  0.5812432756282959  1.0000
  H   H4        1.0  0.3660090533925596  0.1069984551409391  0.3960486831920066  1.0000
  H   H5        1.0  0.606571945637526  0.12839646438544608  0.5762388746770597  1.0000
  H   H6        1.0  0.6019701692828008  0.28614769731625234  0.5784758084117243  1.0000
  H   H7        1.0  0.5045371416283189  0.6190403443713991  0.25825211109290797  1.0000
  H   H8        1.0  0.5013106532355137  0.613276234734407  0.11177177880462351  1.0000
  H   H9        1.0  0.505929635675848  0.3426286101025298  0.0990488665276033  1.0000
  H   H10       1.0  0.5096314704255747  0.6574337101960523  0.8996329046496144  1.0000
  H   H11       1.0  0.48459946095005774  0.3858188306767616  0.8850652425411882  1.0000
  H   H12       1.0  0.4781966001569485  0.381310495127927  0.7386984475606442  1.0000
  H   H13       1.0  0.8739627570797663  0.6344713120294398  0.5040162730647779  1.0000
  H   H14       1.0  0.6790725176243126  0.6663056047884978  0.5511253877737445  1.0000
  H   H15       1.0  0.34187741608483435  0.3271854175776808  0.4186583090301639  1.0000
  H   H16       1.0  0.5153572369911785  0.3484783065377854  0.3060256097916181  1.0000
  H   H17       1.0  0.5076892582040884  0.6533254644219467  0.6927275789729352  1.0000
  H   H18       1.0  0.0697336203387025  0.27439286983701544  0.39341821880409356  1.0000
  C   C1        1.0  0.5084564721789633  0.49122731499245714  0.3469856426755413  1.0000
  C   C2        1.0  0.2921996732907672  0.49396270601880576  0.49139935515213307  1.0000
  C   C3        1.0  0.4895666543817612  0.5104870841443656  0.6509993955498102  1.0000
  C   C4        1.0  0.7064564334636074  0.5033172866647461  0.5116107764980811  1.0000
  C   C5        1.0  0.4435394843060437  0.7595874127723762  0.4707897268630746  1.0000
  C   C6        1.0  0.4436364579888235  0.846039501009585  0.4728118544048385  1.0000
  C   C7        1.0  0.5264724419334924  0.8942908980802642  0.5137089876865701  1.0000
  C   C8        1.0  0.6044883379863463  0.8542839870695926  0.5493067153969591  1.0000
  C   C9        1.0  0.6010655104731982  0.7655196268209961  0.5413176861526168  1.0000
  C   C10       1.0  0.4196056273869003  0.14461238908429405  0.43683199783606613  1.0000
  C   C11       1.0  0.4859697090682715  0.10675981865449562  0.4851276586759923  1.0000
  C   C12       1.0  0.554002566078367  0.15702186914168692  0.5381263191018704  1.0000
  C   C13       1.0  0.5510641124467311  0.24331865608765918  0.5396147842939741  1.0000
  C   C14       1.0  0.420349678174709  0.23314583945843026  0.4430481602776055  1.0000
  C   C15       1.0  0.5079089754098688  0.4851390755659751  0.260915894823107  1.0000
  C   C16       1.0  0.5050086059042016  0.5591338526020875  0.22221349189307923  1.0000
  C   C17       1.0  0.5031205897144346  0.5564525936697677  0.14188060902777272  1.0000
  C   C18       1.0  0.503257775229727  0.4772116916247171  0.09767025537472311  1.0000
  C   C19       1.0  0.506014434861342  0.4030391997410518  0.1342569866759504  1.0000
  C   C20       1.0  0.5091887105277522  0.4058910589377405  0.21588458754320075  1.0000
  C   C21       1.0  0.5030865471837984  0.5971083199062406  0.8640677450032328  1.0000
  C   C22       1.0  0.49753506030842937  0.5223035266758912  0.9001173785690142  1.0000
  C   C23       1.0  0.48878711377133743  0.443148228890898  0.8554213176295846  1.0000
  C   C24       1.0  0.4856419574300546  0.4411298921614986  0.7751192534850662  1.0000
  C   C25       1.0  0.49188018796373706  0.5157919190727965  0.7369971689437094  1.0000
  C   C26       1.0  0.5011173127362979  0.595026656067887  0.7825002615489467  1.0000
  C   C27       1.0  0.1017495001999507  0.42519628928538106  0.5069480133455855  1.0000
  C   C28       1.0  0.8945378016454058  0.5698962610338185  0.5076596969935494  1.0000
  C   C29       1.0  0.17674761235544167  0.4911506808617503  0.49959410067746307  1.0000
  C   C30       1.0  0.8213813430353551  0.5031306266338618  0.5126591383665942  1.0000
  C   C31       1.0  0.9968718188381942  0.5414221621724877  0.5067561389421016  1.0000
  C   C32       1.0  0.9989390886066969  0.4536882686486976  0.5111000437154374  1.0000
  S   S1        1.0  0.12141136536086347  0.5875631330269329  0.4999308249485353  1.0000
  S   S2        1.0  0.8751137348014663  0.40636964859455554  0.5173479460286856  1.0000
  S   S3        1.0  0.11952489368841408  0.3164745955355811  0.5101096786631132  1.0000
  N   N1        1.0  0.5200265050080688  0.7193760410738931  0.5044272871056279  1.0000
  N   N2        1.0  0.5371351325006088  0.9838405198239144  0.5219324727860483  1.0000
  N   N3        1.0  0.4773412176484372  0.0172209819202749  0.47680224351908157  1.0000
  N   N4        1.0  0.48604666167307886  0.28116582918995187  0.4930141035747512  1.0000
  N   N5        1.0  0.5004264626992877  0.4656057476321678  0.015156331638721104  1.0000
  N   N6        1.0  0.5011928629715285  0.5335034135609575  0.9825682410809193  1.0000
  O   O1        1.0  0.5184145220894649  0.42256705528316724  0.3800763227671737  1.0000
  O   O2        1.0  0.4989450797861751  0.5628446984560114  0.3844765438209593  1.0000
  O   O3        1.0  0.3384239525398414  0.5671486417087978  0.5034289048621262  1.0000
  O   O4        1.0  0.3364911492524597  0.42578198507539605  0.47298604867937405  1.0000
  O   O5        1.0  0.502415948088  0.5806004948379098  0.6188500050105291  1.0000
  O   O6        1.0  0.47560238793983695  0.43865258090656317  0.6124480087828987  1.0000
  O   O7        1.0  0.6565011440148822  0.4323924071512479  0.5145531465891793  1.0000
  O   O8        1.0  0.6644803630092112  0.5734632306170652  0.5060594185944325  1.0000
  O   O9        1.0  0.680041514481772  0.728039639165516  0.5711246747210694  1.0000
  O   O10       1.0  0.355014854621345  0.2686019894304862  0.3974915404988195  1.0000
  O   O11       1.0  0.5126897498413072  0.33247704955413576  0.24829878042592676  1.0000
  O   O12       1.0  0.5080443911648658  0.6690794709628561  0.7505525720583748  1.0000
  O   O13       1.0  0.13826284918143017  0.2859749039092918  0.4192848427003853  1.0000
  O   O14       1.0  0.21401291070011297  0.3024348359910363  0.5501936726621467  1.0000
  O   O15       1.0  0.019642237566706897  0.2787117625955418  0.5311821122317468  1.0000
