data_image0
_chemical_formula_structural       Al2H16C26N4O14
_chemical_formula_sum              "Al2 H16 C26 N4 O14"
_cell_length_a       6.63172353573675
_cell_length_b       11.109199071115658
_cell_length_c       15.24788647787928
_cell_angle_alpha    84.81377990893503
_cell_angle_beta     77.0075730883827
_cell_angle_gamma    72.96682861441504

_space_group_name_H-M_alt    "P 1"
_space_group_IT_number       1

loop_
  _space_group_symop_operation_xyz
  'x, y, z'

loop_
  _atom_site_type_symbol
  _atom_site_label
  _atom_site_symmetry_multiplicity
  _atom_site_fract_x
  _atom_site_fract_y
  _atom_site_fract_z
  _atom_site_occupancy
  Al  Al1       1.0  0.48851012230218793  0.5266055103920877  0.5022436428387492  1.0000
  Al  Al2       1.0  0.9919409087212969  0.5214981123579322  0.5028819083356524  1.0000
  H   H1        1.0  0.27354448774066503  0.3886584249481331  0.5750321890078283  1.0000
  H   H2        1.0  0.6955588617197462  0.6764976104688571  0.4584047524925908  1.0000
  H   H3        1.0  0.9427527824067142  0.389887975266916  0.7685321735180751  1.0000
  H   H4        1.0  0.12066356008285342  0.4279886385486478  0.2388001553971364  1.0000
  H   H5        1.0  0.6618514840709225  0.5724697266712867  0.2248981941030976  1.0000
  H   H6        1.0  0.747810553592373  0.5555717544124619  0.056940564026035666  1.0000
  H   H7        1.0  0.2845728832687654  0.608754625727464  0.7784959023287286  1.0000
  H   H8        1.0  0.21698314929479065  0.5971359934703742  0.9463852558991803  1.0000
  H   H9        1.0  0.18345784425594763  0.2563747152801312  0.3619764941469512  1.0000
  H   H10       1.0  0.5062412200030054  0.1371112922974262  0.25831008428545493  1.0000
  H   H11       1.0  0.41002321418253035  0.7866928731595948  0.3774476407903364  1.0000
  H   H12       1.0  0.6187353865536097  0.9013075681514664  0.2655217553454889  1.0000
  H   H13       1.0  0.8468167719199541  0.30385103516594103  0.004972336599983912  1.0000
  H   H14       1.0  0.015697656013550453  0.27441441777985176  0.9040080558785205  1.0000
  H   H15       1.0  0.20023774893262916  0.39434398199123427  0.9988323432446293  1.0000
  H   H16       1.0  0.04666823767016144  0.3817322212406393  0.102071753444676  1.0000
  C   C1        1.0  0.8474983335983666  0.29916598421365853  0.48898533908118225  1.0000
  C   C2        1.0  0.6683789161745325  0.5124131631143669  0.6646318805799822  1.0000
  C   C3        1.0  0.1286933253930798  0.7504221281260969  0.5135077153304195  1.0000
  C   C4        1.0  0.3197724532288292  0.5184586058771217  0.340225162330853  1.0000
  C   C5        1.0  0.6192355351981148  0.5010590892146212  0.7644703506715514  1.0000
  C   C6        1.0  0.3855890433676239  0.5008304697311131  0.24125359723087306  1.0000
  C   C7        1.0  0.7823205368346106  0.43284100256899904  0.8082757743395491  1.0000
  C   C8        1.0  0.7405187142491771  0.41603472927531737  0.9021304612997126  1.0000
  C   C9        1.0  0.26149000445017373  0.4529193279088092  0.1984264302344911  1.0000
  C   C10       1.0  0.31263149065482326  0.4376973712987392  0.1047697735402267  1.0000
  C   C11       1.0  0.5666651510901418  0.5347102340745805  0.19084834920315788  1.0000
  C   C12       1.0  0.6140823204930683  0.5239422620119711  0.09770517074901619  1.0000
  C   C13       1.0  0.41124854936065  0.556623658565762  0.8135004907137501  1.0000
  C   C14       1.0  0.3741622965717397  0.5477950741784383  0.9069337535314547  1.0000
  C   C15       1.0  0.5352648301451595  0.4790791317126164  0.9529530228723146  1.0000
  C   C16       1.0  0.48958109566815017  0.477750873612642  0.0528059616374463  1.0000
  C   C17       1.0  0.9144626892558493  0.1576718898615894  0.4906300884718036  1.0000
  C   C18       1.0  0.10774622004144165  0.0906402434606903  0.4320867637343184  1.0000
  C   C19       1.0  0.7968874387951673  0.0921310985464743  0.5525884244729511  1.0000
  C   C20       1.0  0.2314728472685061  0.15394460695213036  0.36612399042281396  1.0000
  C   C21       1.0  0.41298756385259594  0.086729996263827  0.3082516319205553  1.0000
  C   C22       1.0  0.05816072313282215  0.8920350387759158  0.5073116017173191  1.0000
  C   C23       1.0  0.8734851451557268  0.9602058725887299  0.5636149641161907  1.0000
  C   C24       1.0  0.17639136470703676  0.9554274399250249  0.4384361386549998  1.0000
  C   C25       1.0  0.3608112350214015  0.8891682114348072  0.375745516465372  1.0000
  C   C26       1.0  0.47702476423965845  0.9536685722905318  0.31263647864066263  1.0000
  N   N1        1.0  0.9032223460564524  0.3410985611757909  0.9442314233293699  1.0000
  N   N2        1.0  0.19518395273406244  0.3814759798051526  0.06597679440233149  1.0000
  N   N3        1.0  0.7593743421037759  0.8945265468815862  0.6377725577657073  1.0000
  N   N4        1.0  0.6001031771802021  0.1635695841925724  0.6151597180980203  1.0000
  O   O1        1.0  0.66031790582538  0.35527675271732306  0.4761412253585037  1.0000
  O   O2        1.0  0.8527439096628059  0.525996199768592  0.6268551897560357  1.0000
  O   O3        1.0  0.9948397785911497  0.6960946611346088  0.5000181881970533  1.0000
  O   O4        1.0  0.4476803066686941  0.5494379236708298  0.37962505267226015  1.0000
  O   O5        1.0  0.31794856900748425  0.6989036136191374  0.5253453359133998  1.0000
  O   O6        1.0  0.13693032862864385  0.5033484532423813  0.3790474159332362  1.0000
  O   O7        1.0  0.9857407512734683  0.3495509612212757  0.5023158743632479  1.0000
  O   O8        1.0  0.523517301155401  0.50526997909369  0.6242293747245355  1.0000
  O   O9        1.0  0.2518141143126584  0.46606352984110094  0.5385969914019527  1.0000
  O   O10       1.0  0.7301107935478798  0.585505050785123  0.4656184207453791  1.0000
  O   O11       1.0  0.8717099609803542  0.8082067519451572  0.6778065342916264  1.0000
  O   O12       1.0  0.5596300745858971  0.9314448308201689  0.654739997062606  1.0000
  O   O13       1.0  0.42984873082258457  0.1956367816302844  0.5879304304527865  1.0000
  O   O14       1.0  0.6254460873224089  0.18782204895237697  0.688773584359737  1.0000
