data_image0
_chemical_formula_structural       Ag2P2H34C22S4N4O4
_chemical_formula_sum              "Ag2 P2 H34 C22 S4 N4 O4"
_cell_length_a       9.546226964049598
_cell_length_b       9.718616643701974
_cell_length_c       9.934987649753563
_cell_angle_alpha    70.89693123489229
_cell_angle_beta     89.47101900736237
_cell_angle_gamma    62.620970182544426

_space_group_name_H-M_alt    "P 1"
_space_group_IT_number       1

loop_
  _space_group_symop_operation_xyz
  'x, y, z'

loop_
  _atom_site_type_symbol
  _atom_site_label
  _atom_site_symmetry_multiplicity
  _atom_site_fract_x
  _atom_site_fract_y
  _atom_site_fract_z
  _atom_site_occupancy
  Ag  Ag1       1.0  0.025086140505422242  0.1339036539718706  0.9008985111088708  1.0000
  Ag  Ag2       1.0  0.9749120152831521  0.866099459018088  0.09910047404218145  1.0000
  P   P1        1.0  0.8999279676873044  0.21470704028384804  0.1851555534201665  1.0000
  P   P2        1.0  0.1000696936244835  0.7852948490944133  0.8148428204926719  1.0000
  H   H1        1.0  0.8305897135608831  0.13110396724651713  0.4719057414871203  1.0000
  H   H2        1.0  0.16941540902740118  0.8688953298441363  0.5280933828993497  1.0000
  H   H3        1.0  0.8482688373295558  0.9721717142788437  0.40934203001983605  1.0000
  H   H4        1.0  0.1517363602568054  0.0278251096924151  0.590658888911648  1.0000
  H   H5        1.0  0.6222017725051997  0.054192363710925034  0.5526986115993894  1.0000
  H   H6        1.0  0.3778071557194095  0.9458031641165264  0.44730268256891054  1.0000
  H   H7        1.0  0.5482623947317292  0.09476343444272571  0.3730629259112065  1.0000
  H   H8        1.0  0.4517428056447771  0.9052333867056391  0.6269390004394424  1.0000
  H   H9        1.0  0.53042704986359  0.2607304861303277  0.4256940734466568  1.0000
  H   H10       1.0  0.46957709772183853  0.7392663496224475  0.5743088655591818  1.0000
  H   H11       1.0  0.07950753731410021  0.3916386233532379  0.15773649110870025  1.0000
  H   H12       1.0  0.9204964546948842  0.6083631642841001  0.8422608439687879  1.0000
  H   H13       1.0  0.19616445210094474  0.18483598541896376  0.28479943733058394  1.0000
  H   H14       1.0  0.8038401038026207  0.8151645583564786  0.7151982886918163  1.0000
  H   H15       1.0  0.22871716438368134  0.3838058665495225  0.37003345776789603  1.0000
  H   H16       1.0  0.7712836664619187  0.6161959677239325  0.6299659078559969  1.0000
  H   H17       1.0  0.12792420211472688  0.2942593288599583  0.4893583891394044  1.0000
  H   H18       1.0  0.8720783092540215  0.7057387851193868  0.5106381196426  1.0000
  H   H19       1.0  0.018601601141305907  0.5009998684481829  0.3592055083759931  1.0000
  H   H20       1.0  0.9814003602836011  0.49899947527858046  0.6407956465568959  1.0000
  H   H21       1.0  0.19505399965996872  0.38685527660783947  0.8863245758138022  1.0000
  H   H22       1.0  0.8049437394400413  0.6131441368281333  0.11367660006321495  1.0000
  H   H23       1.0  0.3946573752226  0.9195001094574168  0.8414477214893527  1.0000
  H   H24       1.0  0.6053483890484799  0.08049546782904571  0.15855459580620854  1.0000
  H   H25       1.0  0.6152962819123502  0.038923973865145504  0.7943224261725632  1.0000
  H   H26       1.0  0.384702368353018  0.9610803627365104  0.20567717021670257  1.0000
  H   H27       1.0  0.6112037847844576  0.2891511199920061  0.8699126040618737  1.0000
  H   H28       1.0  0.388792184843595  0.710854500971948  0.13008459701622846  1.0000
  H   H29       1.0  0.4162147104675498  0.45513232738500176  0.8481018006942519  1.0000
  H   H30       1.0  0.5837814063665048  0.5448683501630642  0.15189798205472727  1.0000
  H   H31       1.0  0.24452368392451262  0.5213802008955852  0.5765906118212102  1.0000
  H   H32       1.0  0.7554708828515257  0.47861927046808733  0.42340856492558737  1.0000
  H   H33       1.0  0.7450720987787562  0.3595766044455433  0.6824803323386989  1.0000
  H   H34       1.0  0.25492091793926597  0.6404216607337293  0.31751823840592414  1.0000
  C   C1        1.0  0.7699835460964835  0.10120032914748832  0.401397097713371  1.0000
  C   C2        1.0  0.23002319596759693  0.8987977066539588  0.5986024123819789  1.0000
  C   C3        1.0  0.6075246695901626  0.13024273771552697  0.4389544815763103  1.0000
  C   C4        1.0  0.3924815863675661  0.8697540660055338  0.5610474395382995  1.0000
  C   C5        1.0  0.09423663856156846  0.30793529907640504  0.2691206594197197  1.0000
  C   C6        1.0  0.9057641867037419  0.6920665408428449  0.7308766913658644  1.0000
  C   C7        1.0  0.11787199561597103  0.37570257870560664  0.3787096186131579  1.0000
  C   C8        1.0  0.8821282685449104  0.6243005022526448  0.6212883486466724  1.0000
  C   C9        1.0  0.2753629165749629  0.2756946536202848  0.8655912349658551  1.0000
  C   C10       1.0  0.7246338419418944  0.7243023041236046  0.13441174069221515  1.0000
  C   C11       1.0  0.3847885044608432  0.0354520405178604  0.8406949924220726  1.0000
  C   C12       1.0  0.6152135263818433  0.9645448357353034  0.15930594221751448  1.0000
  C   C13       1.0  0.49394231324271237  0.09235728005885592  0.8162631167612918  1.0000
  C   C14       1.0  0.5060570453330937  0.9076408720879174  0.1837384448246057  1.0000
  C   C15       1.0  0.4902649497847377  0.35727801493221284  0.8063843023671922  1.0000
  C   C16       1.0  0.5097278558897924  0.6427276554907524  0.19361392183816412  1.0000
  C   C17       1.0  0.49472160508890534  0.43087141898356424  0.6477150750042782  1.0000
  C   C18       1.0  0.5052702200024727  0.5691317957473102  0.35228494898212404  1.0000
  C   C19       1.0  0.3572236190736504  0.5107416689839185  0.543560734441634  1.0000
  C   C20       1.0  0.6427682060177272  0.48926154574696334  0.45643928954476826  1.0000
  C   C21       1.0  0.6371112216004774  0.4211702974263361  0.6022899134707702  1.0000
  C   C22       1.0  0.3628806034909004  0.5788329173045458  0.39771011051563937  1.0000
  S   S1        1.0  0.8225658791659783  0.3727198291389656  0.9820330032790069  1.0000
  S   S2        1.0  0.1774350877250439  0.6272770730101841  0.017964914339131607  1.0000
  S   S3        1.0  0.0847626423221753  0.9851702869998963  0.22388766663065948  1.0000
  S   S4        1.0  0.9152364856791095  0.014835290150834594  0.7761064964818659  1.0000
  N   N1        1.0  0.248737806135594  0.151035290546865  0.8709079393489746  1.0000
  N   N2        1.0  0.7512615524402124  0.8489628615999082  0.12909362223692264  1.0000
  N   N3        1.0  0.4228681230122577  0.24454086325655316  0.8325370763252521  1.0000
  N   N4        1.0  0.5771296188778975  0.7554585473565257  0.16746510697092284  1.0000
  O   O1        1.0  0.7474994147569376  0.20975777036916557  0.25111641428242143  1.0000
  O   O2        1.0  0.2525041605634683  0.7902403177141938  0.7488831115210247  1.0000
  O   O3        1.0  0.9510002164778656  0.2907118653766077  0.28673049003308654  1.0000
  O   O4        1.0  0.049003781111409135  0.7092899166149423  0.7132688598827174  1.0000
