data_image0
_chemical_formula_structural       Zn5Si2H48C62N2O20
_chemical_formula_sum              "Zn5 Si2 H48 C62 N2 O20"
_cell_length_a       13.930645434362749
_cell_length_b       14.157566809334787
_cell_length_c       14.679388652995284
_cell_angle_alpha    107.51290400880677
_cell_angle_beta     113.45076204637577
_cell_angle_gamma    100.65133155172548

_space_group_name_H-M_alt    "P 1"
_space_group_IT_number       1

loop_
  _space_group_symop_operation_xyz
  'x, y, z'

loop_
  _atom_site_type_symbol
  _atom_site_label
  _atom_site_symmetry_multiplicity
  _atom_site_fract_x
  _atom_site_fract_y
  _atom_site_fract_z
  _atom_site_occupancy
  Zn  Zn1       1.0  0.4730094120598738  0.803749792311798  0.5619214934156673  1.0000
  Zn  Zn2       1.0  0.6953807872412412  0.005329197687011299  0.7349797402263576  1.0000
  Zn  Zn3       1.0  0.5269943459448997  0.19625185565863754  0.43808093656538466  1.0000
  Zn  Zn4       1.0  0.3046184810622422  0.994670876160704  0.2650198388279819  1.0000
  Zn  Zn5       1.0  0.4999984019897283  4.477736794990483e-07  0.5000001785397146  1.0000
  Si  Si1       1.0  0.7632904912967717  0.6340603245495586  0.12087537244838123  1.0000
  Si  Si2       1.0  0.23670819917165895  0.3659381738696296  0.8791228417783046  1.0000
  H   H1        1.0  0.12210041061646859  0.7494332621928591  0.4654434851341732  1.0000
  H   H2        1.0  0.9151260793787729  0.6888879280536313  0.35248846156759583  1.0000
  H   H3        1.0  0.9538221078268807  0.7116774113710775  0.08174271529910743  1.0000
  H   H4        1.0  0.1595783273928505  0.7787295748827177  0.19738777988117565  1.0000
  H   H5        1.0  0.5217888606283055  0.608606265075721  0.7448321212369393  1.0000
  H   H6        1.0  0.5823111617126174  0.538393614524665  0.8869283189670654  1.0000
  H   H7        1.0  0.8465708422002223  0.839291129156976  0.1121504703952711  1.0000
  H   H8        1.0  0.7887097485675485  0.9050146673266398  0.9667756597231688  1.0000
  H   H9        1.0  0.50869684563488  0.2510812693316495  0.9064490115445166  1.0000
  H   H10       1.0  0.5514667880566719  0.44034473519536727  0.013457835056691172  1.0000
  H   H11       1.0  0.895752096121882  0.5036291679587918  0.08613226419357999  1.0000
  H   H12       1.0  0.8502857809852956  0.3135776274465343  0.9789444491674714  1.0000
  H   H13       1.0  0.5706110400866464  0.6076481938556879  0.3479211909916272  1.0000
  H   H14       1.0  0.6430040309210129  0.5322595661115342  0.22241166410786664  1.0000
  H   H15       1.0  0.7440768382620392  0.836493752819727  0.21593966243094798  1.0000
  H   H16       1.0  0.6708820069777629  0.9090034014170455  0.3403871524451175  1.0000
  H   H17       1.0  0.7821376960663712  0.8358453076615077  0.6602210050666032  1.0000
  H   H18       1.0  0.8488330964827429  0.7336770930143004  0.5774212074913052  1.0000
  H   H19       1.0  0.8595167787572179  0.7635876955948785  0.4715153154447121  1.0000
  H   H20       1.0  0.9832353221518702  0.7966292368784732  0.5963051566829449  1.0000
  H   H21       1.0  0.007599635054312361  0.9657472785401495  0.5751050788830342  1.0000
  H   H22       1.0  0.8797575614639188  0.9915958474637133  0.5225308887171707  1.0000
  H   H23       1.0  0.9753231696347058  0.055477180370495184  0.6649246917652006  1.0000
  H   H24       1.0  0.5157006195751138  0.0026736136376754992  0.6860073971701511  1.0000
  H   H25       1.0  0.8779001239264873  0.25056601158674136  0.5345577019221254  1.0000
  H   H26       1.0  0.08487415282134952  0.31111054144755457  0.6475144174415064  1.0000
  H   H27       1.0  0.04617519174684762  0.2883194740198434  0.9182592640038294  1.0000
  H   H28       1.0  0.8404169427471686  0.2212681345005478  0.8026089022476768  1.0000
  H   H29       1.0  0.4782114885554519  0.391394608056629  0.25516674147488067  1.0000
  H   H30       1.0  0.4176862586805471  0.4616056792300256  0.11306896564813947  1.0000
  H   H31       1.0  0.1534297115217385  0.1607081682856801  0.8878473247087015  1.0000
  H   H32       1.0  0.2112918745272765  0.09498541520282087  0.033223454209682805  1.0000
  H   H33       1.0  0.4913038819388619  0.748916414560419  0.09355314307533291  1.0000
  H   H34       1.0  0.44853238244218124  0.5596529586842464  0.9865423683426114  1.0000
  H   H35       1.0  0.10424745534542985  0.4963716865042755  0.913869014860289  1.0000
  H   H36       1.0  0.14971348731818784  0.6864224464011883  0.02105512988687517  1.0000
  H   H37       1.0  0.4293894816915794  0.39235741081720465  0.6520804933730702  1.0000
  H   H38       1.0  0.35699404209704266  0.46774365464412426  0.7775904313328184  1.0000
  H   H39       1.0  0.2559273160543897  0.16351107466461198  0.784061129642815  1.0000
  H   H40       1.0  0.32912242666670016  0.09100220195003317  0.6596160180186246  1.0000
  H   H41       1.0  0.2178623622819629  0.1641547753902727  0.3397775144266291  1.0000
  H   H42       1.0  0.1511669580297905  0.2663229853048676  0.4225779903923836  1.0000
  H   H43       1.0  0.14048249338206636  0.23641238298545628  0.5284835852191705  1.0000
  H   H44       1.0  0.016764154525610326  0.20336926601216018  0.4036926763730904  1.0000
  H   H45       1.0  0.9924017835023236  0.034254379678998186  0.42489510265765057  1.0000
  H   H46       1.0  0.12024463946596602  0.008405810494274095  0.4774695900433343  1.0000
  H   H47       1.0  0.02467795808649947  0.9445236877680825  0.3350751465568962  1.0000
  H   H48       1.0  0.484298931892198  0.9973272408253916  0.3139938818837109  1.0000
  C   C1        1.0  0.2770439815786361  0.8058803977942259  0.4071682437426389  1.0000
  C   C2        1.0  0.1530187300067283  0.7686597856387959  0.3385584663867434  1.0000
  C   C3        1.0  0.08389667142379424  0.7427309983269978  0.3818744838648416  1.0000
  C   C4        1.0  0.9684121015649224  0.7083546678813731  0.317928384578046  1.0000
  C   C5        1.0  0.9189948012804833  0.6958879397355773  0.20882909141666756  1.0000
  C   C6        1.0  0.9897409149716979  0.7212012358237986  0.16643124248735586  1.0000
  C   C7        1.0  0.1054439190015871  0.7585147986375701  0.23072595769657767  1.0000
  C   C8        1.0  0.6209592742004092  0.8015290063327497  0.7612185364543862  1.0000
  C   C9        1.0  0.6520586706829405  0.7605682193909828  0.8475413938855708  1.0000
  C   C10       1.0  0.5928597267894774  0.6579424928165594  0.8258387378006233  1.0000
  C   C11       1.0  0.6268003920808596  0.6198272116432333  0.9063131896625691  1.0000
  C   C12       1.0  0.7181522061822038  0.6839337349359977  0.010881737277252152  1.0000
  C   C13       1.0  0.7749601472574738  0.787713659041607  0.03193947546039062  1.0000
  C   C14       1.0  0.7434437685869567  0.8254205103829474  0.9512132399077301  1.0000
  C   C15       1.0  0.6473521662135654  0.15865687790434174  0.8611887645405503  1.0000
  C   C16       1.0  0.6765776799403939  0.27112671099903446  0.9350745559854374  1.0000
  C   C17       1.0  0.5932731115517811  0.3072711533935716  0.9468164009548303  1.0000
  C   C18       1.0  0.618355530357782  0.4140777741504634  0.006870811215989659  1.0000
  C   C19       1.0  0.7269382416336329  0.4874058061581862  0.05661839287031981  1.0000
  C   C20       1.0  0.8104242644912532  0.4490854422232076  0.04721965787280889  1.0000
  C   C21       1.0  0.7857968227055423  0.3425497289306704  0.9874138390407694  1.0000
  C   C22       1.0  0.5766513501971815  0.8112139634890667  0.42872988014978836  1.0000
  C   C23       1.0  0.6185701383861897  0.7631996640308283  0.3529903626843378  1.0000
  C   C24       1.0  0.6097243597590706  0.6568383198690241  0.318766263077869  1.0000
  C   C25       1.0  0.6501150419627281  0.6152693626835912  0.24819003761112413  1.0000
  C   C26       1.0  0.699619728070829  0.6788293520790987  0.21015919213086695  1.0000
  C   C27       1.0  0.7075199649943686  0.7855208478532063  0.2453243051328684  1.0000
  C   C28       1.0  0.6675945904271288  0.827348953361607  0.31545335490069704  1.0000
  C   C29       1.0  0.8230280079236678  0.9060070913397593  0.653703177862134  1.0000
  C   C30       1.0  0.8954047246617023  0.7911801621165822  0.5604286679693615  1.0000
  C   C31       1.0  0.9408988117794905  0.98202163873718  0.5915788096928126  1.0000
  C   C32       1.0  0.7229540102353056  0.19411411683265095  0.5928333003441466  1.0000
  C   C33       1.0  0.8469820014028145  0.23133790298588508  0.6614430098426424  1.0000
  C   C34       1.0  0.9161029906128777  0.25726590521088605  0.6181256735356726  1.0000
  C   C35       1.0  0.03158580269446534  0.2916438260663625  0.6820702108192975  1.0000
  C   C36       1.0  0.08100349287628462  0.3041073791697072  0.7911707607173142  1.0000
  C   C37       1.0  0.010258538690976626  0.27879723867115996  0.8335706609114694  1.0000
  C   C38       1.0  0.8945561240035503  0.24148526548376734  0.7692752753585026  1.0000
  C   C39       1.0  0.3790404031794595  0.19846791613557707  0.2387789073842725  1.0000
  C   C40       1.0  0.34794130136815943  0.23942949789053358  0.1524557147812189  1.0000
  C   C41       1.0  0.4071403353946579  0.3420575949678336  0.1741591033021379  1.0000
  C   C42       1.0  0.37319995710289794  0.3801736614891169  0.09368567304925081  1.0000
  C   C43       1.0  0.2818475574948992  0.3160655533026001  0.9891171173878419  1.0000
  C   C44       1.0  0.22503884171798214  0.21228563892337599  0.9680577252039697  1.0000
  C   C45       1.0  0.25655834988148746  0.17457878653738126  0.04878514963586872  1.0000
  C   C46       1.0  0.3526467959112907  0.8413423869323535  0.13881318485704952  1.0000
  C   C47       1.0  0.32342334230457953  0.7288717677062165  0.06492726346254335  1.0000
  C   C48       1.0  0.406725862080478  0.6927281256409614  0.05318351327138528  1.0000
  C   C49       1.0  0.38164315627484763  0.585920719536105  0.9931280814011672  1.0000
  C   C50       1.0  0.27305916725212853  0.5125934733986737  0.9433809269162694  1.0000
  C   C51       1.0  0.18957469763360285  0.550913822613495  0.9527822915247981  1.0000
  C   C52       1.0  0.21420341333038107  0.6574487453031351  0.012588361577861926  1.0000
  C   C53       1.0  0.423345967298225  0.1887892906560396  0.5712671693378297  1.0000
  C   C54       1.0  0.3814271676018138  0.23680357591643994  0.6470087219746786  1.0000
  C   C55       1.0  0.3902730363619683  0.34316729058112116  0.681233554017119  1.0000
  C   C56       1.0  0.34988459963761903  0.3847338622823527  0.7518119738787163  1.0000
  C   C57       1.0  0.3003822759924617  0.3211738910338084  0.789840997456551  1.0000
  C   C58       1.0  0.29248447632168967  0.21448476497909746  0.7546775085499461  1.0000
  C   C59       1.0  0.3324064267247167  0.17265586570216127  0.6845476050747478  1.0000
  C   C60       1.0  0.17697204658886528  0.09399298697940847  0.3462960200215548  1.0000
  C   C61       1.0  0.10459503517960658  0.20881912138940342  0.43957086508619614  1.0000
  C   C62       1.0  0.059102021270490496  0.01797843458821549  0.4084213638011533  1.0000
  N   N1        1.0  0.8868834941791875  0.8937260179461785  0.6068273533960565  1.0000
  N   N2        1.0  0.11311705187116422  0.10627327003125936  0.3931717984888508  1.0000
  O   O1        1.0  0.3119200528816678  0.7686179416498718  0.4795301113579741  1.0000
  O   O2        1.0  0.3381121748065825  0.8687572440860337  0.3902345864730422  1.0000
  O   O3        1.0  0.6957374255202711  0.8805557749873287  0.7759549097656802  1.0000
  O   O4        1.0  0.5229977934409791  0.7537310193611616  0.6785950558283815  1.0000
  O   O5        1.0  0.7315735201318532  0.13341824636676586  0.8573162441086095  1.0000
  O   O6        1.0  0.5472990559388365  0.09808448391844135  0.8064596637831798  1.0000
  O   O7        1.0  0.5375752135986148  0.7521844607586415  0.46660998227318373  1.0000
  O   O8        1.0  0.5857301144350444  0.9070701054557443  0.45183345358873345  1.0000
  O   O9        1.0  0.5347325408802349  0.9611729318589821  0.6308242033239111  1.0000
  O   O10       1.0  0.8102161185966635  0.9931346378957355  0.6888441222659054  1.0000
  O   O11       1.0  0.6880822637106975  0.23137342502441524  0.5204701052217118  1.0000
  O   O12       1.0  0.6618896144684284  0.1312412154276075  0.6097702437565999  1.0000
  O   O13       1.0  0.30426440211275013  0.11944273185243048  0.2240431365593238  1.0000
  O   O14       1.0  0.4770017656979349  0.2462698445671307  0.3214048664445529  1.0000
  O   O15       1.0  0.26842466729135606  0.8665810281963217  0.14268405128825637  1.0000
  O   O16       1.0  0.45269834143952903  0.9019147814405882  0.19354169117480072  1.0000
  O   O17       1.0  0.46242493871854856  0.24781799752862804  0.5333885912655489  1.0000
  O   O18       1.0  0.4142695271652955  0.09293311951019938  0.5481685579011071  1.0000
  O   O19       1.0  0.4652673014225073  0.03882871268466199  0.3691774189485528  1.0000
  O   O20       1.0  0.18978393591586948  0.006865440423432298  0.3111550756177834  1.0000
