data_image0
_chemical_formula_structural       Cd2P8H40C12N4O24
_chemical_formula_sum              "Cd2 P8 H40 C12 N4 O24"
_cell_length_a       6.53384599533016
_cell_length_b       9.015399672673015
_cell_length_c       13.961532378000385
_cell_angle_alpha    89.99998138814283
_cell_angle_beta     90.00002091021761
_cell_angle_gamma    96.4293879401885

_space_group_name_H-M_alt    "P 1"
_space_group_IT_number       1

loop_
  _space_group_symop_operation_xyz
  'x, y, z'

loop_
  _atom_site_type_symbol
  _atom_site_label
  _atom_site_symmetry_multiplicity
  _atom_site_fract_x
  _atom_site_fract_y
  _atom_site_fract_z
  _atom_site_occupancy
  Cd  Cd1       1.0  0.09327250795970343  0.4932529031736409  0.4072704356977468  1.0000
  Cd  Cd2       1.0  0.9067306932752215  0.5067485588672085  0.9072714903677195  1.0000
  P   P1        1.0  0.137561656158347  0.8774781540475445  0.47382254868310986  1.0000
  P   P2        1.0  0.8624398951101496  0.12252215977010651  0.9738236778048589  1.0000
  P   P3        1.0  0.836710843402102  0.12425964805647993  0.4555381604128428  1.0000
  P   P4        1.0  0.1632952871563944  0.8757406827073595  0.9555390143283944  1.0000
  P   P5        1.0  0.07874794520211031  0.4531602767151953  0.6764514926987247  1.0000
  P   P6        1.0  0.9212533855775005  0.5468401666854065  0.17645056279231852  1.0000
  P   P7        1.0  0.3977104227402322  0.43522412048506703  0.8472314850555238  1.0000
  P   P8        1.0  0.6022895037162073  0.5647762455037154  0.3472297826257745  1.0000
  H   H1        1.0  0.9835977878336803  0.8525067220494762  0.2767726176882094  1.0000
  H   H2        1.0  0.016400387069431595  0.1474925554194897  0.7767736023654664  1.0000
  H   H3        1.0  0.654364898864813  0.5257511510852239  0.7082625103568319  1.0000
  H   H4        1.0  0.3456344194638632  0.4742459267715373  0.208262933738915  1.0000
  H   H5        1.0  0.7958068861931193  0.8626915359129795  0.4128593822245677  1.0000
  H   H6        1.0  0.20419308892438437  0.1373088014773387  0.9128596836972562  1.0000
  H   H7        1.0  0.6578587490415302  0.945787469328451  0.2634438148439386  1.0000
  H   H8        1.0  0.3421426462399708  0.05421293616392119  0.7634448729330998  1.0000
  H   H9        1.0  0.8333837904257562  0.9938030058094823  0.1672051045489553  1.0000
  H   H10       1.0  0.16661413487497612  0.0061952031749115  0.6672068602406186  1.0000
  H   H11       1.0  0.7943729151051003  0.13101962708419987  0.25612451560193256  1.0000
  H   H12       1.0  0.2056283063866644  0.8689796653679379  0.7561260941715278  1.0000
  H   H13       1.0  0.1953171246489092  0.037682984735312196  0.19838511226957686  1.0000
  H   H14       1.0  0.8046821863565441  0.9623140974253633  0.6983867694998338  1.0000
  H   H15       1.0  0.2975475368442133  0.015080498724749699  0.3162926675691011  1.0000
  H   H16       1.0  0.7024535608967638  0.9849176512789127  0.816294303179248  1.0000
  H   H17       1.0  0.15673107671639025  0.169884139566598  0.2921047501974527  1.0000
  H   H18       1.0  0.8432701714532483  0.8301151372067608  0.7921064418959888  1.0000
  H   H19       1.0  0.3209676894026927  0.6347321410591533  0.7514998455632736  1.0000
  H   H20       1.0  0.67903352865968  0.36526715340847454  0.2515003469563126  1.0000
  H   H21       1.0  0.6718878932141051  0.3991084191935954  0.5664614717445673  1.0000
  H   H22       1.0  0.328107921350977  0.6008864820096064  0.0664618653045324  1.0000
  H   H23       1.0  0.3994376862096232  0.37948275474719395  0.552856211341485  1.0000
  H   H24       1.0  0.6005572607702945  0.6205166143102545  0.0528559292771789  1.0000
  H   H25       1.0  0.5123832656453331  0.2880133379134264  0.6510130775357085  1.0000
  H   H26       1.0  0.48761311669985463  0.7119848751344264  0.15101275743947443  1.0000
  H   H27       1.0  0.6860628679608068  0.662380392587572  0.5651284966683222  1.0000
  H   H28       1.0  0.3139392377743988  0.33761563739788875  0.06512679514147382  1.0000
  H   H29       1.0  0.5552941322647698  0.7573567938469523  0.6555949064177184  1.0000
  H   H30       1.0  0.444711607535055  0.24264255139091523  0.15559467910755836  1.0000
  H   H31       1.0  0.4116726196470353  0.6615917967835186  0.560170565693781  1.0000
  H   H32       1.0  0.5883313500881541  0.3384064708137657  0.06017177413809801  1.0000
  H   H33       1.0  0.04189891473785683  0.6868013372534705  0.5701687187821634  1.0000
  H   H34       1.0  0.9581057358621692  0.3132013909054621  0.0701692771450411  1.0000
  H   H35       1.0  0.48051990274938555  0.06821913310506739  0.4627429336131996  1.0000
  H   H36       1.0  0.5194756848709333  0.9317822897987471  0.9627445504364405  1.0000
  H   H37       1.0  0.9441749434336016  0.19271258723117768  0.6076410932586997  1.0000
  H   H38       1.0  0.0558263363272502  0.8072878861535315  0.10764354689563053  1.0000
  H   H39       1.0  0.5970147578936817  0.25350994376010755  0.8550250778862392  1.0000
  H   H40       1.0  0.4029853427040564  0.7464915350622903  0.35502258777107454  1.0000
  C   C1        1.0  0.9251249808908426  0.9513883775287368  0.40719596497802973  1.0000
  C   C2        1.0  0.0748749900280075  0.048611962329161394  0.9071976965598765  1.0000
  C   C3        1.0  0.800541240040431  0.012312156070194598  0.24257300767889947  1.0000
  C   C4        1.0  0.19945997140319352  0.9876871422873138  0.7425738437280174  1.0000
  C   C5        1.0  0.1713294320286209  0.053297737349509995  0.2750901558335386  1.0000
  C   C6        1.0  0.8286714667991999  0.9466993143791381  0.7750911040766797  1.0000
  C   C7        1.0  0.3337400020034734  0.5177895451712899  0.7318021645185411  1.0000
  C   C8        1.0  0.6662612014530892  0.48220975788027676  0.23180049017297935  1.0000
  C   C9        1.0  0.5248860396202913  0.3860551369570118  0.6046950865207708  1.0000
  C   C10       1.0  0.47511320191669876  0.6139419860307952  0.10469335271745453  1.0000
  C   C11       1.0  0.5449957054788612  0.6613982473009941  0.607184040688594  1.0000
  C   C12       1.0  0.4550050688529339  0.3385988775948975  0.10718307840510023  1.0000
  N   N1        1.0  0.9728284322451158  0.9616330022501317  0.3007592272176894  1.0000
  N   N2        1.0  0.027171459755372492  0.03836738398867819  0.80076095313391  1.0000
  N   N3        1.0  0.5196124173273233  0.5221299892880253  0.6660371920065772  1.0000
  N   N4        1.0  0.4803870380560298  0.4778682231984276  0.1660376367785261  1.0000
  O   O1        1.0  0.2969896174274425  0.0015992892014154002  0.5060490601806862  1.0000
  O   O2        1.0  0.7030131179568144  0.9984012314455911  0.0060530121010487015  1.0000
  O   O3        1.0  0.2125937405124816  0.75956592895443  0.407098516281664  1.0000
  O   O4        1.0  0.7874065670595555  0.24043664340537418  0.9070988917269958  1.0000
  O   O5        1.0  0.024120170664630788  0.7992984477170778  0.5629825314245167  1.0000
  O   O6        1.0  0.9758802184858978  0.2007065070539298  0.06298311664176032  1.0000
  O   O7        1.0  0.8471607800461953  0.11013266652206967  0.5662409107363332  1.0000
  O   O8        1.0  0.15283707039303351  0.8898655864589885  0.0662404977453548  1.0000
  O   O9        1.0  0.6077522335896148  0.12232680196620999  0.4243044642706267  1.0000
  O   O10       1.0  0.3922446881154968  0.8776735244512963  0.9243039229194069  1.0000
  O   O11       1.0  0.9679923639430115  0.25343181361709805  0.4117306452669213  1.0000
  O   O12       1.0  0.03201220318472047  0.7465685332436321  0.9117307888175504  1.0000
  O   O13       1.0  0.0820813743884727  0.5246871065023413  0.5757920475646685  1.0000
  O   O14       1.0  0.9179183508078664  0.47531337776849364  0.07579256483316502  1.0000
  O   O15       1.0  0.056534030193105905  0.2818763488460974  0.6734790560047159  1.0000
  O   O16       1.0  0.9434611745862964  0.718124083878422  0.1734780933141451  1.0000
  O   O17       1.0  0.9213756307281926  0.5186894618307035  0.7405641449342468  1.0000
  O   O18       1.0  0.07862642104061016  0.48131541855016724  0.2405645229030995  1.0000
  O   O19       1.0  0.46511180919489437  0.27695940049474627  0.8191049387017131  1.0000
  O   O20       1.0  0.5348894589932413  0.7230398645135949  0.3191039077744193  1.0000
  O   O21       1.0  0.20723968117916772  0.41346664110093906  0.9088837299771344  1.0000
  O   O22       1.0  0.7927604593530616  0.5865348142516564  0.4088827704959003  1.0000
  O   O23       1.0  0.5781670136725195  0.5375177383663042  0.8866891921569504  1.0000
  O   O24       1.0  0.42183311040390936  0.4624837266574884  0.38668963057259015  1.0000
