data_image0
_chemical_formula_structural       P4H68Au4C62Cl4
_chemical_formula_sum              "P4 H68 Au4 C62 Cl4"
_cell_length_a       9.125999713421407
_cell_length_b       9.12593934896059
_cell_length_c       20.777914418546075
_cell_angle_alpha    95.5775930162225
_cell_angle_beta     95.57784758380768
_cell_angle_gamma    113.58857848423027

_space_group_name_H-M_alt    "P 1"
_space_group_IT_number       1

loop_
  _space_group_symop_operation_xyz
  'x, y, z'

loop_
  _atom_site_type_symbol
  _atom_site_label
  _atom_site_symmetry_multiplicity
  _atom_site_fract_x
  _atom_site_fract_y
  _atom_site_fract_z
  _atom_site_occupancy
  P   P1        1.0  0.9333629387972169  0.36869999332060377  0.8285243394616871  1.0000
  P   P2        1.0  0.3687005172401498  0.9333663285933154  0.3285241959653362  1.0000
  P   P3        1.0  0.5779276199363393  0.49473935516618867  0.002857839862748788  1.0000
  P   P4        1.0  0.49474781338495427  0.5779298969624874  0.5028588460131971  1.0000
  H   H1        1.0  0.7872485154331484  0.42203826247997256  0.7069289712788418  1.0000
  H   H2        1.0  0.4220408606240795  0.7872523733059607  0.2069277152216671  1.0000
  H   H3        1.0  0.8846847288490878  0.4758178502816576  0.5999167695408261  1.0000
  H   H4        1.0  0.4758206971697021  0.8846859065386282  0.0999143985145139  1.0000
  H   H5        1.0  0.15693545215646051  0.4913206232715055  0.5836819954820314  1.0000
  H   H6        1.0  0.49132581229339684  0.15694200995820035  0.0836798217523196  1.0000
  H   H7        1.0  0.3270697957268638  0.4433929773328273  0.6732928505384805  1.0000
  H   H8        1.0  0.4433923934278212  0.3270759387082477  0.17328920682012242  1.0000
  H   H9        1.0  0.23081107654013516  0.3876348327408791  0.7785306085093566  1.0000
  H   H10       1.0  0.38762945217955286  0.23081364378067085  0.2785252094433162  1.0000
  H   H11       1.0  0.1558950140671128  0.6918229694576039  0.804638970883694  1.0000
  H   H12       1.0  0.6918265663711338  0.15590863090539386  0.3046425494760356  1.0000
  H   H13       1.0  0.32596563323273386  0.9445542245803151  0.8793233502599236  1.0000
  H   H14       1.0  0.9445536984323935  0.3259752568253801  0.379328119225157  1.0000
  H   H15       1.0  0.3328958938367704  0.9521321819099452  0.9995469643468624  1.0000
  H   H16       1.0  0.9521294680727054  0.3328995959475875  0.4995513884785013  1.0000
  H   H17       1.0  0.16714899390841242  0.7053226139502866  0.04482048193090549  1.0000
  H   H18       1.0  0.7053206498061826  0.16714416586321326  0.5448214357170968  1.0000
  H   H19       1.0  0.9941708833949008  0.4524079721891353  0.9705557711833209  1.0000
  H   H20       1.0  0.452408578418911  0.9941743887960466  0.4705571055587042  1.0000
  H   H21       1.0  0.982231045713064  0.2109221545829171  0.9061650391172192  1.0000
  H   H22       1.0  0.21092102530910484  0.9822337356120341  0.40616312052286924  1.0000
  H   H23       1.0  0.11210728317745829  0.23439025429055246  0.8456515128158486  1.0000
  H   H24       1.0  0.2343851387421054  0.11211294064312938  0.3456491057993745  1.0000
  H   H25       1.0  0.8430572932382249  0.054532810367831495  0.7637533960092497  1.0000
  H   H26       1.0  0.054533563048778357  0.8430557678847278  0.2637508774650499  1.0000
  H   H27       1.0  0.7497374507172269  0.017696600181999096  0.8342088247104797  1.0000
  H   H28       1.0  0.017698721314111685  0.7497390940221036  0.3342080064838626  1.0000
  H   H29       1.0  0.9585594789568506  0.9068876329685549  0.8731305854172932  1.0000
  H   H30       1.0  0.9068871972853786  0.9585649457101793  0.3731272126991385  1.0000
  H   H31       1.0  0.02357186515263982  0.9279427926053714  0.7964932634840878  1.0000
  H   H32       1.0  0.9279410887633619  0.023567295730941892  0.29648759001185  1.0000
  H   H33       1.0  0.7398752034660488  0.7470653587405206  0.7411237149565794  1.0000
  H   H34       1.0  0.7470724839123762  0.7398666679382301  0.24112061483383226  1.0000
  H   H35       1.0  0.8297638689575279  0.6501580067309688  0.7907792159186542  1.0000
  H   H36       1.0  0.650161492263564  0.8297588418319177  0.2907706073207094  1.0000
  H   H37       1.0  0.5429084859047891  0.5729859514420922  0.8028954953945231  1.0000
  H   H38       1.0  0.5729854975573261  0.5429069343907641  0.3028928767699242  1.0000
  H   H39       1.0  0.5795576741824532  0.7748937385399655  0.8310730503812563  1.0000
  H   H40       1.0  0.7748896086442231  0.5795514967495092  0.3310721878262298  1.0000
  H   H41       1.0  0.7650939503237596  0.7771370548096427  0.9288309717651373  1.0000
  H   H42       1.0  0.777133256917388  0.765098113253515  0.4288274714290239  1.0000
  H   H43       1.0  0.7456538506569715  0.58313661942541  0.8966293680480321  1.0000
  H   H44       1.0  0.5831306515058187  0.7456485992106464  0.39662517894580424  1.0000
  H   H45       1.0  0.4841825450011541  0.6736731275758955  0.9496773856513129  1.0000
  H   H46       1.0  0.6736821493593367  0.4841881609061927  0.44967757955604537  1.0000
  H   H47       1.0  0.4352350336537897  0.48541980335929236  0.900341808525134  1.0000
  H   H48       1.0  0.4854269183068708  0.4352318501417399  0.4003433156122682  1.0000
  H   H49       1.0  0.4891790277180164  0.6271379571536927  0.1234419384448771  1.0000
  H   H50       1.0  0.6271392721898083  0.4891846380509434  0.6234468796722865  1.0000
  H   H51       1.0  0.2305286363205497  0.5361958774551638  0.1695544840705665  1.0000
  H   H52       1.0  0.5361969603656859  0.23053223308342294  0.6695624047437506  1.0000
  H   H53       1.0  0.991433014868477  0.2952981607938838  0.11290226271713522  1.0000
  H   H54       1.0  0.29530127635229053  0.9914370462541198  0.6129077249014614  1.0000
  H   H55       1.0  0.011751153129772294  0.13593871146795775  0.012995812630649098  1.0000
  H   H56       1.0  0.135953751016757  0.011749521607434602  0.5129966832022745  1.0000
  H   H57       1.0  0.27114736464981354  0.22299284966968702  0.9673084601830411  1.0000
  H   H58       1.0  0.22300939723123037  0.2711445745518119  0.4673064258327528  1.0000
  H   H59       1.0  0.8682427628359477  0.5160747021552508  0.08481526007714278  1.0000
  H   H60       1.0  0.5160779357346212  0.8682423389513969  0.5848199593553148  1.0000
  H   H61       1.0  0.0846854718256509  0.743366110116959  0.16143268726448673  1.0000
  H   H62       1.0  0.7433626704348272  0.08468367286269537  0.6614376921918251  1.0000
  H   H63       1.0  0.0724056971381088  0.011702206743919396  0.17976932153963793  1.0000
  H   H64       1.0  0.011705878376012887  0.07241271243691468  0.6797742010010808  1.0000
  H   H65       1.0  0.8409469846329929  0.050801320394157294  0.12169073064325893  1.0000
  H   H66       1.0  0.05080830816127954  0.8409513862300314  0.6216919370083147  1.0000
  H   H67       1.0  0.6340715900233957  0.8307242272943892  0.04261086004273548  1.0000
  H   H68       1.0  0.8307270566022635  0.6340772284698133  0.5426120823613232  1.0000
  Au  Au1       1.0  0.6650966597074089  0.2939506906544337  0.8248235576008867  1.0000
  Au  Au2       1.0  0.2939520184283849  0.6651030755110481  0.3248223497741662  1.0000
  Au  Au3       1.0  0.6400128949663112  0.2840102618939396  0.976543738112511  1.0000
  Au  Au4       1.0  0.2840144024551421  0.6400115559945547  0.4765442617445501  1.0000
  C   C1        1.0  0.00113442062409771  0.4007012946874937  0.7496026097455584  1.0000
  C   C2        1.0  0.4007043768412473  0.0011362578485148006  0.2495997366544884  1.0000
  C   C3        1.0  0.9052264678934847  0.4263266325270008  0.6989213414390605  1.0000
  C   C4        1.0  0.42633070040071885  0.9052287307821413  0.19891850912603098  1.0000
  C   C5        1.0  0.9606576460789996  0.4576975973750945  0.6393006522186582  1.0000
  C   C6        1.0  0.45770372216158245  0.9606649277543935  0.13929520684828128  1.0000
  C   C7        1.0  0.11274427139693441  0.46501903276143947  0.6301084188732204  1.0000
  C   C8        1.0  0.4650160810130757  0.11274974887655277  0.1301077973147571  1.0000
  C   C9        1.0  0.20899466312746987  0.43952353174191927  0.6804440359703889  1.0000
  C   C10       1.0  0.43952049455641884  0.20899464971100906  0.1804391904616338  1.0000
  C   C11       1.0  0.15384271978654604  0.40751297722622576  0.7399704397802296  1.0000
  C   C12       1.0  0.4075123475357928  0.15384421412341703  0.2399681933824098  1.0000
  C   C13       1.0  0.06445750940171983  0.5543392124656704  0.8824196137934804  1.0000
  C   C14       1.0  0.5543368828060765  0.06446596020143862  0.3824212243809484  1.0000
  C   C15       1.0  0.1580070471543421  0.6939098558730803  0.8572495378298511  1.0000
  C   C16       1.0  0.6939072427427602  0.15801520341720726  0.35725021266704  1.0000
  C   C17       1.0  0.2542705709088294  0.836571001595679  0.8993927369448258  1.0000
  C   C18       1.0  0.8365712223369214  0.2542827501279276  0.3993976060786508  1.0000
  C   C19       1.0  0.2574759668086841  0.8405286585184156  0.9668356156792584  1.0000
  C   C20       1.0  0.8405308710295714  0.2574814818748336  0.4668383614313428  1.0000
  C   C21       1.0  0.16464240464468102  0.7021181699352039  0.9922151041568341  1.0000
  C   C22       1.0  0.7021217881193209  0.16464074179131669  0.49221755299377185  1.0000
  C   C23       1.0  0.06765681338725217  0.5594258255407992  0.9503189479585004  1.0000
  C   C24       1.0  0.5594227193720869  0.0676613234044154  0.4503198783570284  1.0000
  C   C25       1.0  0.987050875286137  0.2081259447649515  0.8534586800178587  1.0000
  C   C26       1.0  0.20812604870892668  0.9870565131258572  0.3534559685225105  1.0000
  C   C27       1.0  0.8654314404238832  0.04532911243635599  0.815832818336439  1.0000
  C   C28       1.0  0.04533033157962758  0.8654311006170727  0.3158312974533146  1.0000
  C   C29       1.0  0.9174902787795388  0.9072223687354536  0.8215302392104321  1.0000
  C   C30       1.0  0.9072215035850278  0.9174884412434491  0.32152610193410425  1.0000
  C   C31       1.0  0.7810352383630459  0.7429761043804458  0.7923460709383363  1.0000
  C   C32       1.0  0.7429761421055473  0.7810300923855916  0.2923422813709209  1.0000
  C   C33       1.0  0.6357938295178301  0.6882106677801614  0.8295942398611159  1.0000
  C   C34       1.0  0.688209150915675  0.635791182202986  0.329592035494116  1.0000
  C   C35       1.0  0.6805906671116164  0.662412911829591  0.899110024786168  1.0000
  C   C36       1.0  0.6624107607566004  0.680588146834637  0.3991067573371367  1.0000
  C   C37       1.0  0.5329895223886751  0.5862590033393358  0.9333075082982774  1.0000
  C   C38       1.0  0.586261880879256  0.532989904214311  0.4333080276292804  1.0000
  C   C39       1.0  0.3957755637688222  0.4332959795255034  0.04151738806449149  1.0000
  C   C40       1.0  0.43330217239228835  0.3957769158802761  0.5415183931909197  1.0000
  C   C41       1.0  0.3841406745929774  0.5208263986051873  0.0986298671341643  1.0000
  C   C42       1.0  0.5208341351354021  0.3841436996018642  0.5986349704158442  1.0000
  C   C43       1.0  0.23878265449926778  0.4704591696745268  0.124296553129831  1.0000
  C   C44       1.0  0.47045687753676196  0.23878238389077205  0.6242997509514794  1.0000
  C   C45       1.0  0.10491339404105561  0.3334232830764634  0.0929933933324492  1.0000
  C   C46       1.0  0.33343237750170124  0.10491688052289307  0.5930001206236143  1.0000
  C   C47       1.0  0.11657115888395712  0.2438314534655106  0.0367387996440911  1.0000
  C   C48       1.0  0.2438389035082835  0.11657702772787096  0.5367406324039194  1.0000
  C   C49       1.0  0.26148137186390846  0.29320991603321284  0.011116778278768894  1.0000
  C   C50       1.0  0.29322235347698467  0.2614785508297642  0.5111178652078223  1.0000
  C   C51       1.0  0.7350705972288126  0.6571459221974718  0.05966936555062571  1.0000
  C   C52       1.0  0.6571534562297998  0.7350775418258166  0.559670537099926  1.0000
  C   C53       1.0  0.8627773984867559  0.6336444934815972  0.0933949418256432  1.0000
  C   C54       1.0  0.6336460333074284  0.8627717999848057  0.59339756082516  1.0000
  C   C55       1.0  0.9838612425557188  0.7611453044800525  0.13625060865462046  1.0000
  C   C56       1.0  0.7611466529267472  0.9838678257814163  0.6362542270501876  1.0000
  C   C57       1.0  0.9771591614009055  0.9118116990686572  0.1465955748961179  1.0000
  C   C58       1.0  0.911819795286398  0.977158039614089  0.6465978845698716  1.0000
  C   C59       1.0  0.8487267513053213  0.9346053215490854  0.1138691763298283  1.0000
  C   C60       1.0  0.9346044425107038  0.848736534588653  0.6138707747043597  1.0000
  C   C61       1.0  0.7294183402117156  0.8087534077519932  0.0699851081623919  1.0000
  C   C62       1.0  0.8087646555754944  0.7294226730443752  0.5699845773360153  1.0000
  Cl  Cl1       1.0  0.3857573925696088  0.20143873306762566  0.8121338303324208  1.0000
  Cl  Cl2       1.0  0.20143808247017597  0.38576102487502323  0.31212877817487344  1.0000
  Cl  Cl3       1.0  0.69529445361578  0.058546285442801584  0.9619874463351223  1.0000
  Cl  Cl4       1.0  0.058551864705584884  0.6952922218196562  0.4619900858216681  1.0000
