data_image0
_chemical_formula_structural       Al4H60C76O32
_chemical_formula_sum              "Al4 H60 C76 O32"
_cell_length_a       6.64029763119286
_cell_length_b       23.28105846597908
_cell_length_c       26.417304060974125
_cell_angle_alpha    78.54450887545721
_cell_angle_beta     89.43260879928961
_cell_angle_gamma    90.52938446949454

_space_group_name_H-M_alt    "P 1"
_space_group_IT_number       1

loop_
  _space_group_symop_operation_xyz
  'x, y, z'

loop_
  _atom_site_type_symbol
  _atom_site_label
  _atom_site_symmetry_multiplicity
  _atom_site_fract_x
  _atom_site_fract_y
  _atom_site_fract_z
  _atom_site_occupancy
  Al  Al1       1.0  0.7630519636897118  0.24930319741303458  0.7496737604909994  1.0000
  Al  Al2       1.0  0.22907631757622937  0.7492665912570969  0.2520915920689575  1.0000
  Al  Al3       1.0  0.2636766085509805  0.24889053444488946  0.7521035635972237  1.0000
  Al  Al4       1.0  0.7290608892590241  0.749594324953982  0.25014703159646245  1.0000
  H   H1        1.0  0.296011428954742  0.6219024813920839  0.16637395593788537  1.0000
  H   H2        1.0  0.6926759277309813  0.37429880811073696  0.8382977453105055  1.0000
  H   H3        1.0  0.7955722702998924  0.8751096393382056  0.3384913826832871  1.0000
  H   H4        1.0  0.19293338619277728  0.12443515557005465  0.665566314095173  1.0000
  H   H5        1.0  0.3098026836323058  0.5576954797162443  0.10125799054549839  1.0000
  H   H6        1.0  0.6822270380605032  0.43854490124038387  0.9031963345372062  1.0000
  H   H7        1.0  0.8048050578765567  0.9379709118327425  0.40477662003487314  1.0000
  H   H8        1.0  0.1749653351347789  0.06037241863253226  0.6005714080571493  1.0000
  H   H9        1.0  0.6957061271061278  0.6016748438329955  0.060169228745770895  1.0000
  H   H10       1.0  0.3034217205708885  0.39839249632940005  0.9395911572643314  1.0000
  H   H11       1.0  0.1831469189370054  0.893678717291088  0.44358792496920063  1.0000
  H   H12       1.0  0.8000830366341773  0.09908455571355285  0.561092947196684  1.0000
  H   H13       1.0  0.6815986867723467  0.6637075458662308  0.1270273437123635  1.0000
  H   H14       1.0  0.31376941387947  0.3366300761026934  0.8727209745104431  1.0000
  H   H15       1.0  0.1738976085692414  0.8328874996242632  0.3756341290308071  1.0000
  H   H16       1.0  0.816296119869797  0.1619706460305324  0.6269637285083716  1.0000
  H   H17       1.0  0.7115199566571917  0.5023011139814669  0.06074533647033319  1.0000
  H   H18       1.0  0.2870247050970746  0.4974625442070958  0.9419382641300587  1.0000
  H   H19       1.0  0.20816073962058113  0.9944081946027693  0.4427089393623688  1.0000
  H   H20       1.0  0.7706787496507486  0.997808385351547  0.5630792956505316  1.0000
  H   H21       1.0  0.4461476171392533  0.455076273001545  0.0435745677609347  1.0000
  H   H22       1.0  0.614958122334123  0.40071651437712313  0.07710263416279868  1.0000
  H   H23       1.0  0.42920558198975556  0.38127868003942217  0.03411930743862259  1.0000
  H   H24       1.0  0.22910392792002912  0.6491878918146624  0.9999062249944471  1.0000
  H   H25       1.0  0.3082815983726306  0.6296650275421882  0.9401878396317825  1.0000
  H   H26       1.0  0.4922126904239974  0.6437550362964828  0.9857160094597359  1.0000
  H   H27       1.0  0.9416103204667081  0.04085600498721931  0.46206649607962896  1.0000
  H   H28       1.0  0.11408304411303051  0.09376656829543609  0.4254324074877474  1.0000
  H   H29       1.0  0.9322411728035148  0.1158178639729499  0.4684904684692909  1.0000
  H   H30       1.0  0.693230311397997  0.845288377471803  0.5049974875807237  1.0000
  H   H31       1.0  0.7665281468297421  0.86291259616997  0.5656263220644248  1.0000
  H   H32       1.0  0.9547318370009065  0.8474772493633294  0.5210238310853086  1.0000
  H   H33       1.0  0.38064784993984796  0.6006554296171629  0.42144284310528946  1.0000
  H   H34       1.0  0.5181584442488755  0.5623934612753629  0.47599330048415567  1.0000
  H   H35       1.0  0.5006704369098287  0.6409516188719094  0.46413839259017203  1.0000
  H   H36       1.0  0.47847259459583563  0.43600122331962143  0.5255290386507098  1.0000
  H   H37       1.0  0.6156931369198658  0.39776008372079  0.5801353664173446  1.0000
  H   H38       1.0  0.49488469978311395  0.3574026699869534  0.5376041200609193  1.0000
  H   H39       1.0  0.9117123458590938  0.9121816960778585  0.07364715164436571  1.0000
  H   H40       1.0  0.030932583588004495  0.9481667141412015  0.014216804981970197  1.0000
  H   H41       1.0  0.020003881197595795  0.8693908536365383  0.031112607829278695  1.0000
  H   H42       1.0  0.3110646938793876  0.17099990002333235  0.9489569498764894  1.0000
  H   H43       1.0  0.4512609589968548  0.16090627153356957  0.007832701638086798  1.0000
  H   H44       1.0  0.18965233070235846  0.18013568147201645  0.007689109996022099  1.0000
  H   H45       1.0  0.1024052922164032  0.5302943810108045  0.6332140783230997  1.0000
  H   H46       1.0  0.2355685715175397  0.5883564742883962  0.5898883448291486  1.0000
  H   H47       1.0  0.37020055132654767  0.5380247709503932  0.6379909845369411  1.0000
  H   H48       1.0  0.758034547083035  0.4094673809511347  0.41204013297421227  1.0000
  H   H49       1.0  0.8927460217400309  0.46702488304629236  0.3685443328131511  1.0000
  H   H50       1.0  0.6246774849851063  0.4599836543357938  0.36379609050860745  1.0000
  H   H51       1.0  0.6099122438223006  0.9746611125835256  0.8699718129335352  1.0000
  H   H52       1.0  0.7516197860110692  0.9195765478283419  0.9124475327381701  1.0000
  H   H53       1.0  0.8786666394423646  0.9724741010828453  0.8632818773660631  1.0000
  H   H54       1.0  0.28052222588014786  0.08348958898934458  0.10200495319963207  1.0000
  H   H55       1.0  0.4129192468045417  0.022858306756937497  0.14012395697164237  1.0000
  H   H56       1.0  0.1465692238401104  0.02993245406570109  0.14887180767289718  1.0000
  H   H57       1.0  0.514750840117209  0.32409999684459473  0.7246775297012958  1.0000
  H   H58       1.0  0.4779342147728229  0.6753272591443037  0.27893633421531655  1.0000
  H   H59       1.0  0.0064112117797421  0.17486668575270403  0.7781050029706832  1.0000
  H   H60       1.0  0.9847288073331485  0.8230666415540424  0.22248946400453204  1.0000
  C   C1        1.0  0.5071133452582545  0.17409803289822168  0.8289849890687931  1.0000
  C   C2        1.0  0.48309086838504806  0.8242171999308991  0.1726654208358197  1.0000
  C   C3        1.0  0.024540258433077597  0.3241423595398415  0.6726651832371714  1.0000
  C   C4        1.0  0.9717205769019444  0.6744854391407312  0.32956432861092816  1.0000
  C   C5        1.0  0.5150378086611624  0.18404124602409405  0.689943435501661  1.0000
  C   C6        1.0  0.47963741720712966  0.8143362299526158  0.31248038109774967  1.0000
  C   C7        1.0  0.007643664723978795  0.3143352221393555  0.8119759214141596  1.0000
  C   C8        1.0  0.9813462915677958  0.6836974018724576  0.19038265057114495  1.0000
  C   C9        1.0  0.1653823301191366  0.6169005174997224  0.14289200232641258  1.0000
  C   C10       1.0  0.8255456023897094  0.38016179001591865  0.860747812885222  1.0000
  C   C11       1.0  0.6624218280210528  0.879692306046877  0.36176898913998196  1.0000
  C   C12       1.0  0.32478496497441256  0.11839861065617184  0.6423552931072792  1.0000
  C   C13       1.0  0.17280712957183647  0.5813754331838155  0.10638597525902328  1.0000
  C   C14       1.0  0.8201407461730241  0.4156951790056879  0.8972403644730632  1.0000
  C   C15       1.0  0.6672146459728338  0.914477042414141  0.3988522167142179  1.0000
  C   C16       1.0  0.31531313824657997  0.08288798704135301  0.6058940755401563  1.0000
  C   C17       1.0  0.0036708220751151995  0.575157492980395  0.0761125547219237  1.0000
  C   C18       1.0  0.9920302551807296  0.4231385763459699  0.9261763123795033  1.0000
  C   C19       1.0  0.4945828579509524  0.9202813076204563  0.4287116600276164  1.0000
  C   C20       1.0  0.4864715575977385  0.07484373606894923  0.5763241179185313  1.0000
  C   C21       1.0  0.8268641847791612  0.6054062881948212  0.08392582834279949  1.0000
  C   C22       1.0  0.16967023586265378  0.3939848025002489  0.916930385416883  1.0000
  C   C23       1.0  0.31699516530775174  0.8902756202583859  0.4200814027863727  1.0000
  C   C24       1.0  0.666886872793107  0.10392539730780467  0.5843406649763097  1.0000
  C   C25       1.0  0.8183107499693916  0.6402626906126229  0.12098305939284867  1.0000
  C   C26       1.0  0.1762343376948294  0.3591136777136866  0.8798592293394804  1.0000
  C   C27       1.0  0.31120050085860385  0.8561032203545408  0.3824593308868457  1.0000
  C   C28       1.0  0.6768974641981487  0.13928840552959795  0.6209446205450107  1.0000
  C   C29       1.0  0.9880021882183102  0.6463946999628829  0.15065547244006436  1.0000
  C   C30       1.0  0.003619948232689301  0.3517276726830757  0.8516300140456747  1.0000
  C   C31       1.0  0.4842218263783522  0.8505290648059752  0.35305519062329427  1.0000
  C   C32       1.0  0.5056913774367047  0.14672506781091238  0.6503285524606  1.0000
  C   C33       1.0  0.8372872494487922  0.5009021524581171  0.034367079612110295  1.0000
  C   C34       1.0  0.1587775266108054  0.49754937846974184  0.9680542590633363  1.0000
  C   C35       1.0  0.3307146264388763  0.9954287168635003  0.46955081652945546  1.0000
  C   C36       1.0  0.645661843582104  0.9980509478797188  0.5365505308191416  1.0000
  C   C37       1.0  0.8283447107911569  0.46350865898453725  0.9991783296298493  1.0000
  C   C38       1.0  0.16986357012851974  0.533725913600577  0.0041213881547648  1.0000
  C   C39       1.0  0.3230510239394846  0.03367467720205749  0.5040580111005182  1.0000
  C   C40       1.0  0.655394866750207  0.960833467199535  0.5013206502541577  1.0000
  C   C41       1.0  0.9910171919589741  0.46166598616913024  0.9643684377181073  1.0000
  C   C42       1.0  0.006165935087949498  0.5367038991829886  0.03781558492996599  1.0000
  C   C43       1.0  0.48285648611126675  0.03533285925936981  0.5389698228318593  1.0000
  C   C44       1.0  0.4955187757769721  0.9585693533376796  0.46710510050662174  1.0000
  C   C45       1.0  0.13912965543310918  0.5027926256706365  0.5397159397178655  1.0000
  C   C46       1.0  0.8575769353978515  0.4951206429729922  0.46185559386865543  1.0000
  C   C47       1.0  0.6433058549218273  0.002861646332007673  0.9637087812079982  1.0000
  C   C48       1.0  0.3637814960542656  0.003636735049966001  0.04457579599682049  1.0000
  C   C49       1.0  0.0114197542431711  0.45290189990937785  0.5439919128683285  1.0000
  C   C50       1.0  0.9852551118782598  0.5450119303884406  0.45758468003953817  1.0000
  C   C51       1.0  0.5105862127775181  0.05092907621590108  0.9616371932981947  1.0000
  C   C52       1.0  0.4925467211163905  0.9554318045134024  0.045738899088568985  1.0000
  C   C53       1.0  0.8707868380551814  0.4490878886748604  0.5047270917376421  1.0000
  C   C54       1.0  0.1258848163054793  0.5488032955577821  0.4968450003435549  1.0000
  C   C55       1.0  0.3730804902968714  0.05179856178426689  0.0030181614491126994  1.0000
  C   C56       1.0  0.6330154499895356  0.955089780618081  0.005129548530319999  1.0000
  C   C57       1.0  0.02304727491154779  0.4073802991466877  0.5878794924133501  1.0000
  C   C58       1.0  0.9732031272224474  0.5906713626291732  0.4138435749765462  1.0000
  C   C59       1.0  0.5114693273322786  0.0944196086737321  0.9161183171229367  1.0000
  C   C60       1.0  0.48583483268659217  0.9085635358829192  0.0887565616065089  1.0000
  C   C61       1.0  0.9676534714005527  0.6298132940271371  0.37573170480379037  1.0000
  C   C62       1.0  0.0280085970730752  0.3685370801040832  0.6262240020311722  1.0000
  C   C63       1.0  0.4830685265713228  0.8689431505227033  0.1265621050374008  1.0000
  C   C64       1.0  0.5109832044628958  0.13036208813641537  0.8757179263342395  1.0000
  C   C65       1.0  0.5329013027424024  0.41576412280411995  0.04091344909159029  1.0000
  C   C66       1.0  0.3420521027214675  0.625390690901085  0.9815121606130643  1.0000
  C   C67       1.0  0.032192941187531694  0.08054525239363389  0.46247350729804987  1.0000
  C   C68       1.0  0.8075768396716114  0.8674319426544698  0.5244856733711813  1.0000
  C   C69       1.0  0.4217682271739633  0.6000973536923622  0.4617348237654112  1.0000
  C   C70       1.0  0.5743398903522419  0.3982018624343198  0.5398883463794634  1.0000
  C   C71       1.0  0.9406621568018493  0.9099426952850675  0.0330467624588309  1.0000
  C   C72       1.0  0.3032705265639919  0.15537961394077368  0.9908924793905455  1.0000
  C   C73       1.0  0.2433502452168455  0.5428715014145096  0.6113236977854442  1.0000
  C   C74       1.0  0.7515518945242616  0.45489938563864735  0.39045962327773504  1.0000
  C   C75       1.0  0.7522662347713193  0.9650876115076484  0.8908598106585187  1.0000
  C   C76       1.0  0.2706381114107401  0.03686570277236709  0.12059154950673448  1.0000
  O   O1        1.0  0.3486674242714827  0.19417051080568368  0.7109268486795913  1.0000
  O   O2        1.0  0.6489809865382199  0.8018406931339329  0.2944751310396255  1.0000
  O   O3        1.0  0.8376957303128023  0.29816633701540946  0.7973161817709523  1.0000
  O   O4        1.0  0.1500257263899059  0.696984926865497  0.20788194454787856  1.0000
  O   O5        1.0  0.6755250851554776  0.18831685082366073  0.8062295189481787  1.0000
  O   O6        1.0  0.3121049740207269  0.8072188525448709  0.19270825190345417  1.0000
  O   O7        1.0  0.1933336115925925  0.30454237534701173  0.6903603875723973  1.0000
  O   O8        1.0  0.8030906653597043  0.6916886595389397  0.3099129829100277  1.0000
  O   O9        1.0  0.6880213537869436  0.20245169802636545  0.7005349353367762  1.0000
  O   O10       1.0  0.3071617580868277  0.7993469000062631  0.2983805134575661  1.0000
  O   O11       1.0  0.1796799203533936  0.30208733076707256  0.7952780859208346  1.0000
  O   O12       1.0  0.8085683823563626  0.6987457701781494  0.204317284101819  1.0000
  O   O13       1.0  0.8514223959058212  0.3089884885126678  0.6922300117493805  1.0000
  O   O14       1.0  0.1453286229874706  0.6924287512102366  0.312054365978085  1.0000
  O   O15       1.0  0.3356291109828788  0.194788882219285  0.8143242617268028  1.0000
  O   O16       1.0  0.6543736393578852  0.8060836634654008  0.189903335442871  1.0000
  O   O17       1.0  0.5144128666643367  0.28508715725577355  0.7459901299682913  1.0000
  O   O18       1.0  0.47803151840068375  0.7136445116867874  0.2563868600021166  1.0000
  O   O19       1.0  0.011893753599260003  0.21341893890901525  0.7559285103205794  1.0000
  O   O20       1.0  0.980525265339665  0.7852119807918285  0.24579904039850217  1.0000
  O   O21       1.0  0.6690686057637976  0.42604317682073395  0.9976477408692046  1.0000
  O   O22       1.0  0.34846603057831516  0.5647213489624647  0.0063987636431051  1.0000
  O   O23       1.0  0.16885543043689924  0.07219237934454267  0.504785684453651  1.0000
  O   O24       1.0  0.8291277219901187  0.9281624063746959  0.5004123082930291  1.0000
  O   O25       1.0  0.244024095519336  0.5978929686290541  0.4943009001412405  1.0000
  O   O26       1.0  0.7520668824061332  0.40012321288805447  0.507318054445065  1.0000
  O   O27       1.0  0.753638626536265  0.9074071962237936  0.005867652678489296  1.0000
  O   O28       1.0  0.23740805632497342  0.09505229248845379  0.004486253856249799  1.0000
  O   O29       1.0  0.28176636925068976  0.5033056427660654  0.5768095365354781  1.0000
  O   O30       1.0  0.7147278260050739  0.49476257939652857  0.42478847200287356  1.0000
  O   O31       1.0  0.7830645402913488  0.005682545488006914  0.9248793779852774  1.0000
  O   O32       1.0  0.22413849699797336  0.001122492855380094  0.083608583291543  1.0000
