data_image0
_chemical_formula_structural       Fe2H32C28S4N28
_chemical_formula_sum              "Fe2 H32 C28 S4 N28"
_cell_length_a       8.791399669098608
_cell_length_b       9.136724100859542
_cell_length_c       12.375453477064575
_cell_angle_alpha    90.41427247258534
_cell_angle_beta     89.9940256242036
_cell_angle_gamma    89.98953821552567

_space_group_name_H-M_alt    "P 1"
_space_group_IT_number       1

loop_
  _space_group_symop_operation_xyz
  'x, y, z'

loop_
  _atom_site_type_symbol
  _atom_site_label
  _atom_site_symmetry_multiplicity
  _atom_site_fract_x
  _atom_site_fract_y
  _atom_site_fract_z
  _atom_site_occupancy
  Fe  Fe1       1.0  0.4949050998876388  0.4820796099059592  0.5063446042444466  1.0000
  Fe  Fe2       1.0  0.0050806016356262  0.9818804679137118  0.0063847765011217986  1.0000
  H   H1        1.0  0.0343333103296644  0.29104468126073624  0.5723343348897882  1.0000
  H   H2        1.0  0.5204662596326415  0.21569694804011869  0.9236673272985454  1.0000
  H   H3        1.0  0.9793075349585082  0.7156155604351754  0.42367330920480123  1.0000
  H   H4        1.0  0.465497497271528  0.7912559919440127  0.07249169495238307  1.0000
  H   H5        1.0  0.7513088076655097  0.6518738838652568  0.6454384326218728  1.0000
  H   H6        1.0  0.2660414940976993  0.833430523862596  0.8570678067981773  1.0000
  H   H7        1.0  0.23423455174308572  0.33354533408784454  0.3571192086166448  1.0000
  H   H8        1.0  0.7488714989826663  0.15177603586379007  0.14547967299525055  1.0000
  H   H9        1.0  0.19629756414425262  0.057205428147462115  0.6587470654804406  1.0000
  H   H10       1.0  0.6915415474338075  0.4547991729961041  0.8401464995495472  1.0000
  H   H11       1.0  0.8083689719265621  0.9550560086912866  0.3403910533103199  1.0000
  H   H12       1.0  0.30375790924857426  0.5572691326744064  0.15883760929931864  1.0000
  H   H13       1.0  0.6485136230822518  0.16834238671001603  0.5710728141757926  1.0000
  H   H14       1.0  0.1426593998960755  0.33541332301626176  0.923427378903234  1.0000
  H   H15       1.0  0.35716753650066113  0.8356719814036494  0.4233952012768538  1.0000
  H   H16       1.0  0.8515344385430694  0.668240324495713  0.07094023503305637  1.0000
  H   H17       1.0  0.1456197649573099  0.47512252551910467  0.6984275081780352  1.0000
  H   H18       1.0  0.6446380626685124  0.03392958899499379  0.7982136421078392  1.0000
  H   H19       1.0  0.8554892331214817  0.5340310960771009  0.29815602850935347  1.0000
  H   H20       1.0  0.3543722651855958  0.9754238052432388  0.19849448783586604  1.0000
  H   H21       1.0  0.08651156554017092  0.6561474179229805  0.6682808457921536  1.0000
  H   H22       1.0  0.5920186028878192  0.8505965388592927  0.8265036479100587  1.0000
  H   H23       1.0  0.9080265940285346  0.35066932081277713  0.3264941178736151  1.0000
  H   H24       1.0  0.41353939783322596  0.156393035480022  0.16831277252616414  1.0000
  H   H25       1.0  0.9032257661135434  0.6572619643665548  0.8217417955545725  1.0000
  H   H26       1.0  0.406500916116137  0.8488778024753288  0.6726028719614232  1.0000
  H   H27       1.0  0.09377398138445159  0.3488934450746939  0.17265173328049596  1.0000
  H   H28       1.0  0.5967128373516032  0.15747827886032442  0.3218228307540513  1.0000
  H   H29       1.0  0.08976356050678189  0.6141433208890207  0.8651933476528126  1.0000
  H   H30       1.0  0.5940364664000911  0.8923976196316871  0.630747988397921  1.0000
  H   H31       1.0  0.9062123192967703  0.3922933421501399  0.13075164722319946  1.0000
  H   H32       1.0  0.41013032828311685  0.11447372525568507  0.3652383598180079  1.0000
  C   C1        1.0  0.5631466445397422  0.42860975931669293  0.26636895547672873  1.0000
  C   C2        1.0  0.06904063749873761  0.05983570626455051  0.24324777162858874  1.0000
  C   C3        1.0  0.43086328391134293  0.559808218520722  0.7431816359605321  1.0000
  C   C4        1.0  0.9369867269988674  0.9284077016648808  0.7664043282909389  1.0000
  C   C5        1.0  0.9340374917812253  0.3603097579674568  0.5761290353299413  1.0000
  C   C6        1.0  0.4263420132734694  0.13867601767450574  0.9220970507328159  1.0000
  C   C7        1.0  0.07355938430778512  0.6387060068711037  0.4220880196324897  1.0000
  C   C8        1.0  0.5658613932952079  0.8604048886884713  0.07625607219101477  1.0000
  C   C9        1.0  0.7893753775973735  0.5467647604812882  0.6148788839321211  1.0000
  C   C10       1.0  0.2962675861084563  0.9413122165918467  0.8869598189408803  1.0000
  C   C11       1.0  0.20385368906013215  0.4414172872640877  0.38695924638901136  1.0000
  C   C12       1.0  0.710677168126935  0.04670731512637621  0.11495157683113177  1.0000
  C   C13       1.0  0.04908267744873031  0.5509935243634843  0.701484377179831  1.0000
  C   C14       1.0  0.5507319124872653  0.9550990474416919  0.7943286065060985  1.0000
  C   C15       1.0  0.9493752138165944  0.4551339981710072  0.29431488325858607  1.0000
  C   C16       1.0  0.45091202129520275  0.051234595794078096  0.20155308585469095  1.0000
  C   C17       1.0  0.7888190803311019  0.39169068271424123  0.8678246338072311  1.0000
  C   C18       1.0  0.29460108056175466  0.11898704097777112  0.6310051972680027  1.0000
  C   C19       1.0  0.20543404181999853  0.618986140711506  0.13103703472677344  1.0000
  C   C20       1.0  0.7110665712066152  0.891944073959465  0.3680028422381199  1.0000
  C   C21       1.0  0.5264905604641612  0.1739938641900238  0.5847191315514235  1.0000
  C   C22       1.0  0.0201874741020447  0.3321107267470467  0.9115982402696187  1.0000
  C   C23       1.0  0.4796566022419739  0.8323486709680382  0.4116432637946089  1.0000
  C   C24       1.0  0.9735510139201154  0.6738845196938499  0.08462592265190948  1.0000
  C   C25       1.0  0.9932231432841833  0.5745905499677236  0.817055140352245  1.0000
  C   C26       1.0  0.4965817353244901  0.9316127818991333  0.678163361449357  1.0000
  C   C27       1.0  0.0036070596705855005  0.4315666706940249  0.17817071028482448  1.0000
  C   C28       1.0  0.5067001928432688  0.074848826915435  0.3171375509659455  1.0000
  S   S1        1.0  0.5914870996502586  0.4297230205397328  0.1362629480366877  1.0000
  S   S2        1.0  0.0969893614191548  0.06990941818632018  0.37315464951242205  1.0000
  S   S3        1.0  0.40286531187128827  0.5695912128604094  0.8731002496965201  1.0000
  S   S4        1.0  0.908700226389442  0.9297436402926991  0.6363120022537172  1.0000
  N   N1        1.0  0.541406265575695  0.4260563511793194  0.36099765459833566  1.0000
  N   N2        1.0  0.04715973815252991  0.053013506800496706  0.14864720705123347  1.0000
  N   N3        1.0  0.45277175487177607  0.5531551081687881  0.6485865344873716  1.0000
  N   N4        1.0  0.958664920928463  0.9258087950503229  0.8610536575957607  1.0000
  N   N5        1.0  0.711654803203281  0.45567419789855274  0.5517991224055621  1.0000
  N   N6        1.0  0.2162453369791919  0.0240316854511775  0.9546020465527858  1.0000
  N   N7        1.0  0.2837791584760581  0.5242056605155768  0.4545851084741769  1.0000
  N   N8        1.0  0.7883146142674279  0.955522905846806  0.05186636364408769  1.0000
  N   N9        1.0  0.8035817043712756  0.33790440379390674  0.5259472741113385  1.0000
  N   N10       1.0  0.29829136144508783  0.14939217390110573  0.9774337820869899  1.0000
  N   N11       1.0  0.2015965019594645  0.6495268674182029  0.47741209821877095  1.0000
  N   N12       1.0  0.696307197690892  0.8378346278458367  0.026049501429589794  1.0000
  N   N13       1.0  0.9303582802708236  0.4898764329370451  0.6321881204099851  1.0000
  N   N14       1.0  0.42993933940595497  0.009976158296673504  0.8647152397489533  1.0000
  N   N15       1.0  0.0701043639915895  0.5099968781418981  0.364712048195308  1.0000
  N   N16       1.0  0.5696565333540207  0.9899776285734707  0.13228907349416363  1.0000
  N   N17       1.0  0.9287995764888919  0.2247418300253727  0.940842591795217  1.0000
  N   N18       1.0  0.43669956489230083  0.28593553898006263  0.5594854188240317  1.0000
  N   N19       1.0  0.0632899703448544  0.7858601819754086  0.059455251806610876  1.0000
  N   N20       1.0  0.5710404707194956  0.7249458474431167  0.4409103673873174  1.0000
  N   N21       1.0  0.7821855063437725  0.26115922482668447  0.912829715817061  1.0000
  N   N22       1.0  0.28936129305967023  0.25124408418429317  0.5891374958321263  1.0000
  N   N23       1.0  0.2106214914969797  0.7512335252929461  0.08916805674331837  1.0000
  N   N24       1.0  0.7176845882135865  0.7613874766694269  0.41299105882970366  1.0000
  N   N25       1.0  0.9360584682703391  0.44045628283519295  0.865420605675659  1.0000
  N   N26       1.0  0.4403258911754762  0.06656793954334721  0.6298839022332741  1.0000
  N   N27       1.0  0.0597615761777917  0.5665074891608273  0.12984443003340826  1.0000
  N   N28       1.0  0.5638204303559889  0.9407182147937901  0.36553465966528603  1.0000
