data_image0
_chemical_formula_structural       Nd4Cu4H32C56N8O32
_chemical_formula_sum              "Nd4 Cu4 H32 C56 N8 O32"
_cell_length_a       9.261363694
_cell_length_b       11.512090790948498
_cell_length_c       17.2671
_cell_angle_alpha    104.87774177003115
_cell_angle_beta     90.0
_cell_angle_gamma    113.71900052254583

_space_group_name_H-M_alt    "P 1"
_space_group_IT_number       1

loop_
  _space_group_symop_operation_xyz
  'x, y, z'

loop_
  _atom_site_type_symbol
  _atom_site_label
  _atom_site_symmetry_multiplicity
  _atom_site_fract_x
  _atom_site_fract_y
  _atom_site_fract_z
  _atom_site_occupancy
  Nd  Nd1       1.0  0.3028228894672865  0.9684151233930862  0.9252176091837682  1.0000
  Nd  Nd2       1.0  0.3343500801261142  0.03157750769806  0.5748514365086805  1.0000
  Nd  Nd3       1.0  0.6971785716682818  0.031585415419265  0.07478213556949949  1.0000
  Nd  Nd4       1.0  0.6656508867690932  0.968422042649138  0.42514871817333943  1.0000
  Cu  Cu1       1.0  0.2378717539231659  0.3227328831750427  0.13014451612309588  1.0000
  Cu  Cu2       1.0  0.9150737149857734  0.6771856130298204  0.36986087505093923  1.0000
  Cu  Cu3       1.0  0.762133531990422  0.6772666671721623  0.8698544802868325  1.0000
  Cu  Cu4       1.0  0.08492293289105393  0.3228139373173846  0.6301381213589892  1.0000
  H   H1        1.0  0.6161316804845924  0.1952920482506144  0.7771361126250369  1.0000
  H   H2        1.0  0.4207427077332326  0.8047351791208043  0.7228473518273332  1.0000
  H   H3        1.0  0.383868609622489  0.8047104674920433  0.22286512881488815  1.0000
  H   H4        1.0  0.5792576736477387  0.1952653596915468  0.2771541303340612  1.0000
  H   H5        1.0  0.7899010725662734  0.3055335895562408  0.684300227686208  1.0000
  H   H6        1.0  0.4843655740670415  0.6945964381908283  0.8157425321191525  1.0000
  H   H7        1.0  0.21009625209867983  0.6944629953955115  0.3156988402379071  1.0000
  H   H8        1.0  0.5156391263323102  0.3054041006215229  0.18425721263411526  1.0000
  H   H9        1.0  0.16174100054287524  0.2305179808191937  0.7599190527046886  1.0000
  H   H10       1.0  0.9311323972424933  0.7694222616189847  0.740025197792626  1.0000
  H   H11       1.0  0.8382578068431457  0.7694815695280113  0.240079943705247  1.0000
  H   H12       1.0  0.068869063893068  0.2305782771933735  0.2599716512804164  1.0000
  H   H13       1.0  0.00682750402999231  0.1277571437725911  0.8617061552989824  1.0000
  H   H14       1.0  0.8789764729729728  0.8722186834109992  0.6382476614769033  1.0000
  H   H15       1.0  0.9931748543123933  0.8722473489003663  0.1382948454194732  1.0000
  H   H16       1.0  0.1210253911290593  0.1277848207968049  0.3617502743540443  1.0000
  H   H17       1.0  0.5552585131152911  0.7317923818043681  0.06107697107393047  1.0000
  H   H18       1.0  0.8233727372325461  0.2680954719808284  0.4389625559252862  1.0000
  H   H19       1.0  0.4447391232422504  0.2682091454731363  0.9389252594307962  1.0000
  H   H20       1.0  0.17662557591312125  0.7319030899012304  0.5610385878215425  1.0000
  H   H21       1.0  0.4900167992703859  0.564219861769395  0.13467686910344406  1.0000
  H   H22       1.0  0.9257614464720945  0.4356403149915807  0.36534344169064775  1.0000
  H   H23       1.0  0.5099809283610455  0.43577968857780297  0.865323285578583  1.0000
  H   H24       1.0  0.07423745218780911  0.5643572584253178  0.6346563745768066  1.0000
  H   H25       1.0  0.05222035096632991  0.3334794762913447  0.9961165050723435  1.0000
  H   H26       1.0  0.718815080868346  0.6664805354498426  0.503882672678685  1.0000
  H   H27       1.0  0.9477779621793302  0.666519085590707  0.0038829012663512946  1.0000
  H   H28       1.0  0.2811847149983819  0.3335209918276618  0.49611666214582323  1.0000
  H   H29       1.0  0.09743372790180163  0.5010045499990881  0.9185958419741027  1.0000
  H   H30       1.0  0.596520265488877  0.49903552741928087  0.5814517897297902  1.0000
  H   H31       1.0  0.9025682274741128  0.49899697727841646  0.08140580939458178  1.0000
  H   H32       1.0  0.4034816898870375  0.5009659998582237  0.4185487033668025  1.0000
  C   C1        1.0  0.6949045821116968  0.0824755552279157  0.882307532868893  1.0000
  C   C2        1.0  0.6124144964605948  0.9174192178133325  0.6175866571619864  1.0000
  C   C3        1.0  0.3050968790238642  0.9175249835844353  0.11769337015645928  1.0000
  C   C4        1.0  0.3875852994061333  0.082582309464172  0.38241325679856425  1.0000
  C   C5        1.0  0.7976013349354218  0.1514150686848055  0.826371236619323  1.0000
  C   C6        1.0  0.6460708259069321  0.8485370353351769  0.6735843105421395  1.0000
  C   C7        1.0  0.2024026886757967  0.8485884355230057  0.17362901575580028  1.0000
  C   C8        1.0  0.353928566993325  0.1514615265468748  0.32641625406863983  1.0000
  C   C9        1.0  0.7372139560817743  0.20348444741800623  0.7763754294850003  1.0000
  C   C10       1.0  0.5336280449275819  0.796544756883712  0.7236101107900835  1.0000
  C   C11       1.0  0.26278534554460015  0.7965160913943521  0.2236260526764012  1.0000
  C   C12       1.0  0.46637292196762553  0.2034547934634858  0.27638946475589415  1.0000
  C   C13       1.0  0.8330029317684122  0.2636315633611375  0.7238619030308938  1.0000
  C   C14       1.0  0.5693397567021776  0.7364895681995733  0.7761636972356811  1.0000
  C   C15       1.0  0.16699439289654805  0.7363650215906077  0.27613774402927044  1.0000
  C   C16       1.0  0.4306633697022235  0.2635099821476317  0.2238347200382051  1.0000
  C   C17       1.0  0.04168976249042802  0.2227960910634366  0.7670288470623632  1.0000
  C   C18       1.0  0.8188024936953227  0.7771471167701876  0.7329095405603141  1.0000
  C   C19       1.0  0.9583074709006425  0.7772024708186152  0.23297055927632468  1.0000
  C   C20       1.0  0.18119946168059192  0.2228544105073169  0.26708805685606046  1.0000
  C   C21       1.0  0.9542021960847009  0.1648097599393097  0.8228177861809627  1.0000
  C   C22       1.0  0.7892983800696385  0.8351423440806727  0.6771377609805069  1.0000
  C   C23       1.0  0.04579769105590979  0.8351897904078954  0.1771823685010645  1.0000
  C   C24       1.0  0.2107020013113257  0.1648581947316856  0.3228614046367184  1.0000
  C   C25       1.0  0.34988017137608557  0.7423363395648153  0.9491088917765254  1.0000
  C   C26       1.0  0.6074856521965231  0.2575920412915522  0.5509254108644867  1.0000
  C   C27       1.0  0.650118050495692  0.2576641992475359  0.05089259038487629  1.0000
  C   C28       1.0  0.39251198416101835  0.7424094859859522  0.4490745030960639  1.0000
  C   C29       1.0  0.3286780671936357  0.6314256073522984  0.9846700748921576  1.0000
  C   C30       1.0  0.6971895473637132  0.3685027735040691  0.5153538033000444  1.0000
  C   C31       1.0  0.6713190749235524  0.3685749314600528  0.015330248997152312  1.0000
  C   C32       1.0  0.30280710051311394  0.6314967768431359  0.4846451931098912  1.0000
  C   C33       1.0  0.4421910835652341  0.6460766378130955  0.04382509924196399  1.0000
  C   C34       1.0  0.7960297765196884  0.3538151698326999  0.4562000470492363  1.0000
  C   C35       1.0  0.557808712301494  0.3539248894644089  0.9561759729906782  1.0000
  C   C36       1.0  0.20396745687138215  0.6461833920493518  0.5437999384255007  1.0000
  C   C37       1.0  0.40695569424315897  0.5515655309126188  0.08527112938414663  1.0000
  C   C38       1.0  0.8553472597876777  0.448307495895321  0.4147403775198129  1.0000
  C   C39       1.0  0.5930420333882651  0.4484340194345791  0.9147296044339227  1.0000
  C   C40       1.0  0.14465055911762906  0.5516900775215845  0.5852582804755497  1.0000
  C   C41       1.0  0.1612496486391635  0.4237757677900618  0.008121360697202776  1.0000
  C   C42       1.0  0.7375139236346655  0.5761684285087156  0.49188727159419426  1.0000
  C   C43       1.0  0.8387481702661503  0.5762218056268438  0.991879613842343  1.0000
  C   C44       1.0  0.2624848837513555  0.4238311218384894  0.5081117248157412  1.0000
  C   C45       1.0  0.18731167169974586  0.5160134048443723  0.9652697700382047  1.0000
  C   C46       1.0  0.6713558215601694  0.48396439926951723  0.5347677807427117  1.0000
  C   C47       1.0  0.8126866414459145  0.48398515703767947  0.03473021543653231  1.0000
  C   C48       1.0  0.32864082631665786  0.5160351510776877  0.4652312156672237  1.0000
  C   C49       1.0  0.9459453908121066  0.9279878872025407  0.9763440061633802  1.0000
  C   C50       1.0  0.017956269869749505  0.0720205593310155  0.5236623044725801  1.0000
  C   C51       1.0  0.0540576443184051  0.0720136400749638  0.023654170389036697  1.0000
  C   C52       1.0  0.9820458680539375  0.9279770140858902  0.4763386700669656  1.0000
  C   C53       1.0  0.21751208620632675  0.9245401207575767  0.7310282926778058  1.0000
  C   C54       1.0  0.293030114454254  0.0755661838258774  0.7690804816141179  1.0000
  C   C55       1.0  0.7824882951746447  0.0754604180547744  0.2689726103475465  1.0000
  C   C56       1.0  0.7069702669267103  0.9244343549864737  0.2309204214112413  1.0000
  N   N1        1.0  0.9816361641522277  0.2701999142862519  0.7171042438768609  1.0000
  N   N2        1.0  0.7113872140279157  0.729852024713928  0.7828875047099828  1.0000
  N   N3        1.0  0.018361069238842755  0.7297986475957998  0.2828940041897424  1.0000
  N   N4        1.0  0.28861748637142887  0.2701485140984232  0.2171110817711934  1.0000
  N   N5        1.0  0.26777506975325593  0.44242513978465337  0.0689233526259443  1.0000
  N   N6        1.0  0.8253602830932253  0.5574775409777999  0.4310822269117408  1.0000
  N   N7        1.0  0.7322279653772554  0.5575763874928441  0.9310771404706487  1.0000
  N   N8        1.0  0.17463695029784532  0.4425210209042589  0.5689166002909047  1.0000
  O   O1        1.0  0.5459705454234155  0.0331699250555246  0.8626193239662783  1.0000
  O   O2        1.0  0.5128582502069464  0.9668157867795699  0.6372661094210414  1.0000
  O   O3        1.0  0.45403033019790945  0.9668316022219728  0.13738174826636404  1.0000
  O   O4        1.0  0.4871409601455454  0.0331867289630878  0.3627351320188836  1.0000
  O   O5        1.0  0.766128210855129  0.0810304191778783  0.9445744130416712  1.0000
  O   O6        1.0  0.6850909044099113  0.9187694612089247  0.5553209071710796  1.0000
  O   O7        1.0  0.23387266476619578  0.9189711080996261  0.05542665919097093  1.0000
  O   O8        1.0  0.31490947697106003  0.0812310776034266  0.4446788375821811  1.0000
  O   O9        1.0  0.23931629883355046  0.7277248477100358  0.8991909060009602  1.0000
  O   O10       1.0  0.5116073879730934  0.2722519679387005  0.6008777489190888  1.0000
  O   O11       1.0  0.760683002792824  0.2722756911023154  0.10080999702439189  1.0000
  O   O12       1.0  0.48839240789363453  0.7277495593388039  0.39912274417751087  1.0000
  O   O13       1.0  0.47411437448103316  0.851626977395661  0.9736632638117442  1.0000
  O   O14       1.0  0.6223996062335074  0.1482974496001077  0.5263332972932488  1.0000
  O   O15       1.0  0.5258817791554407  0.148371584486398  0.026335563390901495  1.0000
  O   O16       1.0  0.37759861563827  0.8517030892122505  0.4736670265960611  1.0000
  O   O17       1.0  0.00409474957073293  0.8684249541633591  0.92159208190521  1.0000
  O   O18       1.0  0.135619431577723  0.1315834923702042  0.5784466603492645  1.0000
  O   O19       1.0  0.9959051375698778  0.1315745961838459  0.07840633536868317  1.0000
  O   O20       1.0  0.8643842803409214  0.8684150695118475  0.42155448339756413  1.0000
  O   O21       1.0  0.8062010967779828  0.8777946153250014  0.9943758716346237  1.0000
  O   O22       1.0  0.9284419475518817  0.122210865813102  0.5055754925912552  1.0000
  O   O23       1.0  0.19379987011722485  0.12220493502220361  0.005622545639262502  1.0000
  O   O24       1.0  0.07156176436675576  0.8777876960689497  0.4944256511555664  1.0000
  O   O25       1.0  0.20207168730119215  0.8527291160384749  0.7777373536606689  1.0000
  O   O26       1.0  0.3493960264496465  0.1473396268692682  0.7223510914893012  1.0000
  O   O27       1.0  0.7979287853536619  0.1472694458435768  0.22226263181406836  1.0000
  O   O28       1.0  0.6506038606909642  0.8526599234779368  0.2776496423287682  1.0000
  O   O29       1.0  0.1735305094637455  0.8851319921372109  0.6556668771366957  1.0000
  O   O30       1.0  0.2884634912969446  0.11498024323715582  0.8444371210384958  1.0000
  O   O31       1.0  0.826471537186059  0.11486755820999411  0.3443338566813736  1.0000
  O   O32       1.0  0.7115353160890762  0.8850193071100491  0.15556361277957356  1.0000
