data_image0
_chemical_formula_structural       Ni3P6H44C24O22
_chemical_formula_sum              "Ni3 P6 H44 C24 O22"
_cell_length_a       7.942174297137384
_cell_length_b       10.166532385061021
_cell_length_c       12.992255102753559
_cell_angle_alpha    66.67142817496631
_cell_angle_beta     85.54929488231272
_cell_angle_gamma    72.72390476438967

_space_group_name_H-M_alt    "P 1"
_space_group_IT_number       1

loop_
  _space_group_symop_operation_xyz
  'x, y, z'

loop_
  _atom_site_type_symbol
  _atom_site_label
  _atom_site_symmetry_multiplicity
  _atom_site_fract_x
  _atom_site_fract_y
  _atom_site_fract_z
  _atom_site_occupancy
  Ni  Ni1       1.0  0.9999818194276744  0.5000216791203583  0.49998245322071744  1.0000
  Ni  Ni2       1.0  0.5298089635649889  0.635899871432116  0.3926212668428165  1.0000
  Ni  Ni3       1.0  0.4699795785069086  0.3641905999205193  0.6073858046556853  1.0000
  P   P1        1.0  0.4403408965145131  0.2150670772849992  0.8876779286136344  1.0000
  P   P2        1.0  0.5596563322025786  0.7849948337448539  0.11231195620070629  1.0000
  P   P3        1.0  0.092930461092145  0.8078015142293108  0.31445856594778143  1.0000
  P   P4        1.0  0.906959333939689  0.1922040738312774  0.6854753334229857  1.0000
  P   P5        1.0  0.34631594422997847  0.3927725952593733  0.3652528986843962  1.0000
  P   P6        1.0  0.6537345526941464  0.607139622714797  0.6347529043523539  1.0000
  H   H1        1.0  0.5864574865413771  0.8867935895040164  0.28576206563072054  1.0000
  H   H2        1.0  0.41328441387124565  0.11331068961112578  0.7143424435850891  1.0000
  H   H3        1.0  0.7504975295789365  0.7850996757768768  0.3678513140951198  1.0000
  H   H4        1.0  0.24939464228399552  0.2148131454927551  0.6321306969131515  1.0000
  H   H5        1.0  0.8451327444731263  0.44593916612672774  0.36462515508536353  1.0000
  H   H6        1.0  0.15439025157274244  0.554335759133501  0.6353399135281067  1.0000
  H   H7        1.0  0.7704849770831785  0.3783780859221366  0.48959102407501137  1.0000
  H   H8        1.0  0.22925933380122393  0.6218901340772118  0.510446562202205  1.0000
  H   H9        1.0  0.35850224991779106  0.008274398720310194  0.943538169286626  1.0000
  H   H10       1.0  0.6415196163727472  0.9917624419856355  0.05647195943672751  1.0000
  H   H11       1.0  0.2244356492493936  0.8359465983557824  0.1466293277761111  1.0000
  H   H12       1.0  0.7756105525231618  0.1641974384632263  0.8533015575783909  1.0000
  H   H13       1.0  0.42127167795354126  0.5706296556864316  0.22842652339745245  1.0000
  H   H14       1.0  0.5787063941074281  0.4293617577371549  0.771549589991729  1.0000
  H   H15       1.0  0.3477102558332987  0.41035808175420396  0.9510158160555026  1.0000
  H   H16       1.0  0.652353058502385  0.5896254269772073  0.04903385507859069  1.0000
  H   H17       1.0  0.16753490767929688  0.3628890718983371  0.9204282652625156  1.0000
  H   H18       1.0  0.8324942661641475  0.6371841711685562  0.07958812744661974  1.0000
  H   H19       1.0  0.07274923697352882  0.18374978900099137  0.9608851020605801  1.0000
  H   H20       1.0  0.927148740041041  0.8164358835150479  0.03909136423362015  1.0000
  H   H21       1.0  0.8968034793547376  0.2526343684099572  0.03444480944281028  1.0000
  H   H22       1.0  0.10316336388110868  0.7471959840198393  0.9657209510311876  1.0000
  H   H23       1.0  0.987973208281133  0.058170912638893  0.07166201614997902  1.0000
  H   H24       1.0  0.012222106900253488  0.9417567219542918  0.9282671675598524  1.0000
  H   H25       1.0  0.8830172943429346  0.04511389217736192  0.22782016385444603  1.0000
  H   H26       1.0  0.11687639524644315  0.9550652899577513  0.7721492551930286  1.0000
  H   H27       1.0  0.9415030754562608  0.011936499623892899  0.36625470353394735  1.0000
  H   H28       1.0  0.0585417233675756  0.9880367802289386  0.6337535945560689  1.0000
  H   H29       1.0  0.2664297145296075  0.07592441522294278  0.49407007382303925  1.0000
  H   H30       1.0  0.7336468082486861  0.9240675455991859  0.5059147843957351  1.0000
  H   H31       1.0  0.20398295715776982  0.9325324526895998  0.47544226276482987  1.0000
  H   H32       1.0  0.796197639625916  0.06735368068726899  0.5246172834102725  1.0000
  H   H33       1.0  0.04860949127466091  0.10963862453420599  0.45179190874113584  1.0000
  H   H34       1.0  0.9514959929524522  0.890263089716811  0.5481889268576271  1.0000
  H   H35       1.0  0.5930217821286379  0.21259129165031954  0.33770089509995677  1.0000
  H   H36       1.0  0.40709404457468423  0.7872909028367019  0.6623161480148244  1.0000
  H   H37       1.0  0.4691420700728842  0.12770325289284304  0.4485260455955429  1.0000
  H   H38       1.0  0.5309711120617353  0.8721947042494591  0.551477098815113  1.0000
  H   H39       1.0  0.6464584233955648  0.2684406611061619  0.18662182236592884  1.0000
  H   H40       1.0  0.3536203427488759  0.7315175499323772  0.8133947417858212  1.0000
  H   H41       1.0  0.49524262539755887  0.4256326833407016  0.08929012287644165  1.0000
  H   H42       1.0  0.5048037603606089  0.5743040490257485  0.91071227845454  1.0000
  H   H43       1.0  0.607675517918324  0.270173670595227  0.05410477704739952  1.0000
  H   H44       1.0  0.39243693146607217  0.7297697963561873  0.9458968766568109  1.0000
  C   C1        1.0  0.2815388021970194  0.2314558649527639  0.08937490657963561  1.0000
  C   C2        1.0  0.7185529176600626  0.768465690871885  0.9106306043809204  1.0000
  C   C3        1.0  0.1474714941569034  0.16073267812154765  0.12686448404936365  1.0000
  C   C4        1.0  0.8525563426855455  0.8392690365697247  0.8731121547339885  1.0000
  C   C5        1.0  0.1270828110993421  0.09407821898999198  0.24327393358966995  1.0000
  C   C6        1.0  0.873034972609567  0.9058599182965922  0.7567059814286241  1.0000
  C   C7        1.0  0.2283960488955188  0.10956864405461891  0.3200586472694981  1.0000
  C   C8        1.0  0.7717069968161283  0.8903493027642003  0.6799543203369824  1.0000
  C   C9        1.0  0.3620938803442897  0.1805324211910815  0.2815530436897619  1.0000
  C   C10       1.0  0.6380725726416543  0.8193066160188565  0.7184792031835274  1.0000
  C   C11       1.0  0.39516703237078593  0.23469615970518015  0.16609385394877316  1.0000
  C   C12       1.0  0.6048978256542838  0.7652345423983815  0.8339225395271516  1.0000
  C   C13       1.0  0.2970585422125538  0.31531412281900373  0.9653911312918527  1.0000
  C   C14       1.0  0.7029728847481849  0.6847012491810673  0.034636593706544296  1.0000
  C   C15       1.0  0.02154296343758229  0.16346152499671973  0.04446073910501269  1.0000
  C   C16       1.0  0.9784944404981106  0.8365151655891764  0.9555499717829936  1.0000
  C   C17       1.0  0.9951383892116326  0.005931865291124403  0.2875108211943883  1.0000
  C   C18       1.0  0.004823933058304562  0.9941121391894466  0.7124500858769172  1.0000
  C   C19       1.0  0.18649934171699564  0.053599375708458304  0.44186055069353375  1.0000
  C   C20       1.0  0.8136232315747093  0.9463205678154054  0.5581462105438465  1.0000
  C   C21       1.0  0.45826944410385545  0.21019213614494697  0.3621693285601  1.0000
  C   C22       1.0  0.5418400381489052  0.7897135566846956  0.637840115660474  1.0000
  C   C23       1.0  0.5439068563376352  0.30282729951838405  0.12174525930769427  1.0000
  C   C24       1.0  0.45617839292096113  0.6971143507887163  0.8782583128839508  1.0000
  O   O1        1.0  0.6165119301666734  0.8203693899893523  0.364952715595557  1.0000
  O   O2        1.0  0.3833682330898895  0.1795946092871503  0.6351120871773336  1.0000
  O   O3        1.0  0.6231077348297804  0.1288446663523857  0.9464852786608876  1.0000
  O   O4        1.0  0.37690876412705887  0.8712741464839198  0.05345861960006466  1.0000
  O   O5        1.0  0.794250757523848  0.4709076635951845  0.42781294449384455  1.0000
  O   O6        1.0  0.20558939246972605  0.5292867580834937  0.5722384284749042  1.0000
  O   O7        1.0  0.3494920713238087  0.1042572884674016  0.871643175836866  1.0000
  O   O8        1.0  0.6505474078435184  0.8957872648445573  0.12835063693053447  1.0000
  O   O9        1.0  0.44735999311385644  0.3367777623607608  0.7716158065626505  1.0000
  O   O10       1.0  0.5525499619953252  0.6633078204867999  0.22836587217777565  1.0000
  O   O11       1.0  0.9587250713347826  0.7222514781061378  0.3690833866941929  1.0000
  O   O12       1.0  0.04113336224533984  0.27773574088041636  0.6307706952097479  1.0000
  O   O13       1.0  0.1276005090727993  0.8018919113239561  0.19530116097788425  1.0000
  O   O14       1.0  0.8724581810353983  0.19815784324664784  0.8046154408255577  1.0000
  O   O15       1.0  0.2614442403810812  0.7456565278206855  0.390969009104488  1.0000
  O   O16       1.0  0.7383785608524178  0.2543710262940593  0.6090570197323333  1.0000
  O   O17       1.0  0.16144322033270697  0.39644826843404973  0.4058381359264872  1.0000
  O   O18       1.0  0.8385963783566697  0.6034621107883497  0.5941526092974527  1.0000
  O   O19       1.0  0.4639410817827213  0.42945121047410584  0.43460562979522904  1.0000
  O   O20       1.0  0.5360265801865935  0.5705151069698714  0.5654325214132927  1.0000
  O   O21       1.0  0.3425300931577979  0.5047065379202705  0.23895752136970577  1.0000
  O   O22       1.0  0.6575621482389168  0.4952052092833412  0.7610347826013213  1.0000
