data_image0
_chemical_formula_structural       Zr6H30C52S5O49
_chemical_formula_sum              "Zr6 H30 C52 S5 O49"
_cell_length_a       14.892489528529126
_cell_length_b       14.766606843429887
_cell_length_c       14.842423863097347
_cell_angle_alpha    59.693309142185676
_cell_angle_beta     59.274190322107145
_cell_angle_gamma    59.9421263960499

_space_group_name_H-M_alt    "P 1"
_space_group_IT_number       1

loop_
  _space_group_symop_operation_xyz
  'x, y, z'

loop_
  _atom_site_type_symbol
  _atom_site_label
  _atom_site_symmetry_multiplicity
  _atom_site_fract_x
  _atom_site_fract_y
  _atom_site_fract_z
  _atom_site_occupancy
  Zr  Zr1       1.0  0.8711126548994061  0.8809635099451614  0.6213390657145228  1.0000
  Zr  Zr2       1.0  0.11471726900994389  0.1167393443455182  0.38677497011054374  1.0000
  Zr  Zr3       1.0  0.10698139444727438  0.8772759463046568  0.6265529368159974  1.0000
  Zr  Zr4       1.0  0.8755973905624472  0.12253012387098039  0.3815507508477721  1.0000
  Zr  Zr5       1.0  0.11370142533951376  0.8830999372034257  0.381612152238212  1.0000
  Zr  Zr6       1.0  0.8731032127186539  0.11995940359337726  0.6218426660662149  1.0000
  H   H1        1.0  0.08319200191381511  0.7169230203261066  0.5967294502952356  1.0000
  H   H2        1.0  0.09371036903041131  0.09417048768514044  0.22037952919640696  1.0000
  H   H3        1.0  0.08583683581844076  0.09086067045472385  0.6002240129111839  1.0000
  H   H4        1.0  0.7115278407753749  0.09598109471796348  0.5952038251709978  1.0000
  H   H5        1.0  0.8188238432918808  0.6175455059436104  0.6031209743286682  1.0000
  H   H6        1.0  0.1394727660142151  0.5966272274593011  0.34642431814224034  1.0000
  H   H7        1.0  0.8295565463111672  0.4456119741775453  0.5981257472919808  1.0000
  H   H8        1.0  0.5803901248340254  0.8465972781308079  0.9355209980054369  1.0000
  H   H9        1.0  0.5723590981114839  0.16054943386214388  0.8941027122454484  1.0000
  H   H10       1.0  0.4118299400504596  0.8574284939923803  0.10497795758001167  1.0000
  H   H11       1.0  0.12164335911511866  0.8364286054089831  0.09885553664768311  1.0000
  H   H12       1.0  0.8392234881108749  0.13309512448052638  0.11129907115702768  1.0000
  H   H13       1.0  0.10896843343375207  0.8461804586452147  0.9331314051004327  1.0000
  H   H14       1.0  0.5730411323527704  0.4273571516403934  0.6497319418514917  1.0000
  H   H15       1.0  0.5971150093766225  0.41166626587340727  0.3560488768002799  1.0000
  H   H16       1.0  0.4045162914721486  0.5937040710126026  0.6394163041171909  1.0000
  H   H17       1.0  0.9535888135730276  0.5715283919137376  0.755127042654266  1.0000
  H   H18       1.0  0.029980803244548257  0.22046681403632823  0.06720005968885802  1.0000
  H   H19       1.0  0.01211968102288809  0.49736495501365136  0.16116497115966405  1.0000
  H   H20       1.0  0.007818920666551292  0.6655317339763869  0.9903524020941531  1.0000
  H   H21       1.0  0.5928067651102751  0.12374872017282725  0.33483641761363  1.0000
  H   H22       1.0  0.5871592913924601  0.8583621379584302  0.6479883729644699  1.0000
  H   H23       1.0  0.426962213337717  0.10936997256638395  0.3488946925415776  1.0000
  H   H24       1.0  0.2329660520119177  0.2484437110618813  0.3884072181815768  1.0000
  H   H25       1.0  0.22691146412705626  0.31237112861322897  0.1332957386219037  1.0000
  H   H26       1.0  0.8763669416400789  0.21047425932212607  0.7708141808935735  1.0000
  H   H27       1.0  0.2594638477030031  0.6417835070327129  0.38716585196389997  1.0000
  H   H28       1.0  0.2554696054367938  0.8764555694879305  0.7203361165159805  1.0000
  H   H29       1.0  0.925275010405315  0.35669987679843035  0.7647729472434789  1.0000
  H   H30       1.0  0.05174595967194061  0.2158869756551738  0.8204088788364813  1.0000
  C   C1        1.0  0.9854701420244684  0.7069832837383175  0.49004474635222567  1.0000
  C   C2        1.0  0.3000256958229103  0.005518763793041628  0.20191813693291744  1.0000
  C   C3        1.0  0.996284237298397  0.31059297908139194  0.49136856155326564  1.0000
  C   C4        1.0  0.6908511006593302  0.9976066656629144  0.8068965751066628  1.0000
  C   C5        1.0  0.9830049937665633  0.6982516368295961  0.8108276738621002  1.0000
  C   C6        1.0  0.6962786709009807  0.9998775529190169  0.4924682554740232  1.0000
  C   C7        1.0  0.9946030013284215  0.3066006135991088  0.2032053317950968  1.0000
  C   C8        1.0  0.3027393914840745  0.9863488986078437  0.5116902156692833  1.0000
  C   C9        1.0  0.30020127800551677  0.6957774278702828  0.4981165345570772  1.0000
  C   C10       1.0  0.9782171530533715  0.9993363918532627  0.8186670986670851  1.0000
  C   C11       1.0  0.6972426081205968  0.3093760934684582  0.5027234281882472  1.0000
  C   C12       1.0  0.9913689118232085  0.9913631804363805  0.2065076203333123  1.0000
  C   C13       1.0  0.9909361032385392  0.42212350343198324  0.4734796244727379  1.0000
  C   C14       1.0  0.9804287067608257  0.6152546342239803  0.4780098788107098  1.0000
  C   C15       1.0  0.07722021775867913  0.4687458139869706  0.3977089064215916  1.0000
  C   C16       1.0  0.8905617450175213  0.5759785229340082  0.5456173214677237  1.0000
  C   C17       1.0  0.07099348990015387  0.5640536834733041  0.4014538744218328  1.0000
  C   C18       1.0  0.8966156613737086  0.4804419001404696  0.5425186475464586  1.0000
  C   C19       1.0  0.39712049003561845  0.013496139400274469  0.09620991134147523  1.0000
  C   C20       1.0  0.5875598903252383  0.002456830665145997  0.9057225284250237  1.0000
  C   C21       1.0  0.4419856045000543  0.1015679929731022  0.03468496341358932  1.0000
  C   C22       1.0  0.5416885257696225  0.9174880441235302  0.9633303202248907  1.0000
  C   C23       1.0  0.536601684097775  0.09437481835920639  0.9404932300125992  1.0000
  C   C24       1.0  0.44725617619520364  0.9240388019568045  0.05737504993851438  1.0000
  C   C25       1.0  0.9690626073431403  0.9957750924876834  0.9259739102684038  1.0000
  C   C26       1.0  0.9808715246248597  0.9847438344278956  0.11525863679111152  1.0000
  C   C27       1.0  0.8908188459183467  0.07611330684665764  0.9795343189680991  1.0000
  C   C28       1.0  0.05621891575425755  0.9025152922877027  0.06630280846722067  1.0000
  C   C29       1.0  0.8969886043453457  0.06889453599024636  0.07337193971694239  1.0000
  C   C30       1.0  0.049033210803593144  0.9082871325427888  0.9735077370074448  1.0000
  C   C31       1.0  0.4038693902797518  0.5968090944964572  0.4935355940675236  1.0000
  C   C32       1.0  0.5967670305308985  0.4102209207025637  0.5018550164914117  1.0000
  C   C33       1.0  0.4600204110504647  0.5438256085410631  0.4125449842770905  1.0000
  C   C34       1.0  0.542126857278319  0.46058325602206923  0.5828260463933006  1.0000
  C   C35       1.0  0.5551845131776076  0.45234994884447827  0.4176672467554994  1.0000
  C   C36       1.0  0.44703990550070927  0.5529431707043813  0.5776895122953646  1.0000
  C   C37       1.0  0.9861015958235841  0.5953057312780886  0.909740375093584  1.0000
  C   C38       1.0  0.9825112576984909  0.49935168044952155  0.9118352789656331  1.0000
  C   C39       1.0  0.0005265698269383601  0.5926039319788288  0.9964885051858301  1.0000
  C   C40       1.0  0.9732772136935495  0.4959461773382473  0.8228569355405639  1.0000
  C   C41       1.0  0.9871431853366704  0.3971165331501896  0.8221166681653926  1.0000
  C   C42       1.0  0.9988928114936042  0.4036520841612585  0.09814695807739342  1.0000
  C   C43       1.0  0.004074312633349589  0.4978295712915255  0.09199171096578604  1.0000
  C   C44       1.0  0.9955057449974308  0.3994924022941008  0.005810929723580435  1.0000
  C   C45       1.0  0.013915847110993708  0.2983536690203366  0.0001964617417656138  1.0000
  C   C46       1.0  0.016527873259732928  0.29613438517001356  0.9074025074705288  1.0000
  C   C47       1.0  0.40909799101751826  0.9788172300080475  0.5080745128119306  1.0000
  C   C48       1.0  0.5996363179930242  0.9928630402022802  0.4919979866897396  1.0000
  C   C49       1.0  0.45826390685203233  0.9051576693823977  0.5915677002625443  1.0000
  C   C50       1.0  0.555318725323197  0.06268545485778534  0.406733549593568  1.0000
  C   C51       1.0  0.5515632074695702  0.9136286944344861  0.5825686803355056  1.0000
  C   C52       1.0  0.4615029584948759  0.05488857442401241  0.415358168577626  1.0000
  S   S1        1.0  0.20159000600176563  0.4190082353079846  0.291076772439439  1.0000
  S   S2        1.0  0.39840688651870687  0.22556707376736546  0.06433536890796188  1.0000
  S   S3        1.0  0.7800131222029876  0.19626096095963433  0.9383155913497205  1.0000
  S   S4        1.0  0.424546220388649  0.5784401242203785  0.29675466671429973  1.0000
  S   S5        1.0  0.4190481967021284  0.7908149198468664  0.7119761616625199  1.0000
  O   O1        1.0  0.9101936647536629  0.7413487561167643  0.571065928017184  1.0000
  O   O2        1.0  0.26032721973304973  0.07707171343752611  0.24832320034796143  1.0000
  O   O3        1.0  0.08233560053308504  0.2567183327422243  0.42856543206961817  1.0000
  O   O4        1.0  0.7284731683001195  0.9209936887664585  0.7674232151399212  1.0000
  O   O5        1.0  0.05800156188750785  0.7404831804086172  0.7725750033830394  1.0000
  O   O6        1.0  0.7325637146323983  0.08015197900367363  0.41793453620806525  1.0000
  O   O7        1.0  0.9187075674423754  0.26583943775423824  0.2413903946593054  1.0000
  O   O8        1.0  0.25301172457203347  0.9161627049907182  0.5934169569182045  1.0000
  O   O9        1.0  0.2558810194361029  0.7344694018645299  0.4249626620036863  1.0000
  O   O10       1.0  0.9129522199767166  0.08434248866588953  0.7672899598737857  1.0000
  O   O11       1.0  0.7346103952059978  0.26853902170278604  0.5809241647889537  1.0000
  O   O12       1.0  0.07302718120961074  0.9194332820552589  0.23906583765821668  1.0000
  O   O13       1.0  0.05174106232058771  0.9203156109315528  0.7818744033298798  1.0000
  O   O14       1.0  0.7378616727174006  0.269487199864912  0.4259195282617939  1.0000
  O   O15       1.0  0.9187798174956542  0.07150663843164304  0.2430498085376415  1.0000
  O   O16       1.0  0.2599550826114624  0.7359430526412324  0.5741182246214508  1.0000
  O   O17       1.0  0.9090420788678841  0.7375365511697326  0.7689996509084056  1.0000
  O   O18       1.0  0.2649666763899106  0.06380891869714127  0.43512115207398944  1.0000
  O   O19       1.0  0.06480525812712286  0.27001973902411447  0.2486933576784409  1.0000
  O   O20       1.0  0.7342172486254911  0.9245346449050516  0.570455209934039  1.0000
  O   O21       1.0  0.7344415077442578  0.07163158521161246  0.7673952738110614  1.0000
  O   O22       1.0  0.06766562398102849  0.7419654524899428  0.41992914878765936  1.0000
  O   O23       1.0  0.26190670112096365  0.9276262911850068  0.24018180167592357  1.0000
  O   O24       1.0  0.9181622124101311  0.27332217686112165  0.5695429125667532  1.0000
  O   O25       1.0  0.7917230985345756  0.06911642908931992  0.5684665812336007  1.0000
  O   O26       1.0  0.059189401556352536  0.06365397774667504  0.5743119485373497  1.0000
  O   O27       1.0  0.06369964013732951  0.06862307410850119  0.30100972604748927  1.0000
  O   O28       1.0  0.057661761919860034  0.7974355088636855  0.570733482482261  1.0000
  O   O29       1.0  0.14326950384813159  0.9475390139239576  0.45623150851439925  1.0000
  O   O30       1.0  0.9453844576442451  0.9521859249219063  0.4518017520079243  1.0000
  O   O31       1.0  0.9459596333945371  0.14862490748831905  0.4541276781387964  1.0000
  O   O32       1.0  0.9406509341176489  0.950200006388201  0.652489023203657  1.0000
  O   O33       1.0  0.2682399863970133  0.30348858573753285  0.36095352828354527  1.0000
  O   O34       1.0  0.2654742096511811  0.4902598294644918  0.23884724824885234  1.0000
  O   O35       1.0  0.17126415730825062  0.4021644957633583  0.2237404508675526  1.0000
  O   O36       1.0  0.27216763905342833  0.2792668373549391  0.07304360373126434  1.0000
  O   O37       1.0  0.4569899656767548  0.29664260849850177  0.9659869102630693  1.0000
  O   O38       1.0  0.4058601427076667  0.19542983342859088  0.16968116822322796  1.0000
  O   O39       1.0  0.8458350051996817  0.2618911605289256  0.812582203635351  1.0000
  O   O40       1.0  0.7383794838372282  0.26689389199397356  9.35688980732764e-05  1.0000
  O   O41       1.0  0.7086290166818685  0.1607709399672927  0.9347039929726151  1.0000
  O   O42       1.0  0.30001803444548614  0.5795617574835532  0.3565207359419417  1.0000
  O   O43       1.0  0.4868855244604476  0.48624120088505424  0.2569659853606866  1.0000
  O   O44       1.0  0.42991882512761503  0.687698231721903  0.22189171919706047  1.0000
  O   O45       1.0  0.2924020415346151  0.8479166271868976  0.7746036245787024  1.0000
  O   O46       1.0  0.47615289320985715  0.7550104920078268  0.7840470635361143  1.0000
  O   O47       1.0  0.42935703095539407  0.713202489978258  0.6730396689597598  1.0000
  O   O48       1.0  0.9815669814042067  0.3908604109122607  0.735328758297527  1.0000
  O   O49       1.0  0.047717289771689764  0.1977642080422867  0.8953089767311795  1.0000
