data_image0
_chemical_formula_structural       Cd2H20C16O12
_chemical_formula_sum              "Cd2 H20 C16 O12"
_cell_length_a       4.951754841304152
_cell_length_b       6.815444319577866
_cell_length_c       15.841385898979956
_cell_angle_alpha    86.23548896353853
_cell_angle_beta     80.23944587543019
_cell_angle_gamma    68.21282501693217

_space_group_name_H-M_alt    "P 1"
_space_group_IT_number       1

loop_
  _space_group_symop_operation_xyz
  'x, y, z'

loop_
  _atom_site_type_symbol
  _atom_site_label
  _atom_site_symmetry_multiplicity
  _atom_site_fract_x
  _atom_site_fract_y
  _atom_site_fract_z
  _atom_site_occupancy
  Cd  Cd1       1.0  0.6480216817859414  0.7238192262119442  0.7501657948842178  1.0000
  Cd  Cd2       1.0  0.35197093781622607  0.27619133836950044  0.24983517680512787  1.0000
  H   H1        1.0  0.5331756080271999  0.7184297649307465  0.4286501502452963  1.0000
  H   H2        1.0  0.7436385281049381  0.724849186623686  0.07068465399205337  1.0000
  H   H3        1.0  0.46684927328063003  0.2815254974143712  0.5713475046065852  1.0000
  H   H4        1.0  0.2563056164418144  0.2751835790865442  0.9293237243544894  1.0000
  H   H5        1.0  0.3370903818505014  0.8725985897919912  0.5210595654708996  1.0000
  H   H6        1.0  0.7830941570801002  0.8577942512065846  0.9716474158158376  1.0000
  H   H7        1.0  0.6629799591971589  0.12740073383153572  0.4789329972221026  1.0000
  H   H8        1.0  0.21687125638405993  0.1422132284198483  0.02835616513254989  1.0000
  H   H9        1.0  0.20384849900462126  0.9319977622434051  0.42208649130043335  1.0000
  H   H10       1.0  0.8536061315875046  0.9422351459285208  0.06592098139051215  1.0000
  H   H11       1.0  0.7962215763952185  0.0679731406701976  0.5779111961111951  1.0000
  H   H12       1.0  0.146382885576557  0.057791227217258295  0.9340753536738189  1.0000
  H   H13       1.0  0.954522968813954  0.8973625013678799  0.8421712804780199  1.0000
  H   H14       1.0  0.17086407193162487  0.8846616950377922  0.654591887175485  1.0000
  H   H15       1.0  0.045467248390082204  0.1026291579387077  0.15782521305731476  1.0000
  H   H16       1.0  0.8291750272912282  0.1153092808284555  0.3454104028770146  1.0000
  H   H17       1.0  0.7425420666151652  0.11061064082019101  0.8031335416624612  1.0000
  H   H18       1.0  0.16391340387939118  0.10078085081254781  0.6903959351345108  1.0000
  H   H19       1.0  0.2574416106908829  0.8893857676741631  0.19686377312993383  1.0000
  H   H20       1.0  0.8360839954025605  0.8991949533231107  0.3096132369512076  1.0000
  C   C1        1.0  0.31314120487004266  0.8025909966330573  0.46395762718974953  1.0000
  C   C2        1.0  0.8773321570975481  0.802625487413238  0.03038220965292741  1.0000
  C   C3        1.0  0.6868937925990719  0.1974131514633797  0.5360383636587897  1.0000
  C   C4        1.0  0.12262241862101324  0.19738837352465308  0.9696128827721182  1.0000
  C   C5        1.0  0.14550629069236015  0.5296305104660347  0.41811534475745293  1.0000
  C   C6        1.0  0.31493976008448504  0.5256460338193918  0.08026723641077638  1.0000
  C   C7        1.0  0.8544845979638112  0.4703469207623102  0.5818871466276361  1.0000
  C   C8        1.0  0.6849594624919887  0.4744121518949242  0.919731888000072  1.0000
  C   C9        1.0  0.14919995114848922  0.6556198286861202  0.48504008689745587  1.0000
  C   C10       1.0  0.19179515728323795  0.6549306408627158  0.012499593027612802  1.0000
  C   C11       1.0  0.8508283566948124  0.3443811768251804  0.5149575559074718  1.0000
  C   C12       1.0  0.8081640632734518  0.3450880025135206  0.9874812752434821  1.0000
  C   C13       1.0  0.006779297066756707  0.6315661241538706  0.5666527067834082  1.0000
  C   C14       1.0  0.36779888090799057  0.6346319139665723  0.932498574988621  1.0000
  C   C15       1.0  0.9932658264140884  0.368445868010852  0.4333464080761046  1.0000
  C   C16       1.0  0.632226995654591  0.3653423025925163  0.06749352034950108  1.0000
  O   O1        1.0  0.9962620971185033  0.7350888341942508  0.6332697976296727  1.0000
  O   O2        1.0  0.28055204991279964  0.7423477046426467  0.8655692269015702  1.0000
  O   O3        1.0  0.0037674388681522733  0.26490735270012067  0.3667462155000435  1.0000
  O   O4        1.0  0.7194123747705276  0.2576534606324685  0.13443581690324888  1.0000
  O   O5        1.0  0.2678347357866073  0.5486162211066626  0.3420568095862747  1.0000
  O   O6        1.0  0.16385633957167303  0.5398431911130003  0.1547734486334136  1.0000
  O   O7        1.0  0.7321709632219322  0.45139585087170536  0.6579510908594486  1.0000
  O   O8        1.0  0.8361278716272975  0.46017838880040063  0.8452396439343699  1.0000
  O   O9        1.0  0.759562307603339  0.9679724446577821  0.8215997522084492  1.0000
  O   O10       1.0  0.2936152884893487  0.9574167400686664  0.6736593815746018  1.0000
  O   O11       1.0  0.2404131114169417  0.0320318651689746  0.17840028149256423  1.0000
  O   O12       1.0  0.7064195128858942  0.0425558679212799  0.32633359869748796  1.0000
