data_image0
_chemical_formula_structural       Al2H12C30Br6O12
_chemical_formula_sum              "Al2 H12 C30 Br6 O12"
_cell_length_a       4.051816244005739
_cell_length_b       17.24803192571167
_cell_length_c       17.248024502773266
_cell_angle_alpha    119.9999953864836
_cell_angle_beta     90.00019176038931
_cell_angle_gamma    89.99988902708226

_space_group_name_H-M_alt    "P 1"
_space_group_IT_number       1

loop_
  _space_group_symop_operation_xyz
  'x, y, z'

loop_
  _atom_site_type_symbol
  _atom_site_label
  _atom_site_symmetry_multiplicity
  _atom_site_fract_x
  _atom_site_fract_y
  _atom_site_fract_z
  _atom_site_occupancy
  Al  Al1       1.0  0.9912533238522057  0.5000005204252956  0.5000004085502425  1.0000
  Al  Al2       1.0  0.008574266879307398  0.16666749691265198  0.8333334066137538  1.0000
  H   H1        1.0  0.2767187403530542  0.11474323970966074  0.531664784489763  1.0000
  H   H2        1.0  0.7165807510055089  0.11471270972067764  0.5330289407017971  1.0000
  H   H3        1.0  0.7236902025513318  0.19827256324546025  0.44808567040788455  1.0000
  H   H4        1.0  0.2837541552914331  0.19959466659368988  0.44804589183868154  1.0000
  H   H5        1.0  0.2767131101814114  0.9169217965403575  0.8852563266403877  1.0000
  H   H6        1.0  0.7165775736468233  0.9183153478680736  0.8852856859099135  1.0000
  H   H7        1.0  0.7236880448333167  0.7498125352624285  0.8017249598548445  1.0000
  H   H8        1.0  0.2837495311691995  0.7484502013609668  0.8004039487227104  1.0000
  H   H9        1.0  0.27671659547651467  0.4683345578945079  0.08307792093653182  1.0000
  H   H10       1.0  0.7165835278755354  0.4669703111768797  0.08168373159850265  1.0000
  H   H11       1.0  0.723692311765319  0.5519142733955889  0.2501867315951857  1.0000
  H   H12       1.0  0.2837538116006685  0.5519541453605826  0.25154861949833673  1.0000
  C   C1        1.0  0.4950208491756526  0.42951689102851276  0.3633309117105057  1.0000
  C   C2        1.0  0.4950124359032202  0.433811858893172  0.5704827949156197  1.0000
  C   C3        1.0  0.4950214647234432  0.6366717260638667  0.5661858115310352  1.0000
  C   C4        1.0  0.5050298869568622  0.2372697807849989  0.7672418820226952  1.0000
  C   C5        1.0  0.5050232811754043  0.02997294160190466  0.7627302644357311  1.0000
  C   C6        1.0  0.5050264139129154  0.23275819976977638  0.9700277967445814  1.0000
  C   C7        1.0  0.4968354829572306  0.29009711365000607  0.7200754400116408  1.0000
  C   C8        1.0  0.5029600546203313  0.38669662627903995  0.623333221044895  1.0000
  C   C9        1.0  0.4956577426170767  0.2470993110552798  0.627062320928836  1.0000
  C   C10       1.0  0.499843426934639  0.43187961025435573  0.7179169484839818  1.0000
  C   C11       1.0  0.5046062966336892  0.29368299112301327  0.5803951157346815  1.0000
  C   C12       1.0  0.4997008067163407  0.38467027855482167  0.7651193634972059  1.0000
  C   C13       1.0  0.4972395107118359  0.1559631250215573  0.5423523351919568  1.0000
  C   C14       1.0  0.5031547859902048  0.2088950119865842  0.4892766198962022  1.0000
  C   C15       1.0  0.4968279109746305  0.9299792413571593  0.7099020695664037  1.0000
  C   C16       1.0  0.5029536451850518  0.7366362765203573  0.6133012311672132  1.0000
  C   C17       1.0  0.4956536359118147  0.8799626818737137  0.7528987363806152  1.0000
  C   C18       1.0  0.49983847273556853  0.7860385420543424  0.5681196959144544  1.0000
  C   C19       1.0  0.504607686780389  0.7867123308228157  0.7063163247569763  1.0000
  C   C20       1.0  0.499692817182158  0.8804506948577852  0.6153283387031009  1.0000
  C   C21       1.0  0.49723626614875377  0.8863892557499469  0.8440358086163613  1.0000
  C   C22       1.0  0.5031521791816543  0.7803812778682441  0.7911039153483088  1.0000
  C   C23       1.0  0.4968333598175434  0.2799235409306249  0.07002143080567443  1.0000
  C   C24       1.0  0.5029624659257195  0.3766672372639163  0.2633654094471112  1.0000
  C   C25       1.0  0.49566349783498254  0.3729379031844786  0.12003788177798218  1.0000
  C   C26       1.0  0.4998478402181092  0.2820839069328827  0.2139624546602619  1.0000
  C   C27       1.0  0.5046031763860127  0.4196041484031454  0.21328909245460892  1.0000
  C   C28       1.0  0.49970667894734083  0.23487925682994154  0.1195509066158564  1.0000
  C   C29       1.0  0.4972426512428782  0.45764693532905193  0.11361021724859204  1.0000
  C   C30       1.0  0.5031565914580441  0.5107226906265936  0.2196181670779893  1.0000
  Br  Br1       1.0  0.5149329020698018  0.5587214868272101  0.7816266725732106  1.0000
  Br  Br2       1.0  0.4840368759706807  0.4482598364396041  0.8919991227106294  1.0000
  Br  Br3       1.0  0.5149273511465821  0.7229098398508  0.4412776883384596  1.0000
  Br  Br4       1.0  0.4840349345559787  0.9437398885355818  0.5517399207699825  1.0000
  Br  Br5       1.0  0.5149356065948396  0.21837579294138715  0.27709780904046255  1.0000
  Br  Br6       1.0  0.48403968816558757  0.10800099769605252  0.05626137706197201  1.0000
  O   O1        1.0  0.7263229587784821  0.5983403733912241  0.5844975839168923  1.0000
  O   O2        1.0  0.7263196373606889  0.48616101809245993  0.4016611781655541  1.0000
  O   O3        1.0  0.7263182517458373  0.4155017037263134  0.513842995849039  1.0000
  O   O4        1.0  0.2540848517883703  0.5978456321209507  0.5138048820538971  1.0000
  O   O5        1.0  0.2540857995271253  0.4861958184139539  0.5840401879851527  1.0000
  O   O6        1.0  0.2540847848838085  0.41596055579313423  0.40215500689951267  1.0000
  O   O7        1.0  0.745972614005268  0.1803957891055815  0.9311485623810468  1.0000
  O   O8        1.0  0.7459715373433226  0.25075360688752824  0.8196045119841102  1.0000
  O   O9        1.0  0.7459717647270594  0.06885215957362317  0.7492464654203345  1.0000
  O   O10       1.0  0.2738383866325266  0.2510969359653715  0.9316959540008795  1.0000
  O   O11       1.0  0.2738407867904585  0.0683040784358155  0.8194000594723361  1.0000
  O   O12       1.0  0.27383736656317853  0.18059945226831806  0.7489018454319876  1.0000
