data_image0
_chemical_formula_structural       Cu2H32C36S2N10
_chemical_formula_sum              "Cu2 H32 C36 S2 N10"
_cell_length_a       9.592833950665872
_cell_length_b       9.132651160132802
_cell_length_c       12.216483795213763
_cell_angle_alpha    101.29944373349137
_cell_angle_beta     98.12565780733044
_cell_angle_gamma    118.77334764433903

_space_group_name_H-M_alt    "P 1"
_space_group_IT_number       1

loop_
  _space_group_symop_operation_xyz
  'x, y, z'

loop_
  _atom_site_type_symbol
  _atom_site_label
  _atom_site_symmetry_multiplicity
  _atom_site_fract_x
  _atom_site_fract_y
  _atom_site_fract_z
  _atom_site_occupancy
  Cu  Cu1       1.0  0.3873757283247699  0.03992504706823039  0.31231082262389254  1.0000
  Cu  Cu2       1.0  0.612638727802903  0.9600641462756554  0.6876974185660243  1.0000
  H   H1        1.0  0.7617378705119152  0.26675728136967797  0.3301511993112598  1.0000
  H   H2        1.0  0.23825915652833624  0.7332575692323926  0.6698506301820898  1.0000
  H   H3        1.0  0.021457233703095747  0.44254845998325  0.2732937639003267  1.0000
  H   H4        1.0  0.9785458801967906  0.5574742052514099  0.7267107180359459  1.0000
  H   H5        1.0  0.006169005489574872  0.4903434637010519  0.08282152776235559  1.0000
  H   H6        1.0  0.9938261767900587  0.5096594911948956  0.9171767153840092  1.0000
  H   H7        1.0  0.7342422916148053  0.3670178272197404  0.9375015198192003  1.0000
  H   H8        1.0  0.2657560210500165  0.6329850570625268  0.0624954312017678  1.0000
  H   H9        1.0  0.2125384207033534  0.9969704280737092  0.047645171175311384  1.0000
  H   H10       1.0  0.787465089818717  0.0030323291674321  0.9523531698710456  1.0000
  H   H11       1.0  0.2292895588532176  0.0268057347014761  0.8527305278596627  1.0000
  H   H12       1.0  0.7707101573707789  0.9731957841874318  0.14726801993487726  1.0000
  H   H13       1.0  0.4231354131308933  0.1038565379372045  0.8223828936448212  1.0000
  H   H14       1.0  0.5768687568152728  0.8961475261117542  0.1776173505251535  1.0000
  H   H15       1.0  0.49291253315205813  0.4139578520723291  0.8922856934275741  1.0000
  H   H16       1.0  0.5070780882505018  0.5860465258821748  0.10771715154901775  1.0000
  H   H17       1.0  0.30090909870629895  0.3414445253127951  0.9257890904542662  1.0000
  H   H18       1.0  0.6990790987337333  0.6585426689606705  0.07420687332445643  1.0000
  H   H19       1.0  0.29246677655977754  0.40335404677640707  0.7353382938406907  1.0000
  H   H20       1.0  0.7075270734053021  0.5966462880296532  0.26465859629763594  1.0000
  H   H21       1.0  0.3503241864340083  0.2514453194380764  0.6833580306295486  1.0000
  H   H22       1.0  0.6496724751382033  0.7485522867393399  0.3166412353095253  1.0000
  H   H23       1.0  0.24423507666569574  0.9569772429660687  0.5713131821149559  1.0000
  H   H24       1.0  0.7557616118392331  0.043020376159823584  0.42868117734573014  1.0000
  H   H25       1.0  0.05507058153993679  0.6445178146103743  0.4554931914068304  1.0000
  H   H26       1.0  0.9449309995105251  0.3554770259336452  0.5445037727661982  1.0000
  H   H27       1.0  0.7581533509888702  0.48397360182029564  0.45209294135423045  1.0000
  H   H28       1.0  0.2418513065813528  0.5160211422130915  0.5479125436501917  1.0000
  H   H29       1.0  0.6378054286770762  0.637499207056912  0.5576307517770613  1.0000
  H   H30       1.0  0.3621951562160888  0.3624916600319921  0.4423712481841022  1.0000
  H   H31       1.0  0.0018167198313818252  0.27106297027905407  0.7862115817769677  1.0000
  H   H32       1.0  0.9981755817072085  0.7289281160454519  0.21378214282022154  1.0000
  C   C1        1.0  0.6054359813613318  0.22148699712083442  0.16603373854642456  1.0000
  C   C2        1.0  0.3945640889750592  0.7785131770351583  0.833967927058687  1.0000
  C   C3        1.0  0.7573917714329639  0.29097896411243346  0.24640395543467258  1.0000
  C   C4        1.0  0.24261008588577934  0.709037097707167  0.7535985995126919  1.0000
  C   C5        1.0  0.8999515801835473  0.3864469395484277  0.21369518115941583  1.0000
  C   C6        1.0  0.10005466859031034  0.6135756572306407  0.7863071909050486  1.0000
  C   C7        1.0  0.8907565024723638  0.4136759651970934  0.10381331499749538  1.0000
  C   C8        1.0  0.10924706820603805  0.5863413849279625  0.8961888042900907  1.0000
  C   C9        1.0  0.740254868382152  0.3463996679168773  0.022602857042563988  1.0000
  C   C10       1.0  0.25974886274063635  0.6536097198740052  0.9773964787904956  1.0000
  C   C11       1.0  0.597465229286378  0.24861173915513038  0.05552333237250908  1.0000
  C   C12       1.0  0.40253412833643404  0.7513911223086112  0.944472915357856  1.0000
  C   C13       1.0  0.34642974148687233  0.08000561325683718  0.07214604442916787  1.0000
  C   C14       1.0  0.6535700325153825  0.919991913674579  0.9278552003701034  1.0000
  C   C15       1.0  0.357273173728295  0.13848074558902107  0.8791900432831097  1.0000
  C   C16       1.0  0.6427268298522576  0.8615234162082998  0.12081056081007088  1.0000
  C   C17       1.0  0.36366306881304683  0.3046874779279918  0.8670131848998393  1.0000
  C   C18       1.0  0.6363341764498571  0.6953154183824068  0.1329885581437225  1.0000
  C   C19       1.0  0.2847907503402425  0.2817358818256821  0.7421496470079204  1.0000
  C   C20       1.0  0.7152140969851571  0.718269497663421  0.25784922930007065  1.0000
  C   C21       1.0  0.045115201462920175  0.9705604981534109  0.6311590327856748  1.0000
  C   C22       1.0  0.9548831869353123  0.0294384028036987  0.3688373442544303  1.0000
  C   C23       1.0  0.1140052251951858  0.8886249681400785  0.569951050384958  1.0000
  C   C24       1.0  0.8859948720739155  0.11137521896439749  0.43004570874176545  1.0000
  C   C25       1.0  0.00648624895444529  0.712834226184178  0.5052686360777371  1.0000
  C   C26       1.0  0.9935170409668928  0.2871619005072148  0.494728710181917  1.0000
  C   C27       1.0  0.8375507106388299  0.6220912927692127  0.5021623895259566  1.0000
  C   C28       1.0  0.1624498389199971  0.37790357706757766  0.4978328246984771  1.0000
  C   C29       1.0  0.7688646145816094  0.7051833863684821  0.5615776368847278  1.0000
  C   C30       1.0  0.23113554495454744  0.294812810936584  0.4384210015003234  1.0000
  C   C31       1.0  0.8745187495841479  0.8819519370024197  0.6261758196649295  1.0000
  C   C32       1.0  0.1254749644911897  0.11803778824489089  0.37381786621303087  1.0000
  C   C33       1.0  0.984432496480025  0.14973918899267594  0.7339774535047991  1.0000
  C   C34       1.0  0.015563276089792846  0.8502504755110109  0.26602055001675495  1.0000
  C   C35       1.0  0.4112152378812013  0.789108213481363  0.4340057548198999  1.0000
  C   C36       1.0  0.5888044223946238  0.21089541980834534  0.5660174675934256  1.0000
  S   S1        1.0  0.34290564343275065  0.7555159433776167  0.2951295898175204  1.0000
  S   S2        1.0  0.6571037175037944  0.2444694066307207  0.7048717808877498  1.0000
  N   N1        1.0  0.4459028772514557  0.11538738875241708  0.17357199883345228  1.0000
  N   N2        1.0  0.554099641602093  0.8846113971916764  0.8264305602546355  1.0000
  N   N3        1.0  0.4301900522358366  0.15629876802127277  0.9977275929869193  1.0000
  N   N4        1.0  0.5698072109822121  0.8437041369214456  0.002270879071041111  1.0000
  N   N5        1.0  0.11151226062240478  0.140858001306853  0.7015551100751692  1.0000
  N   N6        1.0  0.8884879078913174  0.8591382003143763  0.298441892817081  1.0000
  N   N7        1.0  0.8408903532221501  0.9987402535238631  0.6908291925858022  1.0000
  N   N8        1.0  0.1591060742829811  0.001250715629559801  0.3091715318057666  1.0000
  N   N9        1.0  0.46295360439232514  0.8182303239284181  0.534830057790259  1.0000
  N   N10       1.0  0.5370386926574824  0.18176076023802065  0.46516448455332676  1.0000
