data_image0
_chemical_formula_structural       Zn4H40C44N12O20
_chemical_formula_sum              "Zn4 H40 C44 N12 O20"
_cell_length_a       10.255763158757748
_cell_length_b       11.643853327951419
_cell_length_c       11.685102416198058
_cell_angle_alpha    65.06985323489297
_cell_angle_beta     77.25648475994909
_cell_angle_gamma    75.12647307204662

_space_group_name_H-M_alt    "P 1"
_space_group_IT_number       1

loop_
  _space_group_symop_operation_xyz
  'x, y, z'

loop_
  _atom_site_type_symbol
  _atom_site_label
  _atom_site_symmetry_multiplicity
  _atom_site_fract_x
  _atom_site_fract_y
  _atom_site_fract_z
  _atom_site_occupancy
  Zn  Zn1       1.0  0.5639760684711206  0.5116809960276784  0.28632436884878126  1.0000
  Zn  Zn2       1.0  0.436025410125133  0.4883166837154461  0.7136754297225067  1.0000
  Zn  Zn3       1.0  0.9487861910655656  0.1951599035375793  0.9890302257640684  1.0000
  Zn  Zn4       1.0  0.05121573704843032  0.8048406628916848  0.010968271661447164  1.0000
  H   H1        1.0  0.769070135328896  0.6717523355316216  0.04065799106856364  1.0000
  H   H2        1.0  0.2309304244814712  0.32825016345655195  0.9593408138485843  1.0000
  H   H3        1.0  0.4501164240694283  0.7224667040075656  0.8356481624098606  1.0000
  H   H4        1.0  0.549885870573725  0.27753193641409984  0.1643527858546746  1.0000
  H   H5        1.0  0.7887588668087416  0.829414080813763  0.8070846606578215  1.0000
  H   H6        1.0  0.2112418762662004  0.17058745517061163  0.19291536967883624  1.0000
  H   H7        1.0  0.6461086404747933  0.8802230002877778  0.7226948068163423  1.0000
  H   H8        1.0  0.3538931031431218  0.11977853125831218  0.2773050319113679  1.0000
  H   H9        1.0  0.701669131946389  0.6853798926725291  0.6745726815603559  1.0000
  H   H10       1.0  0.2983306109960893  0.3146216470457829  0.3254266848113474  1.0000
  H   H11       1.0  0.8453823131773605  0.7625720066489449  0.6224007735046797  1.0000
  H   H12       1.0  0.1546184303080835  0.23742952863108968  0.3775984012580764  1.0000
  H   H13       1.0  0.7236851267150258  0.45345315572247097  0.8394487436036185  1.0000
  H   H14       1.0  0.27631716833862197  0.5465454839948478  0.16055134908701518  1.0000
  H   H15       1.0  0.05111381266400633  0.6426441327745421  0.7812338932409517  1.0000
  H   H16       1.0  0.9488862976286258  0.3573554795274916  0.2187662128219685  1.0000
  H   H17       1.0  0.3635703783543818  0.1228399502002802  0.6307009732239237  1.0000
  H   H18       1.0  0.636423093845629  0.8771577685708323  0.369304636088465  1.0000
  H   H19       1.0  0.6652507439613943  0.10409691268046119  0.3156937604909942  1.0000
  H   H20       1.0  0.3347457298675208  0.895900792775798  0.6843112739945525  1.0000
  H   H21       1.0  0.8748983089594307  0.33895650646951486  0.5107639645261415  1.0000
  H   H22       1.0  0.12510143480404423  0.6610450318401105  0.489233690697759  1.0000
  H   H23       1.0  0.9362572393582484  0.7308077086138879  0.3592671087706022  1.0000
  H   H24       1.0  0.0637435041271956  0.2691938266661467  0.6407320659921537  1.0000
  H   H25       1.0  0.8170755520371245  0.19355576813463668  0.4372293469297119  1.0000
  H   H26       1.0  0.1829249268371528  0.8064419146380852  0.5627689321027134  1.0000
  H   H27       1.0  0.13704877194885512  0.9185692277825409  0.33559709187023407  1.0000
  H   H28       1.0  0.8629525233828235  0.0814294149643828  0.6644014812815441  1.0000
  H   H29       1.0  0.6283128314227043  0.981406642563577  0.1650439413523799  1.0000
  H   H30       1.0  0.37168572771221875  0.018595864596818498  0.8349543912087611  1.0000
  H   H31       1.0  0.5639860530134088  0.1335777797304729  0.7714770168491114  1.0000
  H   H32       1.0  0.4360135066644873  0.8664247229916384  0.22852112410308206  1.0000
  H   H33       1.0  0.15953396685694804  0.208405727556034  0.8080344254534353  1.0000
  H   H34       1.0  0.840468777714435  0.7915957988474248  0.19196436609142611  1.0000
  H   H35       1.0  0.1462274342103242  0.05737249601920518  0.898960309956955  1.0000
  H   H36       1.0  0.8537743102285875  0.9426290341181981  0.10103781762295229  1.0000
  H   H37       1.0  0.3384300017234168  0.6724583629446386  0.2847462826497633  1.0000
  H   H38       1.0  0.6615719268010736  0.327542202780279  0.7152513592018508  1.0000
  H   H39       1.0  0.4039632933987464  0.6303880940734173  0.4122122733396836  1.0000
  H   H40       1.0  0.5960370009794645  0.36961055381613045  0.5877873469949435  1.0000
  C   C1        1.0  0.6727173743312634  0.6701408490599405  0.01719264950559554  1.0000
  C   C2        1.0  0.3272843692866589  0.3298606824861494  0.9828071892221146  1.0000
  C   C3        1.0  0.5071469803913403  0.6957366826312423  0.914011770554886  1.0000
  C   C4        1.0  0.49285531466230753  0.3042619570860835  0.08598832213574782  1.0000
  C   C5        1.0  0.7129587952990378  0.7955855552365135  0.7815944743478555  1.0000
  C   C6        1.0  0.2870421314509884  0.20441501703972154  0.2184059258344107  1.0000
  C   C7        1.0  0.7796362114635189  0.7102829586465232  0.7064088055076069  1.0000
  C   C8        1.0  0.22036471528650747  0.28971761362971177  0.29359159467465906  1.0000
  C   C9        1.0  0.8217524684550882  0.4726397893945418  0.8403308338000597  1.0000
  C   C10       1.0  0.1782494588379038  0.5273607784434019  0.1596693747732658  1.0000
  C   C11       1.0  0.9894013618417434  0.5689401104480182  0.8128397130583737  1.0000
  C   C12       1.0  0.010599565318777596  0.43106046112387725  0.1871598315499909  1.0000
  C   C13       1.0  0.5316158569937458  0.2588567561966855  0.441975788086701  1.0000
  C   C14       1.0  0.4683826179211081  0.7411409403830049  0.5580288631809437  1.0000
  C   C15       1.0  0.5147024255909828  0.1254741623956548  0.4701264758394571  1.0000
  C   C16       1.0  0.48528704525814703  0.8745235727199014  0.529878188760918  1.0000
  C   C17       1.0  0.4229425583914832  0.0673491411136382  0.5748595264659357  1.0000
  C   C18       1.0  0.5770459115041788  0.9326485991445421  0.42514618531728837  1.0000
  C   C19       1.0  0.591805832066335  0.058208611789659394  0.39491241834275576  1.0000
  C   C20       1.0  0.4081836387827948  0.9417891233258969  0.6050922462576196  1.0000
  C   C21       1.0  0.7783695085898189  0.577465303445429  0.349836911756924  1.0000
  C   C22       1.0  0.2216300510880771  0.4225371992766824  0.6501612291952696  1.0000
  C   C23       1.0  0.8929104407024225  0.538716606296518  0.42695062235554804  1.0000
  C   C24       1.0  0.1070904872790948  0.46128396386668413  0.5730472111050062  1.0000
  C   C25       1.0  0.9307897072973861  0.4088238600521805  0.5060901702132837  1.0000
  C   C26       1.0  0.06921103700905462  0.5911776738191604  0.4939072934016621  1.0000
  C   C27       1.0  0.9631524895935968  0.6299238632582203  0.42152941962384477  1.0000
  C   C28       1.0  0.03684825471284373  0.3700776706131278  0.5784680439911084  1.0000
  C   C29       1.0  0.9444136359909763  0.13335696256962848  0.23730502455638458  1.0000
  C   C30       1.0  0.055586475533147044  0.8666426476193788  0.7626925147848309  1.0000
  C   C31       1.0  0.9746088593738662  0.06367164686577809  0.3726253494051123  1.0000
  C   C32       1.0  0.02539161950041092  0.9363260359069372  0.6273729296273204  1.0000
  C   C33       1.0  0.8970907783181801  0.10859818112993484  0.46576609574302097  1.0000
  C   C34       1.0  0.1029085163380543  0.8914004697892111  0.5342320050527505  1.0000
  C   C35       1.0  0.07796034970522922  0.9541835670506841  0.40779812289763134  1.0000
  C   C36       1.0  0.9220399450834692  0.045815080134516996  0.5922006418630942  1.0000
  C   C37       1.0  0.728642688750668  0.1317609183999267  0.9288577088533216  1.0000
  C   C38       1.0  0.2713568705167262  0.8682415850265243  0.07114128767277349  1.0000
  C   C39       1.0  0.6110489897368154  0.0635489294802198  0.9645961628066715  1.0000
  C   C40       1.0  0.38895175415912336  0.9364526050954676  0.0354021563821831  1.0000
  C   C41       1.0  0.5722810016017521  0.9886329511922155  0.09267563673087412  1.0000
  C   C42       1.0  0.4277195577981132  0.011369548500297798  0.9073240237601752  1.0000
  C   C43       1.0  0.536996974412574  0.07491843723872899  0.8715051807927239  1.0000
  C   C44       1.0  0.4630009511190424  0.9250821476480126  0.12849493864248268  1.0000
  N   N1        1.0  0.5768622921560009  0.6092764129198683  0.09824235985787068  1.0000
  N   N2        1.0  0.42314063567996396  0.3907241504797979  0.9017576571065007  1.0000
  N   N3        1.0  0.4716114566482333  0.6252108030041441  0.03397858247991789  1.0000
  N   N4        1.0  0.5283920226234572  0.37478686856675125  0.9660216884473769  1.0000
  N   N5        1.0  0.6324732082448888  0.7261985600783802  0.8994021829840121  1.0000
  N   N6        1.0  0.3675289027231798  0.2738010440514315  0.1005983954349148  1.0000
  N   N7        1.0  0.9210297818221279  0.38699125818529717  0.9019903029861213  1.0000
  N   N8        1.0  0.07897096166331616  0.6130102770947372  0.09800887177663503  1.0000
  N   N9        1.0  0.02739743159364852  0.4470658749823214  0.8851732928630581  1.0000
  N   N10       1.0  0.9726036788314545  0.5529337335857676  0.11482747716482318  1.0000
  N   N11       1.0  0.8611022854757593  0.5892602751707585  0.7823987017690397  1.0000
  N   N12       1.0  0.1388978248168726  0.4107393371312681  0.21760140429388036  1.0000
  O   O1        1.0  0.7220234738752822  0.4837817195344201  0.3656476301355768  1.0000
  O   O2        1.0  0.27797745369573335  0.5162188513331286  0.6343510588988864  1.0000
  O   O3        1.0  0.7425141957594408  0.6925439290848059  0.27573706568868767  1.0000
  O   O4        1.0  0.257486548547  0.307457604786542  0.7242603979262583  1.0000
  O   O5        1.0  0.5307683754317836  0.33811230709540036  0.324213601889376  1.0000
  O   O6        1.0  0.46922873076895405  0.661887322747539  0.6757922124438096  1.0000
  O   O7        1.0  0.5436981019301045  0.2841209156781659  0.532719907047408  1.0000
  O   O8        1.0  0.4563056584191828  0.7158700214174587  0.46729170014712196  1.0000
  O   O9        1.0  0.03481297231614631  0.10630121618666517  0.1503974139990589  1.0000
  O   O10       1.0  0.965187138797475  0.8936983947066821  0.8496009809160581  1.0000
  O   O11       1.0  0.8368635760738741  0.21519979919908383  0.21231773580559832  1.0000
  O   O12       1.0  0.16313653462925268  0.7847998123986029  0.7876815146834203  1.0000
  O   O13       1.0  0.8024375043284239  0.09875976757412275  0.01948669788548324  1.0000
  O   O14       1.0  0.1975622390245491  0.9012417714398495  0.9805118129123185  1.0000
  O   O15       1.0  0.7529944634255302  0.21547995694293579  0.820278365071303  1.0000
  O   O16       1.0  0.2470052795169481  0.784521582775376  0.1797210013004005  1.0000
  O   O17       1.0  0.3873500732992028  0.5964848655274366  0.3519445547207098  1.0000
  O   O18       1.0  0.6126510387678935  0.40351474022327943  0.6480527930115514  1.0000
  O   O19       1.0  0.09466853871583682  0.14709457989528124  0.8619754845247413  1.0000
  O   O20       1.0  0.905334205445044  0.8529069472125315  0.13802416259402148  1.0000
