data_image0
_chemical_formula_structural       Cd2H12C16Br4N8Cl4
_chemical_formula_sum              "Cd2 H12 C16 Br4 N8 Cl4"
_cell_length_a       3.8592714090615363
_cell_length_b       10.480389702638664
_cell_length_c       16.43046730301437
_cell_angle_alpha    89.99986013337258
_cell_angle_beta     89.99995259742595
_cell_angle_gamma    94.7917667719895

_space_group_name_H-M_alt    "P 1"
_space_group_IT_number       1

loop_
  _space_group_symop_operation_xyz
  'x, y, z'

loop_
  _atom_site_type_symbol
  _atom_site_label
  _atom_site_symmetry_multiplicity
  _atom_site_fract_x
  _atom_site_fract_y
  _atom_site_fract_z
  _atom_site_occupancy
  Cd  Cd1       1.0  0.5000021342295254  0.5000000899420132  0.49999994765792616  1.0000
  Cd  Cd2       1.0  0.5000002763283716  0.9999997659255729  0.9999999455890389  1.0000
  H   H1        1.0  0.2866263466998333  0.1917380623125738  0.48472736241060926  1.0000
  H   H2        1.0  0.7133697030758693  0.3082595635048123  0.9847245722357344  1.0000
  H   H3        1.0  0.7133705878240164  0.8082640351153716  0.5152719242790836  1.0000
  H   H4        1.0  0.28662657298939814  0.6917396614002415  0.015272279954587  1.0000
  H   H5        1.0  0.6455835325980032  0.4490836513031056  0.3043068166436314  1.0000
  H   H6        1.0  0.3544243152781588  0.050917559472019015  0.804305715767164  1.0000
  H   H7        1.0  0.3544183643768832  0.5509174869303665  0.6956936872971368  1.0000
  H   H8        1.0  0.6455769232329087  0.94908070623373  0.19569478817590635  1.0000
  H   H9        1.0  0.6920996959254636  0.26353942941567965  0.2063773007814191  1.0000
  H   H10       1.0  0.30791138347520064  0.2364631265489764  0.7063777468313076  1.0000
  H   H11       1.0  0.30790220105072297  0.7364617088190002  0.7936225945339359  1.0000
  H   H12       1.0  0.692095036978756  0.7635351374751667  0.2936221484858237  1.0000
  C   C1        1.0  0.3918733003853347  0.10826534093738624  0.3659523408394064  1.0000
  C   C2        1.0  0.6081316914630432  0.39173562610834983  0.8659506593743274  1.0000
  C   C3        1.0  0.6081281576149777  0.8917338822788141  0.634047554477476  1.0000
  C   C4        1.0  0.3918671755704039  0.6082635979528848  0.1340474100665716  1.0000
  C   C5        1.0  0.37485430618300336  0.20787445127965756  0.4222434212785018  1.0000
  C   C6        1.0  0.6251554060751872  0.2921253332376992  0.9222455429187093  1.0000
  C   C7        1.0  0.6251447803331445  0.7921257302859886  0.5777570826632896  1.0000
  C   C8        1.0  0.37485426380684567  0.7078758024667169  0.07775739552294429  1.0000
  C   C9        1.0  0.5773224448204245  0.3500641873294441  0.32251453838603783  1.0000
  C   C10       1.0  0.42268207532821817  0.1499340795177133  0.8225157044287527  1.0000
  C   C11       1.0  0.4226766416983452  0.6499359942386178  0.6774847483049199  1.0000
  C   C12       1.0  0.5773165722094332  0.8500641870270373  0.1774860167654069  1.0000
  C   C13       1.0  0.5987472077856777  0.24820907283944396  0.2685684929773798  1.0000
  C   C14       1.0  0.40125842227165254  0.25179323807370224  0.7685676791843078  1.0000
  C   C15       1.0  0.40125749965055485  0.7517930220642769  0.7314307937115315  1.0000
  C   C16       1.0  0.598740005784606  0.7482040709678445  0.23143099888353189  1.0000
  Br  Br1       1.0  0.031006474722666245  0.6305242825115303  0.4128763823349217  1.0000
  Br  Br2       1.0  0.9689963104415753  0.8694759190091689  0.9128764887666562  1.0000
  Br  Br3       1.0  0.9689952027655833  0.3694758982139136  0.5871235129812007  1.0000
  Br  Br4       1.0  0.0310051475587372  0.13052330420703132  0.08712340655022639  1.0000
  N   N1        1.0  0.5080789553059049  0.12668894797689492  0.2905381481510005  1.0000
  N   N2        1.0  0.49192658028597674  0.3733132757720129  0.7905383445558911  1.0000
  N   N3        1.0  0.49191710126356714  0.873309319411682  0.7094623557925885  1.0000
  N   N4        1.0  0.5080783466355854  0.6266897766385287  0.2094621593830865  1.0000
  N   N5        1.0  0.4700682790344715  0.328256453460135  0.3994667292302267  1.0000
  N   N6        1.0  0.5299305088200582  0.171740552268453  0.8994641880689682  1.0000
  N   N7        1.0  0.5299312464588721  0.6717456431251988  0.6005331660846238  1.0000
  N   N8        1.0  0.4700648892921393  0.8282548425984332  0.10053327274983558  1.0000
  Cl  Cl1       1.0  0.2572961315735398  0.9529476716386116  0.3945716996975506  1.0000
  Cl  Cl2       1.0  0.7427093232652523  0.5470526016614417  0.894572352621644  1.0000
  Cl  Cl3       1.0  0.7427059848892836  0.0470544241040969  0.6054288042424502  1.0000
  Cl  Cl4       1.0  0.25729213473505996  0.45294662155475857  0.10542754269523869  1.0000
