data_image0
_chemical_formula_structural       Sr4H16C16S4O16
_chemical_formula_sum              "Sr4 H16 C16 S4 O16"
_cell_length_a       7.593050251008232
_cell_length_b       9.049523486137954
_cell_length_c       9.876560798912154
_cell_angle_alpha    99.947324854358
_cell_angle_beta     90.00011602658631
_cell_angle_gamma    89.99985979526573

_space_group_name_H-M_alt    "P 1"
_space_group_IT_number       1

loop_
  _space_group_symop_operation_xyz
  'x, y, z'

loop_
  _atom_site_type_symbol
  _atom_site_label
  _atom_site_symmetry_multiplicity
  _atom_site_fract_x
  _atom_site_fract_y
  _atom_site_fract_z
  _atom_site_occupancy
  Sr  Sr1       1.0  0.9602941786862119  0.4548956977608681  0.6957930658870237  1.0000
  Sr  Sr2       1.0  0.46029486576188106  0.5451036164899037  0.804207619170775  1.0000
  Sr  Sr3       1.0  0.039709606624605  0.5451024625427935  0.3042104236058307  1.0000
  Sr  Sr4       1.0  0.5397102365318674  0.45489789446747875  0.19579133005017724  1.0000
  H   H1        1.0  0.11195354961686381  0.12576638880025107  0.031374519436120386  1.0000
  H   H2        1.0  0.6119497308547397  0.8742360772310462  0.468626662416959  1.0000
  H   H3        1.0  0.8880462847126581  0.8742306466107622  0.9686277822249635  1.0000
  H   H4        1.0  0.38805273744730334  0.1257676745085519  0.5313716235506547  1.0000
  H   H5        1.0  0.2727978227616887  0.1317446355318879  0.9015159505165327  1.0000
  H   H6        1.0  0.7727930449508522  0.8682561515956947  0.5984877109608959  1.0000
  H   H7        1.0  0.7272046455566041  0.8682546526734498  0.09848973977482697  1.0000
  H   H8        1.0  0.22720678936774874  0.13174535936649076  0.4015112382567168  1.0000
  H   H9        1.0  0.7072715465380527  0.04597959854404371  0.8887421897254199  1.0000
  H   H10       1.0  0.20726922047208518  0.9540201741831356  0.6112571620662237  1.0000
  H   H11       1.0  0.29273092176000404  0.954024144182874  0.11125305733198583  1.0000
  H   H12       1.0  0.7927319308539538  0.04597574233888221  0.3887459777065629  1.0000
  H   H13       1.0  0.8134475523126953  0.1809067408600527  0.013501482767750898  1.0000
  H   H14       1.0  0.31344397384258116  0.8190919919980857  0.4864994295734205  1.0000
  H   H15       1.0  0.18655096502430274  0.8190914224526366  0.9865030196918383  1.0000
  H   H16       1.0  0.6865532264803278  0.18091175073363533  0.5134958174806526  1.0000
  C   C1        1.0  0.17270346363144992  0.3457353861397507  0.9873760155170428  1.0000
  C   C2        1.0  0.6727043485503331  0.6542655715238723  0.5126234673770824  1.0000
  C   C3        1.0  0.8272845177229015  0.6542694544585785  0.012611302629842698  1.0000
  C   C4        1.0  0.32728626684012607  0.34572925315801234  0.4873896272305203  1.0000
  C   C5        1.0  0.14484791276566972  0.1771421323313334  0.9418714727131244  1.0000
  C   C6        1.0  0.6448444772871796  0.8228588821493118  0.558130000856849  1.0000
  C   C7        1.0  0.8551532385602983  0.822854909086935  0.05813285488893167  1.0000
  C   C8        1.0  0.35515667401975287  0.1771448665872626  0.4418672721398594  1.0000
  C   C9        1.0  0.6632414484586704  0.26963813108712026  0.8605735572674789  1.0000
  C   C10       1.0  0.16324116301870356  0.7303606060593778  0.6394275898699462  1.0000
  C   C11       1.0  0.33676233684142426  0.7303611300789682  0.13942301629409568  1.0000
  C   C12       1.0  0.8367652562783479  0.26963755123765054  0.3605748866545113  1.0000
  C   C13       1.0  0.7827456930326593  0.15133158766537488  0.9035374481592341  1.0000
  C   C14       1.0  0.28274363379393463  0.8486680474072726  0.596461999173165  1.0000
  C   C15       1.0  0.21726072625727266  0.8486744288842586  0.09646827831976879  1.0000
  C   C16       1.0  0.7172588345125703  0.15132783907126418  0.4035310108997621  1.0000
  S   S1        1.0  0.9866096634704179  0.12003278244357321  0.8063758768646209  1.0000
  S   S2        1.0  0.4866051356865598  0.8799653589199322  0.6936236536726311  1.0000
  S   S3        1.0  0.0133901708508475  0.8799687345270685  0.19362509829313268  1.0000
  S   S4        1.0  0.5133946986336397  0.1200316554614815  0.3063715571979628  1.0000
  O   O1        1.0  0.15813595453182216  0.43319204900483754  0.9010377184290022  1.0000
  O   O2        1.0  0.6581373211109565  0.5668089412359053  0.5989637719649679  1.0000
  O   O3        1.0  0.8418651968104599  0.5667994039829196  0.09897282566753057  1.0000
  O   O4        1.0  0.34186778116228583  0.4332015238280533  0.40102948533910876  1.0000
  O   O5        1.0  0.21825838406128645  0.3854589784851895  0.11247211936616708  1.0000
  O   O6        1.0  0.7182551053038254  0.6145421687642167  0.3875280092262655  1.0000
  O   O7        1.0  0.7817427672767323  0.6145369650748762  0.887540137137236  1.0000
  O   O8        1.0  0.2817434120049428  0.38546043104468447  0.6124599721789608  1.0000
  O   O9        1.0  0.6814210212266829  0.3074925212034714  0.7434293095645472  1.0000
  O   O10       1.0  0.18141983771195674  0.6925039359985731  0.7565704978968383  1.0000
  O   O11       1.0  0.3185748621311292  0.6924989107594897  0.2565741437381631  1.0000
  O   O12       1.0  0.81857736261108  0.30749755694065317  0.24342237349869575  1.0000
  O   O13       1.0  0.5451440136470326  0.3252966736417449  0.9460882374569337  1.0000
  O   O14       1.0  0.045144981196514805  0.674705635560194  0.5539102458524852  1.0000
  O   O15       1.0  0.4548518696900103  0.6747082120127958  0.0539142752459938  1.0000
  O   O16       1.0  0.9548548531196205  0.32529249470479027  0.4460831139371777  1.0000
