data_image0
_chemical_formula_structural       Cd2H28C32N4O12
_chemical_formula_sum              "Cd2 H28 C32 N4 O12"
_cell_length_a       8.026726082033598
_cell_length_b       7.7786623075019
_cell_length_c       14.259232154956083
_cell_angle_alpha    77.21206731096375
_cell_angle_beta     87.72790383037021
_cell_angle_gamma    77.64233830737501

_space_group_name_H-M_alt    "P 1"
_space_group_IT_number       1

loop_
  _space_group_symop_operation_xyz
  'x, y, z'

loop_
  _atom_site_type_symbol
  _atom_site_label
  _atom_site_symmetry_multiplicity
  _atom_site_fract_x
  _atom_site_fract_y
  _atom_site_fract_z
  _atom_site_occupancy
  Cd  Cd1       1.0  0.6671274312695346  0.7311065113106849  0.743673473305556  1.0000
  Cd  Cd2       1.0  0.332870219634998  0.268897903171208  0.256325320044958  1.0000
  H   H1        1.0  0.5252455449341866  0.883412441487323  0.5703017871857982  1.0000
  H   H2        1.0  0.47475139541663947  0.11658932838564338  0.42969590941327607  1.0000
  H   H3        1.0  0.6265453925842833  0.0481552024503031  0.5568262440009805  1.0000
  H   H4        1.0  0.37345308766792573  0.951845138502442  0.44317367866958796  1.0000
  H   H5        1.0  0.9599089062986083  0.8481317682531396  0.7315622922925444  1.0000
  H   H6        1.0  0.0400825198080668  0.15188484844181718  0.26843320007843374  1.0000
  H   H7        1.0  0.8225397229001317  0.0356255961367609  0.7068112004320357  1.0000
  H   H8        1.0  0.17745449539307862  0.9643895688120309  0.29318719350125383  1.0000
  H   H9        1.0  0.3800184662366063  0.3921051615259188  0.5458250183748987  1.0000
  H   H10       1.0  0.6199771334092858  0.6078909717203446  0.45417893853387886  1.0000
  H   H11       1.0  0.09442478933345201  0.36435721364523493  0.5971499098190094  1.0000
  H   H12       1.0  0.9055686000585933  0.6356375302078944  0.40285495117313286  1.0000
  H   H13       1.0  0.30837999574284686  0.0440414915911305  0.6912371579886099  1.0000
  H   H14       1.0  0.691611880548642  0.9559545653792726  0.3087682948695588  1.0000
  H   H15       1.0  0.0666798099738912  0.2142246321455019  0.7753326895394539  1.0000
  H   H16       1.0  0.9333183009425028  0.7857714264981368  0.2246733228353719  1.0000
  H   H17       1.0  0.06582720424283649  0.14461227980439867  0.9557371069411931  1.0000
  H   H18       1.0  0.9341781059673693  0.8553851637808165  0.04426858986047222  1.0000
  H   H19       1.0  0.20571258628793745  0.9652868012599639  0.11176652233793055  1.0000
  H   H20       1.0  0.7942972766243556  0.03470664507195662  0.8882388078343979  1.0000
  H   H21       1.0  0.4327338817682076  0.7167422221882872  0.19708908824333807  1.0000
  H   H22       1.0  0.5672748208520773  0.2832446446344576  0.8029127810692672  1.0000
  H   H23       1.0  0.6912818844616949  0.4792257446836101  0.19158495471756257  1.0000
  H   H24       1.0  0.30873092424923243  0.5207654228226203  0.8084107379101513  1.0000
  H   H25       1.0  0.9139743320770748  0.3229653044435422  0.09385688154389984  1.0000
  H   H26       1.0  0.08603430666799033  0.6770340847236085  0.9061344969776429  1.0000
  H   H27       1.0  0.8990468047434418  0.426368944399357  0.9122730082325674  1.0000
  H   H28       1.0  0.10095521306713098  0.5736384804746918  0.08771834107618302  1.0000
  C   C1        1.0  0.40549897654474887  0.6177487027783357  0.6081857258403716  1.0000
  C   C2        1.0  0.5944914683657601  0.3822543557127247  0.39181267859892444  1.0000
  C   C3        1.0  0.30861711965468436  0.4840913459805733  0.5884358856337927  1.0000
  C   C4        1.0  0.6913786086122328  0.5159102730139152  0.4115653623807276  1.0000
  C   C5        1.0  0.04110053771218252  0.5823443376986076  0.6760955718082401  1.0000
  C   C6        1.0  0.9588947810176762  0.4176531726911961  0.32390753900426733  1.0000
  C   C7        1.0  0.15053451646439706  0.46729070439031517  0.6173289332137061  1.0000
  C   C8        1.0  0.8494592757644952  0.5327081770182361  0.3826733604960708  1.0000
  C   C9        1.0  0.30167943011194603  0.017914645418265703  0.7695194219689583  1.0000
  C   C10       1.0  0.6983193645573208  0.9820841736372471  0.23048486921977945  1.0000
  C   C11       1.0  0.1671417735016618  0.11219814818127112  0.8168956045155298  1.0000
  C   C12       1.0  0.8328612996538709  0.8877980218137581  0.18310817843197927  1.0000
  C   C13       1.0  0.1670022643029085  0.07387376668626187  0.9161980344355811  1.0000
  C   C14       1.0  0.8329995699678888  0.9261223682332368  0.08380648198985348  1.0000
  C   C15       1.0  0.2986323261476399  0.9407952881038426  0.9682872062898299  1.0000
  C   C16       1.0  0.7013703606983057  0.05920891927133451  0.031717106961537  1.0000
  C   C17       1.0  0.3033955197905769  0.892276955877051  0.07112916092510356  1.0000
  C   C18       1.0  0.6966118318512144  0.1077165650574941  0.9288741137811771  1.0000
  C   C19       1.0  0.4294575994988107  0.7577469096947451  0.11875033601676685  1.0000
  C   C20       1.0  0.5705505613900358  0.24224262456286985  0.8812519545564329  1.0000
  C   C21       1.0  0.5611381551164527  0.6637708275996059  0.06672805705635204  1.0000
  C   C22       1.0  0.438870557330887  0.33622824310943145  0.9332710707933671  1.0000
  C   C23       1.0  0.6915710971300726  0.5217061444589104  0.11341155061222002  1.0000
  C   C24       1.0  0.30844116984940945  0.4782876904821904  0.8865845632760883  1.0000
  C   C25       1.0  0.8139051151404076  0.4346732094469772  0.05911338548074952  1.0000
  C   C26       1.0  0.18610257903637262  0.565324709599622  0.9408809815837458  1.0000
  C   C27       1.0  0.8058604437816612  0.49083902904985877  0.9583918088776784  1.0000
  C   C28       1.0  0.19414340154652623  0.5091655608096985  0.041603317083208004  1.0000
  C   C29       1.0  0.562712238097923  0.7112713618357275  0.9645810374348401  1.0000
  C   C30       1.0  0.43728968459265616  0.28873043253641845  0.03541654319005972  1.0000
  C   C31       1.0  0.42824114084210396  0.8520732860948783  0.9141098669557408  1.0000
  C   C32       1.0  0.5717570785946933  0.14792834514919662  0.0858913230716922  1.0000
  N   N1        1.0  0.42787791401680403  0.892667188096098  0.8167410101531516  1.0000
  N   N2        1.0  0.5721218319209597  0.10733307212923653  0.18326099697700474  1.0000
  N   N3        1.0  0.6848743946566174  0.6246873095434395  0.9128098149916539  1.0000
  N   N4        1.0  0.3151301679254884  0.37531989597430737  0.08718711220504363  1.0000
  O   O1        1.0  0.49334562640464685  0.5717857563574497  0.6856082353596022  1.0000
  O   O2        1.0  0.5066437484433948  0.4282225791018773  0.31439242056963224  1.0000
  O   O3        1.0  0.4053805524745399  0.7577542790760674  0.5422904385257183  1.0000
  O   O4        1.0  0.5946131861526992  0.24224483393838628  0.45770621930901717  1.0000
  O   O5        1.0  0.9013432431858418  0.534267956320086  0.7068359773949382  1.0000
  O   O6        1.0  0.09864874162605018  0.4657336732507531  0.29316465311583784  1.0000
  O   O7        1.0  0.0928037936064214  0.7164249539054239  0.6928335376632688  1.0000
  O   O8        1.0  0.9071922021761124  0.28357534584699096  0.30716714747876495  1.0000
  O   O9        1.0  0.5956206085715294  0.9461057090829216  0.6030836589365691  1.0000
  O   O10       1.0  0.40437661269533004  0.0538946836465044  0.39691488375878253  1.0000
  O   O11       1.0  0.8564725688596155  0.9289020171736269  0.7580436426180414  1.0000
  O   O12       1.0  0.1435239583807899  0.07110790588242817  0.24195176634738402  1.0000
