data_image0
_chemical_formula_structural       Nd2Cu2H28C32N4O26
_chemical_formula_sum              "Nd2 Cu2 H28 C32 N4 O26"
_cell_length_a       8.13368352687798
_cell_length_b       10.99205782676668
_cell_length_c       12.207622321327683
_cell_angle_alpha    108.57622173300891
_cell_angle_beta     101.36385197340732
_cell_angle_gamma    98.36775948980805

_space_group_name_H-M_alt    "P 1"
_space_group_IT_number       1

loop_
  _space_group_symop_operation_xyz
  'x, y, z'

loop_
  _atom_site_type_symbol
  _atom_site_label
  _atom_site_symmetry_multiplicity
  _atom_site_fract_x
  _atom_site_fract_y
  _atom_site_fract_z
  _atom_site_occupancy
  Nd  Nd1       1.0  0.4526979196213219  0.7363370122421672  0.4235342424272871  1.0000
  Nd  Nd2       1.0  0.547301477403174  0.26366132817933874  0.5764650777500933  1.0000
  Cu  Cu1       1.0  0.4897965268529987  0.7612765400475608  0.9570042922821641  1.0000
  Cu  Cu2       1.0  0.5102034369917234  0.23872376041351379  0.0429964994193313  1.0000
  H   H1        1.0  0.9573609519573124  0.5314143228258672  0.2096832945227121  1.0000
  H   H2        1.0  0.04263942977543419  0.4685830829702553  0.790311783481705  1.0000
  H   H3        1.0  0.057250715599018114  0.6310635007605541  0.06993192100868131  1.0000
  H   H4        1.0  0.9427468745116059  0.3689329242309398  0.9300616818888441  1.0000
  H   H5        1.0  0.8480704991693387  0.726888323813462  0.9560197521347644  1.0000
  H   H6        1.0  0.1519240114840983  0.2731061261424799  0.04397286392011778  1.0000
  H   H7        1.0  0.057894004890883415  0.0025385180352798997  0.6949430830498287  1.0000
  H   H8        1.0  0.9421111390599108  0.9974666860704957  0.3050622924748225  1.0000
  H   H9        1.0  0.9392678099283671  0.9121168338263247  0.8346260507146466  1.0000
  H   H10       1.0  0.06073454535026461  0.0878873989489293  0.16537703368557288  1.0000
  H   H11       1.0  0.13091551768208384  0.8139083309158226  0.9567201552431328  1.0000
  H   H12       1.0  0.8690844432126712  0.1860919600711526  0.04328145247590238  1.0000
  H   H13       1.0  0.6173636850972669  0.6191819767254787  0.6063444517967652  1.0000
  H   H14       1.0  0.3826344570837393  0.3808163609350856  0.3936547027125812  1.0000
  H   H15       1.0  0.46276033743443895  0.656267505989355  0.655874872653385  1.0000
  H   H16       1.0  0.5372368377381278  0.3437318231411978  0.3441236279236789  1.0000
  H   H17       1.0  0.7475860984722333  0.9733078665204574  0.5715701493688596  1.0000
  H   H18       1.0  0.2524151143160509  0.02669241775336669  0.42843244003575615  1.0000
  H   H19       1.0  0.7242500236031333  0.8820636480959437  0.6426329663426882  1.0000
  H   H20       1.0  0.2757503433797766  0.1179337103296803  0.3573661917494347  1.0000
  H   H21       1.0  0.1263936448529037  0.7834421643358453  0.2870660366272801  1.0000
  H   H22       1.0  0.8736011300358371  0.21655320405822925  0.712932619303686  1.0000
  H   H23       1.0  0.2639749909994081  0.8798092266850119  0.25883179131120926  1.0000
  H   H24       1.0  0.7360206385446232  0.12018909597956913  0.7411678478796232  1.0000
  H   H25       1.0  0.9289968483338881  0.40645656872757735  0.36883492226951375  1.0000
  H   H26       1.0  0.07100185771736994  0.5935437194984561  0.6311665197814874  1.0000
  H   H27       1.0  0.0929762064191522  0.38458229776166775  0.47437116772257326  1.0000
  H   H28       1.0  0.9070252971541636  0.6154189902171794  0.5256301174002472  1.0000
  C   C1        1.0  0.603424366093556  0.637435048276629  0.11518975538866273  1.0000
  C   C2        1.0  0.3965757248541665  0.3625613538144563  0.8848066268975499  1.0000
  C   C3        1.0  0.7079753959693919  0.579750800931585  0.17971785470007973  1.0000
  C   C4        1.0  0.2920255496336139  0.4202485554300069  0.8202795108459923  1.0000
  C   C5        1.0  0.872682317096235  0.5763985201885549  0.16167212241907694  1.0000
  C   C6        1.0  0.12731709467811217  0.423599867603457  0.8383231176705974  1.0000
  C   C7        1.0  0.9284977568798708  0.6309593148479918  0.08326004564194991  1.0000
  C   C8        1.0  0.07150040300094669  0.3690390796571705  0.9167342127621508  1.0000
  C   C9        1.0  0.8159496189559478  0.6849494685834401  0.02083158828712329  1.0000
  C   C10       1.0  0.1840479682047089  0.3150469469339612  0.9791628306279418  1.0000
  C   C11       1.0  0.4232397383690055  0.6500354103760415  0.12244839838570697  1.0000
  C   C12       1.0  0.576759264367226  0.3499659005032285  0.8775501073484192  1.0000
  C   C13       1.0  0.6538060717818726  0.5225057937448555  0.26804384148486804  1.0000
  C   C14       1.0  0.346197950328353  0.4774955281781886  0.731955326921387  1.0000
  C   C15       1.0  0.4089249098538801  0.9169587976137663  0.8246473074933859  1.0000
  C   C16       1.0  0.5910771546397199  0.0830444314564502  0.17535708118862905  1.0000
  C   C17       1.0  0.30976704932290744  0.9659330106236296  0.7487694209023344  1.0000
  C   C18       1.0  0.6902372429225706  0.03406924868574631  0.2512341553449175  1.0000
  C   C19       1.0  0.13856603319690916  0.9646257416619762  0.7528516114524776  1.0000
  C   C20       1.0  0.8614353521233227  0.03537947310916681  0.24715163503299914  1.0000
  C   C21       1.0  0.07125930129573287  0.91222490559867  0.8287319531708022  1.0000
  C   C22       1.0  0.9287430510329385  0.08777931770248412  0.17127194724695724  1.0000
  C   C23       1.0  0.17565870413322676  0.8588132028256655  0.8971580656878331  1.0000
  C   C24       1.0  0.8243418235817543  0.14118904820087863  0.1028450135553172  1.0000
  C   C25       1.0  0.598146899359847  0.9214450123594132  0.8389488091075207  1.0000
  C   C26       1.0  0.4018523676116958  0.07855721695798928  0.16105573650268207  1.0000
  C   C27       1.0  0.3788807980302806  0.012226094230847202  0.6595699871220119  1.0000
  C   C28       1.0  0.6211160863572546  0.9877722311946755  0.3404298177368474  1.0000
  C   C29       1.0  0.165361019358933  0.5447455226978235  0.41757642974003056  1.0000
  C   C30       1.0  0.8346376866923179  0.4552547655282098  0.5824250123109775  1.0000
  C   C31       1.0  0.03526609805414435  0.45956588674088283  0.45008429140261796  1.0000
  C   C32       1.0  0.9647328987821452  0.5404354051901806  0.5499158463665949  1.0000
  N   N1        1.0  0.6583099400431535  0.6867807157219445  0.03717417818918992  1.0000
  N   N2        1.0  0.34168610443893493  0.31321470280357744  0.962820563322097  1.0000
  N   N3        1.0  0.3397601557582704  0.8618545480187834  0.8944500998137812  1.0000
  N   N4        1.0  0.6602393990483293  0.13814867552954982  0.10555395753217306  1.0000
  O   O1        1.0  0.3438722025831495  0.698248069047402  0.04954885756999517  1.0000
  O   O2        1.0  0.6561290190550438  0.3017522436487213  0.9504512837819943  1.0000
  O   O3        1.0  0.35818022745075956  0.6134492757866071  0.19496669148141874  1.0000
  O   O4        1.0  0.6418236764063822  0.3865559729287186  0.8050344382874925  1.0000
  O   O5        1.0  0.6539487191486799  0.6031960374064198  0.3686491176630753  1.0000
  O   O6        1.0  0.34605963431227593  0.3968072528390181  0.6313520192713893  1.0000
  O   O7        1.0  0.6241595069197106  0.3984313682523604  0.23786911369275998  1.0000
  O   O8        1.0  0.37584171471848293  0.6015689444437627  0.7621310276592297  1.0000
  O   O9        1.0  0.6610694339830373  0.8536882555046929  0.8987739579126524  1.0000
  O   O10       1.0  0.3389280083748147  0.14631200153809937  0.10122976652294817  1.0000
  O   O11       1.0  0.6866430274591268  0.9904541494468474  0.7978485761518924  1.0000
  O   O12       1.0  0.3133555485391639  0.009550027675075498  0.20215809133193827  1.0000
  O   O13       1.0  0.4028043563852039  0.13439872340651252  0.6781856388267471  1.0000
  O   O14       1.0  0.5971893391419556  0.865601582198039  0.3218126924995132  1.0000
  O   O15       1.0  0.4000905102720154  0.9250401861905433  0.5705407257122275  1.0000
  O   O16       1.0  0.5999113875895787  0.07495813133056119  0.42946137385384014  1.0000
  O   O17       1.0  0.5377893735920624  0.6813806108611901  0.6077947246003248  1.0000
  O   O18       1.0  0.46220541604652965  0.3186148049033832  0.3921998512429282  1.0000
  O   O19       1.0  0.739201888791719  0.8805752668510041  0.5642685978355715  1.0000
  O   O20       1.0  0.2607990450114102  0.1194240516141818  0.4357320317806737  1.0000
  O   O21       1.0  0.23636971561249723  0.8470657194021103  0.32123661295358374  1.0000
  O   O22       1.0  0.7636268868399085  0.1529316307406745  0.6787620481344517  1.0000
  O   O23       1.0  0.15531491562656896  0.6636326539455338  0.43148734053579557  1.0000
  O   O24       1.0  0.8446893766189093  0.336369605363842  0.5685162357114563  1.0000
  O   O25       1.0  0.28604126010272063  0.49923388936255014  0.37652988186582786  1.0000
  O   O26       1.0  0.7139568761783439  0.5007644293498147  0.623470904678605  1.0000
