data_image0
_chemical_formula_structural       Cu4H28C28S4Br4N4
_chemical_formula_sum              "Cu4 H28 C28 S4 Br4 N4"
_cell_length_a       5.451173892153742
_cell_length_b       11.642208299037705
_cell_length_c       17.65468581921564
_cell_angle_alpha    90.0025390249705
_cell_angle_beta     90.00183879806936
_cell_angle_gamma    91.19926738082201

_space_group_name_H-M_alt    "P 1"
_space_group_IT_number       1

loop_
  _space_group_symop_operation_xyz
  'x, y, z'

loop_
  _atom_site_type_symbol
  _atom_site_label
  _atom_site_symmetry_multiplicity
  _atom_site_fract_x
  _atom_site_fract_y
  _atom_site_fract_z
  _atom_site_occupancy
  Cu  Cu1       1.0  0.24997283334766962  0.509861436818106  0.4947320160639492  1.0000
  Cu  Cu2       1.0  0.250040437331613  0.9901647616335795  0.9947235668235096  1.0000
  Cu  Cu3       1.0  0.7499869781560308  0.490190374693313  0.5052798654122058  1.0000
  Cu  Cu4       1.0  0.7499789032804358  0.009819346581977605  0.005270187190362201  1.0000
  H   H1        1.0  0.9565261898317203  0.7487020344066195  0.44832663013546903  1.0000
  H   H2        1.0  0.5435032755234914  0.7512970641111991  0.9483282625265023  1.0000
  H   H3        1.0  0.0434429187029792  0.2513263086037584  0.5516733558956518  1.0000
  H   H4        1.0  0.4564917252647192  0.24872033773890223  0.05166945736448272  1.0000
  H   H5        1.0  0.29285326106462867  0.873415802914252  0.3980790792240257  1.0000
  H   H6        1.0  0.20714995241102943  0.6265793435542478  0.8980924060833504  1.0000
  H   H7        1.0  0.7071247462251762  0.1265985532813474  0.6019141093675772  1.0000
  H   H8        1.0  0.7928794328880573  0.37343466784221147  0.10190531344784402  1.0000
  H   H9        1.0  0.319366686173332  0.91333724339939  0.2587201205871993  1.0000
  H   H10       1.0  0.18060414527590749  0.5866589278604762  0.7587276279051808  1.0000
  H   H11       1.0  0.6806177574608867  0.08663476717435262  0.7412679692365105  1.0000
  H   H12       1.0  0.8193938845097861  0.41332998636119106  0.2412751891400831  1.0000
  H   H13       1.0  0.9980881972391061  0.8344914049912692  0.17249655583288614  1.0000
  H   H14       1.0  0.5018607545860474  0.6655076671444888  0.6725036596699498  1.0000
  H   H15       1.0  0.0019353417707109034  0.1654719379661317  0.8274949320086337  1.0000
  H   H16       1.0  0.4981659101890869  0.3344762695383281  0.32750652051321794  1.0000
  H   H17       1.0  0.6525086029076661  0.7196542986898112  0.22247064690486704  1.0000
  H   H18       1.0  0.8474807231571903  0.7803530895235088  0.7224577133710002  1.0000
  H   H19       1.0  0.34749427464030447  0.2803181404491042  0.7775242398369786  1.0000
  H   H20       1.0  0.15256959309508739  0.21964148607914785  0.277538306299185  1.0000
  H   H21       1.0  0.5002765054669425  0.5756886890346921  0.2680765170689271  1.0000
  H   H22       1.0  0.9997575674567827  0.9242819277581235  0.768065586616679  1.0000
  H   H23       1.0  0.4997165658481464  0.42429173083703375  0.7319415932238515  1.0000
  H   H24       1.0  0.00022947940375670338  0.07570724409531952  0.23192986704140856  1.0000
  H   H25       1.0  0.307399318191024  0.535479827894804  0.3434226880650044  1.0000
  H   H26       1.0  0.19262382171942963  0.964492446897012  0.8434174823174702  1.0000
  H   H27       1.0  0.6925706014297717  0.46451749654048063  0.6565959892087109  1.0000
  H   H28       1.0  0.807384798325316  0.0354936352822506  0.15658023678147262  1.0000
  C   C1        1.0  0.5831278423941839  0.6503980695361948  0.3702152025545119  1.0000
  C   C2        1.0  0.9168614031151849  0.8496034267475783  0.8702097788846361  1.0000
  C   C3        1.0  0.4168387953991513  0.34961397049132603  0.6297898809406917  1.0000
  C   C4        1.0  0.08312863604619741  0.15040548043626964  0.12978680801988676  1.0000
  C   C5        1.0  0.7822231684363813  0.7237508438328888  0.33954962084803963  1.0000
  C   C6        1.0  0.7177623956644865  0.7762544481112458  0.8395522642149589  1.0000
  C   C7        1.0  0.21774189863337062  0.2762629552052475  0.6604520641671814  1.0000
  C   C8        1.0  0.28225613886789347  0.22376067918111894  0.16044885396194536  1.0000
  C   C9        1.0  0.9634222655966409  0.7699476620722977  0.3882098487130534  1.0000
  C   C10       1.0  0.5365931190832286  0.7300480484206916  0.8882140738350801  1.0000
  C   C11       1.0  0.0365618925378755  0.23005879982764552  0.6117867381874549  1.0000
  C   C12       1.0  0.4634353564525284  0.2699599566647564  0.11178817694844413  1.0000
  C   C13       1.0  0.15261807497361699  0.8394206010828142  0.359653451255369  1.0000
  C   C14       1.0  0.3473693203703192  0.6605782566683163  0.8596574196731412  1.0000
  C   C15       1.0  0.8473540521600001  0.16059130991613565  0.6403442687071178  1.0000
  C   C16       1.0  0.6526662146851264  0.3394278603234185  0.14033803394834626  1.0000
  C   C17       1.0  0.16759269126067985  0.8618177907117545  0.2819758505195011  1.0000
  C   C18       1.0  0.33237909611332134  0.6381872134316994  0.7819802308395511  1.0000
  C   C19       1.0  0.8324067852031618  0.13815645038912552  0.718015071336666  1.0000
  C   C20       1.0  0.6676168337116336  0.3618120833427058  0.21801975433885457  1.0000
  C   C21       1.0  0.988596090261076  0.8163300842177463  0.23303314430313551  1.0000
  C   C22       1.0  0.5113779457518747  0.6836833320134875  0.7330363458153573  1.0000
  C   C23       1.0  0.011384554774963421  0.18365321008058552  0.7669600435934643  1.0000
  C   C24       1.0  0.488649879331021  0.3163203827874882  0.2669659048806211  1.0000
  C   C25       1.0  0.795984777224838  0.7488209695366166  0.261539598496782  1.0000
  C   C26       1.0  0.7040271529678889  0.7511774118097848  0.7615272237078231  1.0000
  C   C27       1.0  0.2040182307402176  0.2511523276919121  0.7384569875281529  1.0000
  C   C28       1.0  0.2960184519843239  0.24882244091195826  0.23846313189731216  1.0000
  S   S1        1.0  0.52086766327578  0.6511685850937141  0.4649073125155569  1.0000
  S   S2        1.0  0.9791441105417534  0.8488420500396645  0.9649042170912172  1.0000
  S   S3        1.0  0.47907659394765295  0.34887756355391275  0.5350960726394902  1.0000
  S   S4        1.0  0.020874311758611  0.1511481076673036  0.0350963341237218  1.0000
  Br  Br1       1.0  0.008038506841465728  0.5850010848083615  0.6034405104961779  1.0000
  Br  Br2       1.0  0.49198050348824296  0.9149857131889688  0.10343076686432083  1.0000
  Br  Br3       1.0  0.9919406658713684  0.41503305001802465  0.39657137043573704  1.0000
  Br  Br4       1.0  0.508063289614995  0.08499007102106763  0.8965618539218456  1.0000
  N   N1        1.0  0.45107831965614764  0.5852122579834287  0.3231169118786782  1.0000
  N   N2        1.0  0.048926816004915  0.9147646409155428  0.823111944078015  1.0000
  N   N3        1.0  0.5488927784574713  0.4147807330742453  0.6768949682289787  1.0000
  N   N4        1.0  0.9510802338604238  0.08522320032886203  0.17688520865026192  1.0000
