data_image0
_chemical_formula_structural       Zn4H26C86N4Cl22O16
_chemical_formula_sum              "Zn4 H26 C86 N4 Cl22 O16"
_cell_length_a       17.042281262361513
_cell_length_b       17.81742967982794
_cell_length_c       32.71845495800135
_cell_angle_alpha    90.1095018192537
_cell_angle_beta     91.0058967353381
_cell_angle_gamma    89.9043588546182

_space_group_name_H-M_alt    "P 1"
_space_group_IT_number       1

loop_
  _space_group_symop_operation_xyz
  'x, y, z'

loop_
  _atom_site_type_symbol
  _atom_site_label
  _atom_site_symmetry_multiplicity
  _atom_site_fract_x
  _atom_site_fract_y
  _atom_site_fract_z
  _atom_site_occupancy
  Zn  Zn1       1.0  0.5809228460563318  0.4951882707390708  0.4976851788840264  1.0000
  Zn  Zn2       1.0  0.404754048670128  0.490782830314913  0.4998376989731312  1.0000
  Zn  Zn3       1.0  0.4192494230886084  0.4982120066036018  0.9650969777431657  1.0000
  Zn  Zn4       1.0  0.5955751774636652  0.49270206381902415  0.9624513387616389  1.0000
  H   H1        1.0  0.122920403570582  0.583321984470011  0.5411434472868921  1.0000
  H   H2        1.0  0.1243422430802212  0.41471824857790535  0.4455931959242818  1.0000
  H   H3        1.0  0.8656184650955936  0.5613638288923468  0.5482500496636719  1.0000
  H   H4        1.0  0.8569951685404362  0.440874489807868  0.4330943025161106  1.0000
  H   H5        1.0  0.569181662587255  0.8822415438785497  0.5460263847151197  1.0000
  H   H6        1.0  0.3807713985631765  0.8579189690883948  0.4570344878670981  1.0000
  H   H7        1.0  0.5189040137725626  0.11103960634964949  0.4294728995279798  1.0000
  H   H8        1.0  0.45272405933139487  0.12239354069807008  0.5563850795480365  1.0000
  H   H9        1.0  0.6117289959098359  0.41694471119240717  0.702121760298823  1.0000
  H   H10       1.0  0.3869781810531165  0.4182671648501638  0.7605822717681008  1.0000
  H   H11       1.0  0.6220728815987187  0.514823399586028  0.8343159122918992  1.0000
  H   H12       1.0  0.6178761752547572  0.5164649731688511  0.7580971704365853  1.0000
  H   H13       1.0  0.37680274732164787  0.5131491001638295  0.6279530352636229  1.0000
  H   H14       1.0  0.3810006847441727  0.5162793044305475  0.7041584004432622  1.0000
  H   H15       1.0  0.4621709105403938  0.6810052838402284  0.1504599830383597  1.0000
  H   H16       1.0  0.5616579700416723  0.4635815806045755  0.1792574253689381  1.0000
  H   H17       1.0  0.4410659971991606  0.46154108262192756  0.2830142760697356  1.0000
  H   H18       1.0  0.5359283634988401  0.6804541288931175  0.3124871355525585  1.0000
  H   H19       1.0  0.8776009785469726  0.5861859195352465  0.9225193954912498  1.0000
  H   H20       1.0  0.8756717271898894  0.4150063621734644  0.0163307430725013  1.0000
  H   H21       1.0  0.13363525618201783  0.5632063900690127  0.9153873462361872  1.0000
  H   H22       1.0  0.144273414052762  0.4444498679616871  0.030800858930248906  1.0000
  H   H23       1.0  0.43240298922741977  0.8844343230834893  0.9158818858646285  1.0000
  H   H24       1.0  0.6180537238725777  0.8607589481532684  0.006552788528971101  1.0000
  H   H25       1.0  0.4803264358445461  0.11447752337445387  0.0330318520496178  1.0000
  H   H26       1.0  0.546249837190274  0.12407265774476169  0.9060714045056599  1.0000
  C   C1        1.0  0.4989095056430912  0.63698175639108  0.5067056170570154  1.0000
  C   C2        1.0  0.48507055657376  0.47207609366434883  0.5761915298905012  1.0000
  C   C3        1.0  0.5083898406112297  0.349581128357876  0.49120718502251043  1.0000
  C   C4        1.0  0.4771827546626853  0.5202754513481906  0.4217857681968127  1.0000
  C   C5        1.0  0.5015304848444232  0.6395602415226946  0.9562273970091157  1.0000
  C   C6        1.0  0.5142568827197423  0.47471882528478193  0.8862595039318322  1.0000
  C   C7        1.0  0.49080685041469957  0.3522277418081145  0.9709739128238226  1.0000
  C   C8        1.0  0.5247241918810914  0.522291153782838  0.0407019364510077  1.0000
  C   C9        1.0  0.23441007464355584  0.538788249797271  0.5227851424667307  1.0000
  C   C10       1.0  0.1529401703928031  0.5447744129756487  0.5209260293254305  1.0000
  C   C11       1.0  0.1111412873479267  0.49992392594305096  0.49273755352706433  1.0000
  C   C12       1.0  0.1536959781776588  0.45109651035909337  0.46770354062631014  1.0000
  C   C13       1.0  0.235135454441938  0.44933742770820806  0.4719718356870928  1.0000
  C   C14       1.0  0.028185154319260202  0.5025288287015997  0.49041686903392195  1.0000
  C   C15       1.0  0.9566835842526161  0.5030008538037618  0.48952939172306037  1.0000
  C   C16       1.0  0.8737049573741303  0.5018343537849361  0.4903152387225092  1.0000
  C   C17       1.0  0.833985571455365  0.53411020519696  0.5232244586785484  1.0000
  C   C18       1.0  0.7524864094496593  0.5295868592710916  0.5236740335711048  1.0000
  C   C19       1.0  0.7477671416488789  0.4654535778285051  0.4624804511814703  1.0000
  C   C20       1.0  0.8292108426973286  0.46692025481887356  0.4592029017810404  1.0000
  C   C21       1.0  0.4887854124933567  0.7212163732090459  0.5058982209641627  1.0000
  C   C22       1.0  0.536748645957303  0.769412821265142  0.5295815416622675  1.0000
  C   C23       1.0  0.5307940399581171  0.8471115173565805  0.5272642138818213  1.0000
  C   C24       1.0  0.4756318486759241  0.8801916191959761  0.500330494870326  1.0000
  C   C25       1.0  0.4248768875037571  0.8336246789591611  0.4774955688668783  1.0000
  C   C26       1.0  0.4308977122210393  0.7558539115176043  0.480895667797995  1.0000
  C   C27       1.0  0.47327908419173076  0.9595082357278882  0.49663990794914536  1.0000
  C   C28       1.0  0.47724004359397293  0.027716884342524395  0.4943475090491063  1.0000
  C   C29       1.0  0.48451198011564145  0.10698965550938767  0.4929968528300749  1.0000
  C   C30       1.0  0.5077200437508722  0.1433487555270858  0.4570295197563183  1.0000
  C   C31       1.0  0.5169656406862017  0.22101206017887154  0.4570423829718352  1.0000
  C   C32       1.0  0.50292750269346  0.2648833455902491  0.4917990679141583  1.0000
  C   C33       1.0  0.47956144804497586  0.2273414686240969  0.5272859081208452  1.0000
  C   C34       1.0  0.47055894419109723  0.149776652845695  0.5283497399678654  1.0000
  C   C35       1.0  0.491496793570704  0.46625944722649837  0.6219321000097581  1.0000
  C   C36       1.0  0.507404833777656  0.4685034944411369  0.8405481236744096  1.0000
  C   C37       1.0  0.5575863170063045  0.4387153007596111  0.6435955664381867  1.0000
  C   C38       1.0  0.5604302185576343  0.44008271608876726  0.6862660870529284  1.0000
  C   C39       1.0  0.44117030282778563  0.4409848378815013  0.8190110965246832  1.0000
  C   C40       1.0  0.4383121917917379  0.44151950988437955  0.7763391922923477  1.0000
  C   C41       1.0  0.5706975422392233  0.4942225682921729  0.8175087451662436  1.0000
  C   C42       1.0  0.5684031170844861  0.49457198178013323  0.7750557644079166  1.0000
  C   C43       1.0  0.4281667862371918  0.4926701580751639  0.6448416123506322  1.0000
  C   C44       1.0  0.4304411334393948  0.4938170440818864  0.6872965305743224  1.0000
  C   C45       1.0  0.49736591308015216  0.46796132900827564  0.7086605238039214  1.0000
  C   C46       1.0  0.5014524470777317  0.46852974340459497  0.7538162489777492  1.0000
  C   C47       1.0  0.5229447597409163  0.5420100054805628  0.08559431247461902  1.0000
  C   C48       1.0  0.4916262618074042  0.6103446350428142  0.0994720571234566  1.0000
  C   C49       1.0  0.4868293369763703  0.627502385389725  0.1409373004006369  1.0000
  C   C50       1.0  0.511693774906547  0.574427977907412  0.1701564507411035  1.0000
  C   C51       1.0  0.5429592684952665  0.5054574160010362  0.15695453554941002  1.0000
  C   C52       1.0  0.5483658149669282  0.4904452108283906  0.11541674946394663  1.0000
  C   C53       1.0  0.5031867615503458  0.5853681857184653  0.21279605627704265  1.0000
  C   C54       1.0  0.49672395154016163  0.5848037878303599  0.2498677761764654  1.0000
  C   C55       1.0  0.4886979151961484  0.5731507476162747  0.2924509752457212  1.0000
  C   C56       1.0  0.4590910520960705  0.5035532349138025  0.30543520960038256  1.0000
  C   C57       1.0  0.4543872594679215  0.48816786558892744  0.3469420242957568  1.0000
  C   C58       1.0  0.47877690924647726  0.5399901235051273  0.3769147238658164  1.0000
  C   C59       1.0  0.5084311810877438  0.6089265400694472  0.3632431507673388  1.0000
  C   C60       1.0  0.5126044340203749  0.6264289741080588  0.32184269764183443  1.0000
  C   C61       1.0  0.7660633687786741  0.5408274839668223  0.9399140121839551  1.0000
  C   C62       1.0  0.8474781839228387  0.5470219476872201  0.9422227792424209  1.0000
  C   C63       1.0  0.8890983784705356  0.5015777896054772  0.970154326568249  1.0000
  C   C64       1.0  0.8464556574891944  0.4519193239934934  0.9944624099729752  1.0000
  C   C65       1.0  0.765111307682581  0.4499120011624456  0.9897650065979349  1.0000
  C   C66       1.0  0.9720162808087098  0.5043174848388858  0.9729168761021472  1.0000
  C   C67       1.0  0.043514723140639006  0.5048426847923649  0.974194373991665  1.0000
  C   C68       1.0  0.1265199712936607  0.5043192127107048  0.9734286272726893  1.0000
  C   C69       1.0  0.165701298496451  0.5364753731597743  0.940407286594514  1.0000
  C   C70       1.0  0.24726252394341944  0.5326597617037334  0.9398814405293693  1.0000
  C   C71       1.0  0.2530341777305268  0.4692990682379232  0.0011738324485080004  1.0000
  C   C72       1.0  0.17160443794981717  0.4702887597345935  0.0045781198155197  1.0000
  C   C73       1.0  0.5116438012690523  0.7237548333928459  0.9570007919699395  1.0000
  C   C74       1.0  0.4644140232867358  0.771720924944141  0.9327943282869031  1.0000
  C   C75       1.0  0.470284156436648  0.849435610228802  0.9350131607649105  1.0000
  C   C76       1.0  0.5245427711350885  0.8826775555634325  0.9623879713934542  1.0000
  C   C77       1.0  0.574631719832027  0.8362962140383559  0.9857454824321721  1.0000
  C   C78       1.0  0.5687428049700499  0.7584953351700605  0.9824285354695519  1.0000
  C   C79       1.0  0.5265215349165899  0.9620059769756393  0.9660612785933012  1.0000
  C   C80       1.0  0.522190126339588  0.03022748709719279  0.9682691182144865  1.0000
  C   C81       1.0  0.5145338766941521  0.10951801397363428  0.9694886245875909  1.0000
  C   C82       1.0  0.491375879852626  0.14640820982410932  0.005401675383765801  1.0000
  C   C83       1.0  0.48217017370700443  0.22410997818359138  0.0052852248403568005  1.0000
  C   C84       1.0  0.49610908515634833  0.26751247784363835  0.970435234507022  1.0000
  C   C85       1.0  0.5194162960363898  0.22945770777195656  0.9350087741918645  1.0000
  C   C86       1.0  0.5283842911073792  0.15186451684868982  0.9340675167589583  1.0000
  N   N1        1.0  0.27620118833727497  0.4924322567340481  0.49875667107696137  1.0000
  N   N2        1.0  0.7087347896950149  0.49635490311042213  0.4939582293778458  1.0000
  N   N3        1.0  0.7241804054677843  0.4937066306801651  0.9632915540240177  1.0000
  N   N4        1.0  0.29153476006933954  0.4999962317052109  0.9695597020097113  1.0000
  Cl  Cl1       1.0  0.28358084821548607  0.5932751487546923  0.5578043360087224  1.0000
  Cl  Cl2       1.0  0.2857356675227721  0.3886901794638787  0.4418140277394543  1.0000
  Cl  Cl3       1.0  0.7052997839933752  0.567098055579045  0.564409011513753  1.0000
  Cl  Cl4       1.0  0.6951024655301126  0.4210707613621664  0.42478884774217823  1.0000
  Cl  Cl5       1.0  0.6045985978318599  0.7334633570995096  0.564370928253915  1.0000
  Cl  Cl6       1.0  0.3648422159752585  0.7035120923681575  0.4520074550022529  1.0000
  Cl  Cl7       1.0  0.545190860105528  0.2642851183934737  0.4122557423604718  1.0000
  Cl  Cl8       1.0  0.4614208597778031  0.2781225204905553  0.5712298550036436  1.0000
  Cl  Cl9       1.0  0.4556908546832262  0.6752930402715123  0.0646435850337852  1.0000
  Cl  Cl10      1.0  0.5833570570945454  0.40329553021088316  0.1008342687939248  1.0000
  Cl  Cl11      1.0  0.4213151431335689  0.40043524306607736  0.3613468651330081  1.0000
  Cl  Cl12      1.0  0.5428536681827935  0.6743001877010001  0.39832690016973527  1.0000
  Cl  Cl13      1.0  0.7170414828419281  0.5958351102394059  0.9051306793036531  1.0000
  Cl  Cl14      1.0  0.7144924049408631  0.38790348763276933  0.018847578301738104  1.0000
  Cl  Cl15      1.0  0.2938590057376729  0.570454057014352  0.8991579868061237  1.0000
  Cl  Cl16      1.0  0.30638929784574026  0.4258732866960955  0.0389000093745651  1.0000
  Cl  Cl17      1.0  0.39777941450942933  0.7353772165865279  0.8974793880986454  1.0000
  Cl  Cl18      1.0  0.6339154130097526  0.7061731611509786  0.0118704320201815  1.0000
  Cl  Cl19      1.0  0.454466944485624  0.2680488848434521  0.050094886609287  1.0000
  Cl  Cl20      1.0  0.5376468747707435  0.27968169077735167  0.8909978338623361  1.0000
  Cl  Cl21      1.0  0.6364343008158356  0.3975273140663588  0.619443224258255  1.0000
  Cl  Cl22      1.0  0.3621941934110779  0.4007642835181926  0.8433205937547968  1.0000
  O   O1        1.0  0.5671197039431206  0.611326148003421  0.5002506761123515  1.0000
  O   O2        1.0  0.43729037243247143  0.5995292602958741  0.5132216040808047  1.0000
  O   O3        1.0  0.41631737367885796  0.46640555005669865  0.5605297080454508  1.0000
  O   O4        1.0  0.5478739107568416  0.48495762667860726  0.5571539513486597  1.0000
  O   O5        1.0  0.4429425267210831  0.3830185350325052  0.4876662543509269  1.0000
  O   O6        1.0  0.5759359186558441  0.3786873269480039  0.4945595927442668  1.0000
  O   O7        1.0  0.5435549404103313  0.5058146327350881  0.4379092674017144  1.0000
  O   O8        1.0  0.41087782817573537  0.5196488003005584  0.43874690595529137  1.0000
  O   O9        1.0  0.4332321566041841  0.6142517059252127  0.9625634990611547  1.0000
  O   O10       1.0  0.5631870342383464  0.6018469875684003  0.9498321303182211  1.0000
  O   O11       1.0  0.5832463972580867  0.46923425956779835  0.9016876210480973  1.0000
  O   O12       1.0  0.4516486875229262  0.48759993977514415  0.9055114226321879  1.0000
  O   O13       1.0  0.5564139686786689  0.3853126498237245  0.9741256502854654  1.0000
  O   O14       1.0  0.4232848952336071  0.38171260213769637  0.9680328226016144  1.0000
  O   O15       1.0  0.4583001205826349  0.5083814078690947  0.0245293302912373  1.0000
  O   O16       1.0  0.5910422844291076  0.5210061660208323  0.023748276496427  1.0000
