data_image0
_chemical_formula_structural       Tb2Co2H32C32N20O12
_chemical_formula_sum              "Tb2 Co2 H32 C32 N20 O12"
_cell_length_a       10.096259095429575
_cell_length_b       10.587559073579454
_cell_length_c       12.400471116326207
_cell_angle_alpha    73.69638895823738
_cell_angle_beta     75.55624539481528
_cell_angle_gamma    70.98552539995265

_space_group_name_H-M_alt    "P 1"
_space_group_IT_number       1

loop_
  _space_group_symop_operation_xyz
  'x, y, z'

loop_
  _atom_site_type_symbol
  _atom_site_label
  _atom_site_symmetry_multiplicity
  _atom_site_fract_x
  _atom_site_fract_y
  _atom_site_fract_z
  _atom_site_occupancy
  Tb  Tb1       1.0  0.4069297529901306  0.31100218584118977  0.28812640639744563  1.0000
  Tb  Tb2       1.0  0.5930673259892316  0.688994160729976  0.7118774272865593  1.0000
  Co  Co1       1.0  0.3360341856470015  0.2964706018482772  0.7390790326136809  1.0000
  Co  Co2       1.0  0.6639655502441145  0.7035339678933641  0.26091901702513093  1.0000
  H   H1        1.0  0.2884497938639825  0.7566420368563841  0.540728921315285  1.0000
  H   H2        1.0  0.7115430048929453  0.24337177111093666  0.4592746681898846  1.0000
  H   H3        1.0  0.3272386934591437  0.9041152256241531  0.030850899622535597  1.0000
  H   H4        1.0  0.6727598464215632  0.09586586120129681  0.9691660953119198  1.0000
  H   H5        1.0  0.1331257501582926  0.5155974533429272  0.08368186885262222  1.0000
  H   H6        1.0  0.8668705532347545  0.4843915503579197  0.9163150619035534  1.0000
  H   H7        1.0  0.4750079257909617  0.6560908996246512  0.0717724902402495  1.0000
  H   H8        1.0  0.5249920753413235  0.3438890276107359  0.9282340180205113  1.0000
  H   H9        1.0  0.016685553009693897  0.6816909997305202  0.29624988300308536  1.0000
  H   H10       1.0  0.9833168963682225  0.31831467846244277  0.7037497756009117  1.0000
  H   H11       1.0  0.36697307223158754  0.5465762557816946  0.4565961609388438  1.0000
  H   H12       1.0  0.6330257023752993  0.45343461198855545  0.5434101998147228  1.0000
  H   H13       1.0  0.9721900083505802  0.7577857143506322  0.036942705504543434  1.0000
  H   H14       1.0  0.027806302708469812  0.24220647016932867  0.9630598893850788  1.0000
  H   H15       1.0  0.9224359286342364  0.8974093892688301  0.3723384796091196  1.0000
  H   H16       1.0  0.0775605552119316  0.10259921736823692  0.6276576021189016  1.0000
  H   H17       1.0  0.4182475801439338  0.08463106543123192  0.18048011940362577  1.0000
  H   H18       1.0  0.581749493851426  0.9153723370942471  0.8195122931320997  1.0000
  H   H19       1.0  0.36164279777813135  0.22593316253247758  0.0973852112554212  1.0000
  H   H20       1.0  0.6383515600782346  0.7740723241137601  0.9026120620761307  1.0000
  H   H21       1.0  0.7218674222390221  0.2572978155255966  0.2432696138539825  1.0000
  H   H22       1.0  0.27813381352429184  0.7427087401861883  0.7567211963618448  1.0000
  H   H23       1.0  0.7073659805446368  0.10733953903878303  0.24979083431550464  1.0000
  H   H24       1.0  0.29263643021265284  0.8926629935939802  0.7502055770377825  1.0000
  H   H25       1.0  0.40442987068224306  0.0061415797510094  0.36467207173106436  1.0000
  H   H26       1.0  0.5955514376917035  0.9938666721433191  0.6353198397214471  1.0000
  H   H27       1.0  0.38917612869126117  0.0564867459479075  0.4771207710699272  1.0000
  H   H28       1.0  0.6109411612889488  0.9434602460062748  0.5228787535196631  1.0000
  H   H29       1.0  0.16826775221111487  0.2056724191789172  0.28788815442769083  1.0000
  H   H30       1.0  0.831724098202187  0.7943310531464789  0.7121157580574433  1.0000
  H   H31       1.0  0.08590308561313255  0.35464490657791004  0.3117762825111043  1.0000
  H   H32       1.0  0.9140928520088776  0.6453656645868051  0.6882137761378716  1.0000
  C   C1        1.0  0.3793704733858759  0.2983351663347449  0.584281006747311  1.0000
  C   C2        1.0  0.6206372148762965  0.7016633743510213  0.4157177674279851  1.0000
  C   C3        1.0  0.5861030301520387  0.5620616526359329  0.27514825040262997  1.0000
  C   C4        1.0  0.4138956492293815  0.43793975494777015  0.7248467573436413  1.0000
  C   C5        1.0  0.28990393118089497  0.28590712342264624  0.8960894861441633  1.0000
  C   C6        1.0  0.7100893984681845  0.71409835837882  0.10390879817314415  1.0000
  C   C7        1.0  0.36342172287861263  0.6870255486009711  0.06471444817432104  1.0000
  C   C8        1.0  0.6365757245537862  0.3129594672797608  0.9352905006020508  1.0000
  C   C9        1.0  0.5103733881689222  0.1655206980944399  0.7508488455430397  1.0000
  C   C10       1.0  0.48962085883936607  0.8344817252623713  0.24915081993084703  1.0000
  C   C11       1.0  0.2708739950774016  0.6281157065043318  0.44243962186381225  1.0000
  C   C12       1.0  0.7291219166037874  0.3719012733104705  0.5575649875623725  1.0000
  C   C13       1.0  0.2616698663222508  0.15007173458958786  0.7570507365836435  1.0000
  C   C14       1.0  0.7383351573919581  0.8499288314520969  0.24294887024959166  1.0000
  C   C15       1.0  0.16489467400336363  0.43196872201843217  0.7202439352891403  1.0000
  C   C16       1.0  0.8351045646024244  0.5680409460580833  0.27975053289375756  1.0000
  C   C17       1.0  0.2250127881240046  0.7434458417999892  0.48748254608045744  1.0000
  C   C18       1.0  0.7749803508133511  0.2565669075092245  0.5125188183849759  1.0000
  C   C19       1.0  0.13822514181274656  0.8496524306709363  0.03195225623325365  1.0000
  C   C20       1.0  0.8617735708252853  0.15033164892612658  0.9680575127934008  1.0000
  C   C21       1.0  0.0986124496028893  0.8427955929193016  0.46379532659764783  1.0000
  C   C22       1.0  0.9013799909894045  0.1572161046399998  0.5362056294413833  1.0000
  C   C23       1.0  0.16736796188650516  0.6071038000833938  0.06958647764904669  1.0000
  C   C24       1.0  0.8326312430528516  0.39288223713310805  0.9304154516852281  1.0000
  C   C25       1.0  0.2809147993620939  0.8209786459722326  0.04170782121258296  1.0000
  C   C26       1.0  0.7190805400647092  0.1790064189838034  0.9583031776731873  1.0000
  C   C27       1.0  0.08248969128035084  0.7394032656310828  0.044375068865448966  1.0000
  C   C28       1.0  0.9175094620679758  0.26058283035026614  0.9556308886067131  1.0000
  C   C29       1.0  0.06963734403823439  0.7071366240576468  0.35013577425026904  1.0000
  C   C30       1.0  0.9303655537159727  0.2928742513387022  0.6498657369326966  1.0000
  C   C31       1.0  0.02060213225853144  0.8225120990076036  0.3936667147789522  1.0000
  C   C32       1.0  0.979401007798437  0.17749145011615752  0.6063276881180004  1.0000
  N   N1        1.0  0.3055099372565663  0.5822109900732855  0.08101228399626592  1.0000
  N   N2        1.0  0.6944862140155763  0.4177749973500085  0.9189902614125529  1.0000
  N   N3        1.0  0.19364036933988155  0.6111988410392328  0.37440118249960364  1.0000
  N   N4        1.0  0.8063650924324148  0.3888069339588114  0.6256010825401718  1.0000
  N   N5        1.0  0.4071240839309239  0.29132510892848984  0.4881830610074047  1.0000
  N   N6        1.0  0.5928956771974327  0.7086706028995877  0.511818057894793  1.0000
  N   N7        1.0  0.5398408736286483  0.47201045954791  0.2801623451634185  1.0000
  N   N8        1.0  0.4601572878310306  0.5279960698766074  0.7198306923821036  1.0000
  N   N9        1.0  0.05865043089720954  0.9574161076645994  0.5115676419115401  1.0000
  N   N10       1.0  0.9413402521881196  0.0425945685589255  0.488436333569581  1.0000
  N   N11       1.0  0.06199799790109485  0.5223701485710208  0.7070271214326029  1.0000
  N   N12       1.0  0.9380025678195737  0.47763851270401864  0.2929673332351115  1.0000
  N   N13       1.0  0.6175381284146084  0.0771772020849468  0.7503527596469723  1.0000
  N   N14       1.0  0.382453992603878  0.922822101281028  0.24964809743044464  1.0000
  N   N15       1.0  0.2270118329487474  0.05231882756939401  0.7637123425844339  1.0000
  N   N16       1.0  0.7729933994613988  0.9476776400306832  0.23628904260655764  1.0000
  N   N17       1.0  0.26133821044570726  0.2814794079673605  0.9945084297913953  1.0000
  N   N18       1.0  0.7386508595875654  0.7185300823788338  0.00548728634573345  1.0000
  N   N19       1.0  0.059584472344844944  0.9883415398422104  0.01436729330616515  1.0000
  N   N20       1.0  0.9404152864846792  0.011645713665757298  0.9856463232406016  1.0000
  O   O1        1.0  0.42630857416924783  0.17975097599046563  0.1556212297435025  1.0000
  O   O2        1.0  0.5736863738363098  0.8202493065441843  0.8443723743957535  1.0000
  O   O3        1.0  0.38243842451564797  0.4545191965350457  0.1086945084682043  1.0000
  O   O4        1.0  0.6175549926332876  0.5454657059428669  0.8913080392305731  1.0000
  O   O5        1.0  0.23344815901899102  0.5036812693627155  0.32997959100466556  1.0000
  O   O6        1.0  0.7665518834457289  0.49632546955179185  0.6700251202381652  1.0000
  O   O7        1.0  0.6548846272681885  0.2028209241063124  0.2631392600663817  1.0000
  O   O8        1.0  0.34511645637422106  0.7971826153279267  0.7368571648020819  1.0000
  O   O9        1.0  0.1761465136376898  0.27650154844241104  0.319712038272165  1.0000
  O   O10       1.0  0.8238471588738252  0.723513111474368  0.6802782639905729  1.0000
  O   O11       1.0  0.42896358731796624  0.0700729239809093  0.3959452376889274  1.0000
  O   O12       1.0  0.5710255912315813  0.9299434930369516  0.604030195396561  1.0000
