data_image0
_chemical_formula_structural       Cu8H48C36S4N16
_chemical_formula_sum              "Cu8 H48 C36 S4 N16"
_cell_length_a       6.830690263
_cell_length_b       12.46429197659714
_cell_length_c       13.76
_cell_angle_alpha    90.0
_cell_angle_beta     90.0
_cell_angle_gamma    97.31578496863884

_space_group_name_H-M_alt    "P 1"
_space_group_IT_number       1

loop_
  _space_group_symop_operation_xyz
  'x, y, z'

loop_
  _atom_site_type_symbol
  _atom_site_label
  _atom_site_symmetry_multiplicity
  _atom_site_fract_x
  _atom_site_fract_y
  _atom_site_fract_z
  _atom_site_occupancy
  Cu  Cu1       1.0  0.9113304628595882  0.9640239880623158  0.1136686046511599  1.0000
  Cu  Cu2       1.0  0.5886680384884924  0.5359826675765831  0.6136656976744208  1.0000
  Cu  Cu3       1.0  0.08866684648700128  0.0359731691408598  0.8863357558139526  1.0000
  Cu  Cu4       1.0  0.4113388065443785  0.4640177251330044  0.3863379360465089  1.0000
  Cu  Cu5       1.0  0.7442552941996324  0.9139925435708349  0.8291831395348837  1.0000
  Cu  Cu6       1.0  0.7557564916846786  0.586001978919036  0.3291809593023274  1.0000
  Cu  Cu7       1.0  0.2557469709403363  0.0860070402621531  0.17081686046511635  1.0000
  Cu  Cu8       1.0  0.24424539755482033  0.4139959871607459  0.6708168604651165  1.0000
  H   H1        1.0  0.5954518858734373  0.7836226660471797  0.6945552325581374  1.0000
  H   H2        1.0  0.9045471397043554  0.7163799452087147  0.1945588662790669  1.0000
  H   H3        1.0  0.40454234718215076  0.2163801532922207  0.3054418604651161  1.0000
  H   H4        1.0  0.09545478915614318  0.28362449188389155  0.8054440406976724  1.0000
  H   H5        1.0  0.7408339456060062  0.9062176216680626  0.6406918604651182  1.0000
  H   H6        1.0  0.7591687597345143  0.5937882250942437  0.1406889534883717  1.0000
  H   H7        1.0  0.25917515482970527  0.0937924775607613  0.3593110465116283  1.0000
  H   H8        1.0  0.2408331691259917  0.4062162119983627  0.8593117732558113  1.0000
  H   H9        1.0  0.039122645922482456  0.8675120673641104  0.7256359011627893  1.0000
  H   H10       1.0  0.4608751421273566  0.6324913527683833  0.22563226744185982  1.0000
  H   H11       1.0  0.9608792829380233  0.13249236972848882  0.2743691860465134  1.0000
  H   H12       1.0  0.539128062763794  0.3675122754476163  0.7743670058139572  1.0000
  H   H13       1.0  0.7687131554775914  0.680637305899552  0.8248161337209297  1.0000
  H   H14       1.0  0.731282378287716  0.8193628787265368  0.3248168604651198  1.0000
  H   H15       1.0  0.23128362963930013  0.31936389568664236  0.1751831395348802  1.0000
  H   H16       1.0  0.2687187987718431  0.1806383228596573  0.6751853197674436  1.0000
  H   H17       1.0  0.95865589586014  0.6538287086644701  0.7450748546511649  1.0000
  H   H18       1.0  0.5413414777865241  0.8461730937148177  0.2450755813953478  1.0000
  H   H19       1.0  0.04134235323763848  0.346172492921724  0.254923691860462  1.0000
  H   H20       1.0  0.4586615391543915  0.15382972562458264  0.7549244186046522  1.0000
  H   H21       1.0  0.1870686394388343  0.6874270161005358  0.8545050872093043  1.0000
  H   H22       1.0  0.3129318886225504  0.8125755951553588  0.3545065406976775  1.0000
  H   H23       1.0  0.8129261178464589  0.31257175885585303  0.1454941860465127  1.0000
  H   H24       1.0  0.6870696643374783  0.1874272241840416  0.6454941860465127  1.0000
  H   H25       1.0  0.1949284983625788  0.8407989175681223  0.0736184593023239  1.0000
  H   H26       1.0  0.3050725539285041  0.6591996493047534  0.5736170058139507  1.0000
  H   H27       1.0  0.8050698990644348  0.15919662188185413  0.9263822674418591  1.0000
  H   H28       1.0  0.6949330150737153  0.34080155228144093  0.4263815406976761  1.0000
  H   H29       1.0  0.49632004981039285  0.7821553638903325  0.05271656976744051  1.0000
  H   H30       1.0  0.003676986438499319  0.7178448207357564  0.5527172965116307  1.0000
  H   H31       1.0  0.5036739556739532  0.21784017555964405  0.9472812500000034  1.0000
  H   H32       1.0  0.9963285825637198  0.2821563808504379  0.4472841569767426  1.0000
  H   H33       1.0  0.4410299425265832  0.7548177613572449  0.9305225290697692  1.0000
  H   H34       1.0  0.058965817691657166  0.7451832321454362  0.43052034883720586  1.0000
  H   H35       1.0  0.5589688308009001  0.24517939584593051  0.069478197674421  1.0000
  H   H36       1.0  0.9410318675554092  0.2548155428109453  0.569478924418604  1.0000
  H   H37       1.0  0.4983685634714944  0.5838867666036195  0.0069578488372102  1.0000
  H   H38       1.0  0.001634328700951873  0.9161134180224623  0.506956395348837  1.0000
  H   H39       1.0  0.5016349776991262  0.4161120083527622  0.993043604651163  1.0000
  H   H40       1.0  0.998360428584341  0.08388535693391933  0.4930428779069801  1.0000
  H   H41       1.0  0.07436398224891146  0.5925789545735755  0.0815770348837219  1.0000
  H   H42       1.0  0.425638534023065  0.9074196122993075  0.581577761627905  1.0000
  H   H43       1.0  0.9256338513273902  0.40741415824659555  0.9184200581395316  1.0000
  H   H44       1.0  0.5743613670058423  0.09258239816349352  0.4184171511627923  1.0000
  H   H45       1.0  0.2098863171121934  0.472964709232727  0.07597674418604332  1.0000
  H   H46       1.0  0.29011517154776095  0.027033464930561007  0.575973837209304  1.0000
  H   H47       1.0  0.7901144444258816  0.527028403587437  0.9240225290697667  1.0000
  H   H48       1.0  0.709886193462026  0.9729685455322326  0.4240225290697666  1.0000
  C   C1        1.0  0.6615593967074458  0.0124291978732813  0.1326758720930243  1.0000
  C   C2        1.0  0.83843698894821  0.487578682809236  0.6326606104651162  1.0000
  C   C3        1.0  0.33844069227169626  0.9875736214661119  0.8673255813953489  1.0000
  C   C4        1.0  0.16156933185495595  0.5124257542833703  0.36734156976744  1.0000
  C   C5        1.0  0.0740050799033369  0.9165243273365109  0.21268095930232536  1.0000
  C   C6        1.0  0.4259929255629515  0.5834548264979134  0.7126838662790718  1.0000
  C   C7        1.0  0.9260024376884671  0.08346635885385473  0.7873161337209282  1.0000
  C   C8        1.0  0.5740006643999109  0.41653262418604003  0.2873154069767452  1.0000
  C   C9        1.0  0.7310243183182196  0.8402788099127465  0.693278343023259  1.0000
  C   C10       1.0  0.7689739950796264  0.659727036849553  0.19327543604651257  1.0000
  C   C11       1.0  0.26898035055381797  0.1597248183032534  0.30672311046511425  1.0000
  C   C12       1.0  0.23103194982306258  0.3402757824898472  0.8067267441860438  1.0000
  C   C13       1.0  0.8984513915257037  0.8185499577410696  0.7417877906976713  1.0000
  C   C14       1.0  0.6015463580214372  0.6814534623914243  0.241784883720932  1.0000
  C   C15       1.0  0.10155252554539371  0.18145043496851807  0.258215116279068  1.0000
  C   C16       1.0  0.398453730957705  0.31854935694797604  0.7582180232558146  1.0000
  C   C17       1.0  0.9133796272476218  0.7144847473291662  0.7956627906976763  1.0000
  C   C18       1.0  0.5866190224297014  0.7855162461735219  0.2956627906976763  1.0000
  C   C19       1.0  0.08661862185015677  0.2855164542570279  0.2043364825581406  1.0000
  C   C20       1.0  0.41338527054186597  0.21448576428927882  0.7043379360465138  1.0000
  C   C21       1.0  0.060813303728181695  0.7857014789154847  0.9507151162790706  1.0000
  C   C22       1.0  0.4391841084211875  0.7143003234638102  0.4507143895348804  1.0000
  C   C23       1.0  0.9391845694691269  0.2142981049175035  0.0492848837209294  1.0000
  C   C24       1.0  0.5608187205694932  0.2857016869989906  0.5492841569767464  1.0000
  C   C25       1.0  0.3838326809334162  0.7390244456943691  0.0047957848837186  1.0000
  C   C26       1.0  0.11616416736523409  0.7609749300551131  0.5047950581395355  1.0000
  C   C27       1.0  0.616161176221695  0.26097675589182506  0.9952042151162814  1.0000
  C   C28       1.0  0.8838389979049095  0.23902222714806245  0.4952049418604645  1.0000
  C   C29       1.0  0.3653206583001065  0.6198947174383919  0.025134447674418005  1.0000
  C   C30       1.0  0.13468167002162798  0.8801030405578844  0.5251337209302349  1.0000
  C   C31       1.0  0.6346817551690974  0.3800992042583787  0.974865552325582  1.0000
  C   C32       1.0  0.8653180430570371  0.11989816102830281  0.4748662790697651  1.0000
  C   C33       1.0  0.20880542923842424  0.5589644696054634  0.0624360465116283  1.0000
  C   C34       1.0  0.29120020294556065  0.9410349061440186  0.5624360465116283  1.0000
  C   C35       1.0  0.7911999121925533  0.4410294520913071  0.9375610465116253  1.0000
  C   C36       1.0  0.7087998860335816  0.0589679131953815  0.4375610465116253  1.0000
  S   S1        1.0  0.8692770987113647  0.8621427444770335  0.9732870639534854  1.0000
  S   S2        1.0  0.6307296226713461  0.6378614845320598  0.4732863372093021  1.0000
  S   S3        1.0  0.13072223846683068  0.13785683935595472  0.0267136627906979  1.0000
  S   S4        1.0  0.3692792501931307  0.3621413348073332  0.5267129360465148  1.0000
  N   N1        1.0  0.5028879691668064  0.036689024934034406  0.1456002906976721  1.0000
  N   N2        1.0  0.9971037573539404  0.4633051048462421  0.645599563953489  1.0000
  N   N3        1.0  0.4971067881184865  0.9633097500223543  0.8544018895348842  1.0000
  N   N4        1.0  0.0028995958664452966  0.5366928612335401  0.3543975290697645  1.0000
  N   N5        1.0  0.13921431654709684  0.8722092137945552  0.2787412790697701  1.0000
  N   N6        1.0  0.3607831352232722  0.6277990595975567  0.7787420058139534  1.0000
  N   N7        1.0  0.8607916283555994  0.127793605544845  0.7212601744186031  1.0000
  N   N8        1.0  0.6391933421114118  0.37220295086524413  0.22125726744186386  1.0000
  N   N9        1.0  0.06367017140361497  0.7249548460713129  0.8715995639534881  1.0000
  N   N10       1.0  0.4363268648452773  0.7750453385547758  0.3715988372093052  1.0000
  N   N11       1.0  0.9363243979314431  0.27504312000847625  0.1283997093023288  1.0000
  N   N12       1.0  0.5636732241338578  0.2249574807846244  0.6284011627906949  1.0000
  N   N13       1.0  0.20464857214977164  0.7888795550865169  0.0169636627907011  1.0000
  N   N14       1.0  0.2953480881986436  0.7111190117863657  0.5169622093023278  1.0000
  N   N15       1.0  0.7953516651585985  0.21111760211666564  0.9830370639534891  1.0000
  N   N16       1.0  0.7046529009106733  0.28888138092322896  0.48303706395348917  1.0000
