data_image0
_chemical_formula_structural       Zn2H28C26N8Cl4O2
_chemical_formula_sum              "Zn2 H28 C26 N8 Cl4 O2"
_cell_length_a       4.609205750000696
_cell_length_b       12.0851900239013
_cell_length_c       13.64814626086937
_cell_angle_alpha    107.081607577713
_cell_angle_beta     90.00000138973667
_cell_angle_gamma    89.99993949136748

_space_group_name_H-M_alt    "P 1"
_space_group_IT_number       1

loop_
  _space_group_symop_operation_xyz
  'x, y, z'

loop_
  _atom_site_type_symbol
  _atom_site_label
  _atom_site_symmetry_multiplicity
  _atom_site_fract_x
  _atom_site_fract_y
  _atom_site_fract_z
  _atom_site_occupancy
  Zn  Zn1       1.0  0.45156270589679787  0.7499992012929014  0.7499999379356981  1.0000
  Zn  Zn2       1.0  0.5484368914323952  0.2499996461941763  0.25000020110375953  1.0000
  H   H1        1.0  0.18850406334674832  0.9695353215786471  0.7427974794377621  1.0000
  H   H2        1.0  0.18849599593522726  0.5304657942044103  0.7572023711531843  1.0000
  H   H3        1.0  0.8114998731236438  0.030464391552008904  0.2572028854757634  1.0000
  H   H4        1.0  0.8114970926779819  0.4695347854283228  0.24279748715780877  1.0000
  H   H5        1.0  0.839660919855632  0.03872362977124769  0.632310646910412  1.0000
  H   H6        1.0  0.8396560088766521  0.46127874281291537  0.8676905888508063  1.0000
  H   H7        1.0  0.1603430166112432  0.9612786794378252  0.36769112810349475  1.0000
  H   H8        1.0  0.16033924930660248  0.5387227016086981  0.13231022781182133  1.0000
  H   H9        1.0  0.6755164698144043  0.8966925589320596  0.4660293379657079  1.0000
  H   H10       1.0  0.6755146799639034  0.6033094626014446  0.033971453429444416  1.0000
  H   H11       1.0  0.3244852970812317  0.10330975113265593  0.533971704570867  1.0000
  H   H12       1.0  0.32448274779054026  0.3966919818196999  0.9660293632330624  1.0000
  H   H13       1.0  0.2082693023051476  0.6395199583287834  0.5406723153572771  1.0000
  H   H14       1.0  0.20827119190002458  0.8604802831363328  0.9593273071367466  1.0000
  H   H15       1.0  0.7917302950216225  0.36048062130252134  0.45932754295334655  1.0000
  H   H16       1.0  0.7917305749991711  0.13951942999479883  0.040673057776899724  1.0000
  H   H17       1.0  0.026101284114901098  0.6119179011746924  0.36005081653875254  1.0000
  H   H18       1.0  0.0260987167208526  0.8880818074758353  0.13995010271963088  1.0000
  H   H19       1.0  0.9739004827843515  0.38808181110127293  0.6399502808523467  1.0000
  H   H20       1.0  0.973900880607161  0.11191790565577259  0.8600502621941434  1.0000
  H   H21       1.0  0.6827133372354054  0.6064938961395612  0.4140320821885057  1.0000
  H   H22       1.0  0.6827129173852526  0.8935063900920712  0.08596898912631457  1.0000
  H   H23       1.0  0.3172862600914641  0.3935066817814104  0.5859692410770239  1.0000
  H   H24       1.0  0.3172888495139929  0.10649332218389422  0.9140321082647848  1.0000
  H   H25       1.0  0.47854568927190394  0.7105723496847104  0.3111937356388809  1.0000
  H   H26       1.0  0.4785455718424744  0.789427161328099  0.188806400277123  1.0000
  H   H27       1.0  0.5214560776284783  0.2894264978018982  0.6888064034004561  1.0000
  H   H28       1.0  0.5214561950567215  0.21057255180303264  0.8111939646365232  1.0000
  C   C1        1.0  0.10793928137231748  0.9125230998245334  0.6708335354160656  1.0000
  C   C2        1.0  0.1079332344084705  0.5874763191585191  0.8291666049608682  1.0000
  C   C3        1.0  0.8920646550993043  0.0874757468064331  0.3291673361006034  1.0000
  C   C4        1.0  0.892059854205975  0.4125233939745173  0.17083375995326838  1.0000
  C   C5        1.0  0.9167987566594246  0.9495381146019997  0.6083502354459684  1.0000
  C   C6        1.0  0.9167884814432767  0.5504635464599802  0.8916504916203964  1.0000
  C   C7        1.0  0.0832095189510156  0.05046332896159811  0.3916513136933873  1.0000
  C   C8        1.0  0.0832046071687458  0.4495378988172761  0.10834959256489905  1.0000
  C   C9        1.0  0.8261433282003453  0.8706594365312769  0.516826731631838  1.0000
  C   C10       1.0  0.8261415239097758  0.629343129944914  0.9831742315000445  1.0000
  C   C11       1.0  0.1738584386952908  0.12934287353343882  0.4831743109047368  1.0000
  C   C12       1.0  0.1738559038434815  0.37065918012075383  0.01682681103677916  1.0000
  C   C13       1.0  0.9304803319816413  0.7572886320645579  0.4893966090580408  1.0000
  C   C14       1.0  0.9304824909489681  0.7427132776126157  0.010604153673298805  1.0000
  C   C15       1.0  0.0695192653439918  0.24271281235610334  0.5106042076043453  1.0000
  C   C16       1.0  0.06952144551899411  0.2572881676622671  0.9893959305113929  1.0000
  C   C17       1.0  0.12057294476295512  0.7270243080016814  0.5570118026089548  1.0000
  C   C18       1.0  0.1205729057987455  0.7729759736475543  0.9429863647892777  1.0000
  C   C19       1.0  0.8794266525649023  0.27297540769542655  0.4429863648724466  1.0000
  C   C20       1.0  0.8794288611003579  0.2270237411939107  0.05701253516945572  1.0000
  C   C21       1.0  0.8369762741962177  0.6654883440574652  0.39313349243926893  1.0000
  C   C22       1.0  0.8369781905168024  0.8345127401413279  0.10686778740716112  1.0000
  C   C23       1.0  0.1630233231306519  0.3345122338635065  0.6068678308262678  1.0000
  C   C24       1.0  0.16302574595243868  0.16548783777868442  0.8931335358581269  1.0000
  C   C25       1.0  0.8572681469081401  0.749996644386016  0.24999779115461254  1.0000
  C   C26       1.0  0.1427336199991842  0.2499970126540916  0.7499980627290557  1.0000
  N   N1        1.0  0.2056829534124986  0.8027846853429923  0.6457111117167574  1.0000
  N   N2        1.0  0.2056809439365423  0.6972146924682793  0.8542875527164858  1.0000
  N   N3        1.0  0.794318813487841  0.19721416299878314  0.3542882948451266  1.0000
  N   N4        1.0  0.7943164838213689  0.302784156729608  0.1457111213681871  1.0000
  N   N5        1.0  0.7000675888013888  0.7087721042680998  0.3163628581066506  1.0000
  N   N6        1.0  0.7000674657041656  0.7912273104157708  0.18363652042793197  1.0000
  N   N7        1.0  0.2999320085265751  0.2912276097186748  0.6836367743296636  1.0000
  N   N8        1.0  0.2999321316237912  0.2087724035710039  0.8163631120083823  1.0000
  Cl  Cl1       1.0  0.6507226101765154  0.9146065863579552  0.8508639180046916  1.0000
  Cl  Cl2       1.0  0.650720884943013  0.5853925953542785  0.6491354288736704  1.0000
  Cl  Cl3       1.0  0.3492769871526349  0.08539226198428912  0.14913548855731315  1.0000
  Cl  Cl4       1.0  0.3492765428148985  0.4146062538436156  0.3508632452110093  1.0000
  O   O1        1.0  0.1312493528925813  0.7499942067086566  0.2499971543419904  1.0000
  O   O2        1.0  0.8687502444518245  0.24999339167538887  0.7499963859441866  1.0000
