data_image0
_chemical_formula_structural       K2H76C52I2N4O12
_chemical_formula_sum              "K2 H76 C52 I2 N4 O12"
_cell_length_a       10.281790315608767
_cell_length_b       11.491638808744865
_cell_length_c       12.755056001265483
_cell_angle_alpha    84.72925789622289
_cell_angle_beta     79.82650714377885
_cell_angle_gamma    70.76794001065579

_space_group_name_H-M_alt    "P 1"
_space_group_IT_number       1

loop_
  _space_group_symop_operation_xyz
  'x, y, z'

loop_
  _atom_site_type_symbol
  _atom_site_label
  _atom_site_symmetry_multiplicity
  _atom_site_fract_x
  _atom_site_fract_y
  _atom_site_fract_z
  _atom_site_occupancy
  K   K1        1.0  0.8421937608958457  0.3910696329093212  0.9544003307774178  1.0000
  K   K2        1.0  0.1578010312443466  0.6089276718451586  0.045601602990828397  1.0000
  H   H1        1.0  0.023817925177354492  0.10347544233205498  0.06538304851042653  1.0000
  H   H2        1.0  0.9761840918282443  0.8965237356302537  0.9346153587881861  1.0000
  H   H3        1.0  0.9706086469560303  0.8780810877343228  0.4150191601749996  1.0000
  H   H4        1.0  0.02938246927489979  0.1219235925515818  0.5849787670104264  1.0000
  H   H5        1.0  0.8746506966629397  0.1076609657607506  0.4034964401558129  1.0000
  H   H6        1.0  0.1253427315351558  0.8923427995393425  0.5965004515919292  1.0000
  H   H7        1.0  0.24571294128841722  0.9793690665936547  0.993744137672792  1.0000
  H   H8        1.0  0.7542897469998168  0.0206282664319843  0.0062558943504526935  1.0000
  H   H9        1.0  0.26928914510904894  0.8449173196055995  0.9215951036200071  1.0000
  H   H10       1.0  0.7307132289147091  0.1550781652160893  0.07840590861215449  1.0000
  H   H11       1.0  0.47863537604155937  0.8290655816306368  0.009072061827303933  1.0000
  H   H12       1.0  0.5213649976636816  0.17093266590681813  0.990930574049344  1.0000
  H   H13       1.0  0.36920855623483806  0.8436826935623999  0.13557261865287276  1.0000
  H   H14       1.0  0.6307914805211822  0.1563164762063991  0.8644299890693149  1.0000
  H   H15       1.0  0.4723820849688209  0.6687686488113015  0.20376294702105474  1.0000
  H   H16       1.0  0.5276199268051373  0.3312305282030294  0.796238597108989  1.0000
  H   H17       1.0  0.6009111284013355  0.5947939811354317  0.0982549346305746  1.0000
  H   H18       1.0  0.3990908833726223  0.40520519587889925  0.9017466094994689  1.0000
  H   H19       1.0  0.4850078906256811  0.436120556400283  0.09399278333010135  1.0000
  H   H20       1.0  0.5149934660108499  0.5638776939304647  0.9060120654779812  1.0000
  H   H21       1.0  0.5270208069407332  0.4406309716342348  0.22207513386540262  1.0000
  H   H22       1.0  0.47297790470314277  0.5593691166246372  0.7779283696023287  1.0000
  H   H23       1.0  0.350983410074832  0.5094686819140719  0.3603719180753515  1.0000
  H   H24       1.0  0.6490169156450921  0.490535106019969  0.6396302694902687  1.0000
  H   H25       1.0  0.18457869583168218  0.5062651144929831  0.3415168761003145  1.0000
  H   H26       1.0  0.815421315623766  0.4937368252371142  0.6584862916742227  1.0000
  H   H27       1.0  0.15495951041626918  0.7039280797279658  0.4061019733431763  1.0000
  H   H28       1.0  0.8450418047744891  0.2960757121843329  0.5938985061145774  1.0000
  H   H29       1.0  0.28974736884300967  0.7306127815983956  0.3065721349028011  1.0000
  H   H30       1.0  0.7102516662207066  0.26938915652338113  0.6934248989010003  1.0000
  H   H31       1.0  0.7811695103592554  0.4860067692063906  0.231892151188312  1.0000
  H   H32       1.0  0.2188308458928816  0.5139942497143223  0.768106339493521  1.0000
  H   H33       1.0  0.7507352103064732  0.421251890175263  0.4703060983816345  1.0000
  H   H34       1.0  0.24926779486205672  0.578747291528309  0.5296913850169676  1.0000
  H   H35       1.0  0.6429939030941442  0.4077111610300506  0.38144823327053967  1.0000
  H   H36       1.0  0.35700712574853105  0.5922880131909948  0.6185510979280766  1.0000
  H   H37       1.0  0.5575364936970004  0.6354227806351317  0.3515614289524437  1.0000
  H   H38       1.0  0.4424645338377642  0.3645763933489121  0.6484386864540284  1.0000
  H   H39       1.0  0.5325992430872262  0.6001874151435584  0.4896141140561739  1.0000
  H   H40       1.0  0.4674031069438697  0.39981083987642996  0.5103866740204738  1.0000
  H   H41       1.0  0.634321476608342  0.77316429448733  0.447803152061873  1.0000
  H   H42       1.0  0.3656798878756434  0.22683395726537728  0.5521969914990521  1.0000
  H   H43       1.0  0.7499887663967186  0.6449860133081485  0.5068773739735593  1.0000
  H   H44       1.0  0.2500125980872667  0.35501223844455865  0.49312276958737317  1.0000
  H   H45       1.0  0.8786437749497579  0.7275465041102436  0.3516345854189213  1.0000
  H   H46       1.0  0.1213579011828898  0.27245359537242547  0.6483661463488062  1.0000
  H   H47       1.0  0.7691376684170024  0.7092170751282865  0.2665365613394784  1.0000
  H   H48       1.0  0.2308636733822382  0.2907839470597082  0.7334625738580699  1.0000
  H   H49       1.0  0.9897942271659232  0.5332156480053241  0.25066517514432013  1.0000
  H   H50       1.0  0.01020778853176555  0.4667835297199828  0.7493340163621484  1.0000
  H   H51       1.0  0.9634866235136169  0.5038366067504398  0.3908921694773967  1.0000
  H   H52       1.0  0.03651276856825091  0.49616163823071696  0.6091074692599606  1.0000
  H   H53       1.0  0.2599143923714847  0.1622550347946827  0.4110510096747932  1.0000
  H   H54       1.0  0.7400853126669487  0.8377450581534305  0.5889484330615035  1.0000
  H   H55       1.0  0.3262336449491556  0.023836862291098295  0.20447996853970818  1.0000
  H   H56       1.0  0.6737683733643532  0.9761623159082049  0.7955176545510485  1.0000
  H   H57       1.0  0.23348372413493487  0.9871871823830102  0.3266835392301105  1.0000
  H   H58       1.0  0.7665149966643057  0.012812907534822697  0.6733144747826147  1.0000
  H   H59       1.0  0.4447411107353645  0.940296459838201  0.41394828433546865  1.0000
  H   H60       1.0  0.5552585956109795  0.0597036333468992  0.586050374192972  1.0000
  H   H61       1.0  0.48316969553339806  0.849200832908089  0.3013411180493507  1.0000
  H   H62       1.0  0.5168290213421115  0.150799256298761  0.6986592485869494  1.0000
  H   H63       1.0  0.6729653988374765  0.9403504108962081  0.30751122107191253  1.0000
  H   H64       1.0  0.3270349800994126  0.059647837589217496  0.692488277973297  1.0000
  H   H65       1.0  0.5939688776138682  0.9911217579271393  0.1924682582658122  1.0000
  H   H66       1.0  0.40603116306588294  0.008877412552635596  0.8075319968328005  1.0000
  H   H67       1.0  0.6202863891183837  0.1696033002837467  0.2728512148071617  1.0000
  H   H68       1.0  0.37971497667351156  0.8303949517059478  0.7271481445459075  1.0000
  H   H69       1.0  0.5325111060232927  0.1341597787937232  0.3972990200323992  1.0000
  H   H70       1.0  0.4674889372722789  0.8658393921600408  0.6026996666505016  1.0000
  H   H71       1.0  0.3700443680119322  0.3054379168206935  0.30474290926629527  1.0000
  H   H72       1.0  0.6299563225736049  0.6945621793946941  0.695257177985717  1.0000
  H   H73       1.0  0.4063811967014602  0.21808900384433355  0.1907483285565377  1.0000
  H   H74       1.0  0.5936204833549112  0.7819110963493119  0.8092500505876146  1.0000
  H   H75       1.0  0.1539431416862129  0.24754681388743893  0.20459053596992055  1.0000
  H   H76       1.0  0.8460565672759512  0.7524532797716503  0.7954065541428013  1.0000
  C   C1        1.0  0.9448351089676094  0.11996369260212698  0.2336548056210931  1.0000
  C   C2        1.0  0.05516524859243791  0.8800373265555876  0.7663429008528838  1.0000
  C   C3        1.0  0.01284097041832411  0.05430201817271297  0.14187571963294235  1.0000
  C   C4        1.0  0.9871570725587376  0.9456999154968171  0.8581245906944376  1.0000
  C   C5        1.0  0.069247801710148  0.9263819100456911  0.1485888700498066  1.0000
  C   C6        1.0  0.9307495926690306  0.0736190981252207  0.8514108239163182  1.0000
  C   C7        1.0  0.05485839967172273  0.8627985740638948  0.24757192565197542  1.0000
  C   C8        1.0  0.9451356985010904  0.13720334606254167  0.752427375028262  1.0000
  C   C9        1.0  0.9831971689077508  0.9282222378664782  0.3389225991917898  1.0000
  C   C10       1.0  0.016799237308504206  0.07177876656317039  0.6610780186743312  1.0000
  C   C11       1.0  0.929645205183945  0.056624244502465615  0.3321397692924892  1.0000
  C   C12       1.0  0.07034658494544027  0.9433785913207587  0.6678582142018572  1.0000
  C   C13       1.0  0.2587598214422898  0.8799425262892694  0.0008851985997183085  1.0000
  C   C14       1.0  0.7412415417337924  0.1200557252264431  0.99911572916907  1.0000
  C   C15       1.0  0.38431599837839064  0.8113418975360672  0.053969055474468126  1.0000
  C   C16       1.0  0.6156843753268575  0.18865635000138778  0.9460335804021798  1.0000
  C   C17       1.0  0.49000225565981737  0.6134175089922421  0.13323583222159394  1.0000
  C   C18       1.0  0.5100000904475549  0.3865807453167562  0.866767308478629  1.0000
  C   C19       1.0  0.45956755187317105  0.4932940029822602  0.16395706852801342  1.0000
  C   C20       1.0  0.5404341190278289  0.5067060955524312  0.8360468000711523  1.0000
  C   C21       1.0  0.2672441620577287  0.547189441094801  0.3110291294122406  1.0000
  C   C22       1.0  0.7327558507056295  0.4528124988722835  0.6889732541544337  1.0000
  C   C23       1.0  0.20825155783331448  0.685842266054152  0.3235602942994405  1.0000
  C   C24       1.0  0.7917471350495332  0.31416059335098373  0.676439848181346  1.0000
  C   C25       1.0  0.879845200430445  0.2568475598568014  0.2240605441888023  1.0000
  C   C26       1.0  0.12015219525664386  0.743153448551105  0.7759383655694594  1.0000
  C   C27       1.0  0.8245141736030136  0.45609191290922263  0.3065076414392394  1.0000
  C   C28       1.0  0.17548685785547496  0.5439072617858044  0.6934901213436576  1.0000
  C   C29       1.0  0.7047029650455413  0.46376635684054424  0.39900551853871496  1.0000
  C   C30       1.0  0.29529905065214734  0.53623282088477  0.6009936729677535  1.0000
  C   C31       1.0  0.6133363191001565  0.5972050416124617  0.41969848805440085  1.0000
  C   C32       1.0  0.386665695289622  0.4027941358758582  0.5803014876599236  1.0000
  C   C33       1.0  0.7010237888734207  0.6772738810857176  0.4347370169061337  1.0000
  C   C34       1.0  0.2989782294400952  0.3227252971135854  0.5652606061846157  1.0000
  C   C35       1.0  0.8154138051654554  0.6711926912915799  0.3390849839648738  1.0000
  C   C36       1.0  0.1845901563258749  0.3288092629295888  0.6609160566253679  1.0000
  C   C37       1.0  0.9096852245631553  0.5381714911582307  0.3212715658570673  1.0000
  C   C38       1.0  0.09031580558742994  0.4618276832998022  0.6787269811336857  1.0000
  C   C39       1.0  0.0280284606384313  0.2741952934125678  0.3497842805465297  1.0000
  C   C40       1.0  0.9719725721279743  0.7258038815194536  0.6502126980285042  1.0000
  C   C41       1.0  0.280273361609474  0.1581481344942475  0.32357268161585045  1.0000
  C   C42       1.0  0.719726994642663  0.8418528844264728  0.6764258090659897  1.0000
  C   C43       1.0  0.3183503201139217  0.023949512483113694  0.2918756833042053  1.0000
  C   C44       1.0  0.6816483993774086  0.9760505771977178  0.7081231149163757  1.0000
  C   C45       1.0  0.45682796334554604  0.9446199896425823  0.3259957952655626  1.0000
  C   C46       1.0  0.5431720786421151  0.0553791810741942  0.674003675625194  1.0000
  C   C47       1.0  0.5750474066557985  0.9967471315042004  0.28005548589267454  1.0000
  C   C48       1.0  0.4249519854260697  0.003251113476963499  0.7199441528446828  1.0000
  C   C49       1.0  0.5378006763391241  0.13096204480516602  0.3103051585940975  1.0000
  C   C50       1.0  0.46220003954698535  0.869035281448923  0.6896943686055724  1.0000
  C   C51       1.0  0.3981840249513198  0.21098961224548415  0.278373878652623  1.0000
  C   C52       1.0  0.6018176551050588  0.7890104879481613  0.7216245004915294  1.0000
  I   I1        1.0  0.18648015668577497  0.29354830323472914  0.00025403694070290345  1.0000
  I   I2        1.0  0.8135168968204524  0.7064536264565434  0.9997479814945438  1.0000
  N   N1        1.0  0.9125619447603058  0.3262718454695772  0.2908423845106825  1.0000
  N   N2        1.0  0.08743939965475526  0.6737291771924064  0.7091551822711467  1.0000
  N   N3        1.0  0.15112428390982302  0.2329479276484889  0.2859869131622546  1.0000
  N   N4        1.0  0.8488757593857486  0.7670512433052747  0.7140117735206392  1.0000
  O   O1        1.0  0.7936039840043987  0.3043098228834323  0.1620985766359056  1.0000
  O   O2        1.0  0.20639372463924835  0.6956930334914232  0.8379001371213024  1.0000
  O   O3        1.0  0.009800894419477395  0.27351200278728527  0.4485646755096298  1.0000
  O   O4        1.0  0.9901975134231903  0.7264862391635843  0.5514335345041489  1.0000
  O   O5        1.0  0.13411523621319082  0.8581884828283463  0.0595918160925279  1.0000
  O   O6        1.0  0.8658861282708016  0.14180976892436084  0.9404083274683972  1.0000
  O   O7        1.0  0.4009015533227895  0.6823636568204774  0.05944352304469903  1.0000
  O   O8        1.0  0.5991011284258931  0.3176336750201897  0.9405604300178398  1.0000
  O   O9        1.0  0.3158932852050995  0.5086596107513015  0.20407160368241514  1.0000
  O   O10       1.0  0.6841077357901213  0.4913395620477772  0.7959324327633512  1.0000
  O   O11       1.0  0.111259669127719  0.7361755410340293  0.2491038578804563  1.0000
  O   O12       1.0  0.8887350737192463  0.2638273038800421  0.7508984117846184  1.0000
