data_image0
_chemical_formula_structural       Cd2H22C30N6O14
_chemical_formula_sum              "Cd2 H22 C30 N6 O14"
_cell_length_a       8.073089561363755
_cell_length_b       10.15448837660604
_cell_length_c       11.605148384461012
_cell_angle_alpha    68.85401018615758
_cell_angle_beta     77.79451753062507
_cell_angle_gamma    66.78434431270655

_space_group_name_H-M_alt    "P 1"
_space_group_IT_number       1

loop_
  _space_group_symop_operation_xyz
  'x, y, z'

loop_
  _atom_site_type_symbol
  _atom_site_label
  _atom_site_symmetry_multiplicity
  _atom_site_fract_x
  _atom_site_fract_y
  _atom_site_fract_z
  _atom_site_occupancy
  Cd  Cd1       1.0  0.6686750185832435  0.5676505274803176  0.5711004154249154  1.0000
  Cd  Cd2       1.0  0.3313243341065473  0.43234926325114736  0.42890011311725823  1.0000
  H   H1        1.0  0.2648468575252067  0.3227450379554852  0.9486219637847313  1.0000
  H   H2        1.0  0.7351563287623858  0.6772546987281417  0.05137886013019245  1.0000
  H   H3        1.0  0.6611321800079607  0.0563256440361073  0.5371465120594223  1.0000
  H   H4        1.0  0.33886669743969833  0.9436752918151609  0.4628528776191699  1.0000
  H   H5        1.0  0.004978501181511742  0.29154625198602707  0.28759057958661316  1.0000
  H   H6        1.0  0.9950208001166627  0.708453594883686  0.7124073541603195  1.0000
  H   H7        1.0  0.004631965552469687  0.886753087066836  0.24644210251695137  1.0000
  H   H8        1.0  0.9953683204910675  0.11324443213776898  0.7535598388206494  1.0000
  H   H9        1.0  0.45328839035792595  0.31583767683839176  0.7410282006786628  1.0000
  H   H10       1.0  0.5467147959296595  0.6841620598452353  0.2589726232362605  1.0000
  H   H11       1.0  0.13485733906567524  0.5302276832703682  0.09476206770769824  1.0000
  H   H12       1.0  0.8651445579356289  0.4697720839043741  0.9052380811284733  1.0000
  H   H13       1.0  0.1677079518010699  0.7646623499272991  0.09228460357964247  1.0000
  H   H14       1.0  0.8322892125097782  0.23533970539664026  0.9077155669518504  1.0000
  H   H15       1.0  0.3550044333194932  0.8876529595577409  0.9270700651647911  1.0000
  H   H16       1.0  0.6449922728797546  0.11235022217325512  0.07292983143486245  1.0000
  H   H17       1.0  0.5193415518134471  0.7812734642298197  0.7536866091732005  1.0000
  H   H18       1.0  0.4806576986973069  0.21872969394445363  0.24631290772045836  1.0000
  H   H19       1.0  0.016760283721502747  0.38516964172306695  0.669165440612467  1.0000
  H   H20       1.0  0.9832382549241386  0.6148290343797029  0.3308355517145428  1.0000
  H   H21       1.0  0.997680360551541  0.5515251665172017  0.6263992531401712  1.0000
  H   H22       1.0  0.002318195224645941  0.44847349087282146  0.373602604118588  1.0000
  C   C1        1.0  0.8277635986032333  0.956305912351986  0.3980384990219434  1.0000
  C   C2        1.0  0.17223746722336844  0.04369275890680061  0.6019612486673224  1.0000
  C   C3        1.0  0.7625476731077684  0.06542869345991419  0.45927795755881107  1.0000
  C   C4        1.0  0.23744994931467986  0.9345722354569688  0.5407224869045206  1.0000
  C   C5        1.0  0.8245908206807115  0.1863976586946592  0.42094682946067496  1.0000
  C   C6        1.0  0.17540976990375148  0.8136021576839382  0.5790517793650096  1.0000
  C   C7        1.0  0.9540457107204718  0.19880870859201139  0.3203327972637948  1.0000
  C   C8        1.0  0.04595314959664862  0.8011922459720041  0.6796657274830477  1.0000
  C   C9        1.0  0.01624818384757279  0.08982868962549868  0.2599131337295546  1.0000
  C   C10       1.0  0.9837503205369909  0.910170023902772  0.7400861287339566  1.0000
  C   C11       1.0  0.9552552152505239  0.9688156552806149  0.2966113052809617  1.0000
  C   C12       1.0  0.04474286528351709  0.03118414722921869  0.7033894131142091  1.0000
  C   C13       1.0  0.761999458396971  0.8257954602871251  0.4422668051146844  1.0000
  C   C14       1.0  0.2379998942928268  0.1742043304443399  0.5577337234274892  1.0000
  C   C15       1.0  0.7457735081929753  0.30419258149702705  0.4856748016930722  1.0000
  C   C16       1.0  0.2542253692546764  0.6958083543542415  0.5143245879855199  1.0000
  C   C17       1.0  0.4231284042764968  0.4007448458015404  0.7858687248568613  1.0000
  C   C18       1.0  0.5768730688742777  0.5992560103547576  0.21413287991097005  1.0000
  C   C19       1.0  0.3048908811902109  0.5286134559704436  0.921395789928127  1.0000
  C   C20       1.0  0.6951092855437364  0.47138744938971666  0.07860427482921037  1.0000
  C   C21       1.0  0.21417749468879782  0.5856850898553815  0.01921520502116181  1.0000
  C   C22       1.0  0.7858226891756886  0.4143157967920246  0.9807857246679246  1.0000
  C   C23       1.0  0.2348456998535794  0.7162034606244561  0.017651675770558505  1.0000
  C   C24       1.0  0.7651531947246184  0.28379745651406557  0.9823485788397759  1.0000
  C   C25       1.0  0.3429499211737193  0.7862025834998151  0.9232238188228336  1.0000
  C   C26       1.0  0.6570472431371285  0.21379947182413153  0.0767763517086593  1.0000
  C   C27       1.0  0.43491526069195874  0.7281122000013697  0.8265447693982181  1.0000
  C   C28       1.0  0.5650831929051775  0.2718898248314617  0.17345607621202663  1.0000
  C   C29       1.0  0.41406341243850847  0.5977951395131171  0.8262046490274313  1.0000
  C   C30       1.0  0.585935482139689  0.40220577762541154  0.17379560558290302  1.0000
  N   N1        1.0  0.14661195690881354  0.1057489590566902  0.1516956944224574  1.0000
  N   N2        1.0  0.8533904153346225  0.8942496629982487  0.8483055932773027  1.0000
  N   N3        1.0  0.4851487424265954  0.5147728529263986  0.7429610262855774  1.0000
  N   N4        1.0  0.514851424307352  0.48522805243376155  0.2570390384717598  1.0000
  N   N5        1.0  0.3142748384055877  0.40505724557739603  0.8916546065547664  1.0000
  N   N6        1.0  0.6857274316588047  0.594944743920344  0.10834566949647953  1.0000
  O   O1        1.0  0.7931303358063526  0.7447008159622043  0.3729997275755323  1.0000
  O   O2        1.0  0.2068702890391946  0.2552989629908994  0.6270006111136439  1.0000
  O   O3        1.0  0.678683986059795  0.801035265354031  0.5500598527092747  1.0000
  O   O4        1.0  0.3213166559162913  0.19896449488631873  0.44994135091165066  1.0000
  O   O5        1.0  0.5946837292184383  0.3165340078897714  0.5483420133411485  1.0000
  O   O6        1.0  0.40531435131560994  0.6834657946200552  0.4516587050540223  1.0000
  O   O7        1.0  0.8352221387740071  0.3889246823862109  0.4741303327896345  1.0000
  O   O8        1.0  0.16477801082940136  0.6110762416866963  0.5258688670359533  1.0000
  O   O9        1.0  0.1818895664770181  0.22432998603423474  0.11215861542179077  1.0000
  O   O10       1.0  0.8181132467474798  0.7756675283263874  0.8878420812780589  1.0000
  O   O11       1.0  0.2144207145495471  0.0026975688704809005  0.1042310529322492  1.0000
  O   O12       1.0  0.7855851524896733  0.9972987393881212  0.8957721327886856  1.0000
  O   O13       1.0  0.9292552895430006  0.48415931665691375  0.6764071388765841  1.0000
  O   O14       1.0  0.07074497936999784  0.5158382212604381  0.32359393752926735  1.0000
