data_image0
_chemical_formula_structural       Zn6H24C60N8O40
_chemical_formula_sum              "Zn6 H24 C60 N8 O40"
_cell_length_a       21.75376275462878
_cell_length_b       21.753791938165367
_cell_length_c       21.753806821622412
_cell_angle_alpha    91.49989500336316
_cell_angle_beta     119.13802938467354
_cell_angle_gamma    119.13804829258211

_space_group_name_H-M_alt    "P 1"
_space_group_IT_number       1

loop_
  _space_group_symop_operation_xyz
  'x, y, z'

loop_
  _atom_site_type_symbol
  _atom_site_label
  _atom_site_symmetry_multiplicity
  _atom_site_fract_x
  _atom_site_fract_y
  _atom_site_fract_z
  _atom_site_occupancy
  Zn  Zn1       1.0  0.4413581667107495  0.4999975995394551  0.9413620707046776  1.0000
  Zn  Zn2       1.0  0.5586396461109756  0.05863982910292261  0.5000002922557484  1.0000
  Zn  Zn3       1.0  0.5586392114675648  0.5000008852325878  0.05864017504261915  1.0000
  Zn  Zn4       1.0  0.4413619158300007  0.9413617122529558  0.500001548657785  1.0000
  Zn  Zn5       1.0  4.98577975304774e-07  0.04243637194993251  0.0424393031872938  1.0000
  Zn  Zn6       1.0  0.9999974050392596  0.9575609676308688  0.9575650046388517  1.0000
  H   H1        1.0  0.558528476918454  0.24654052867958864  0.8717637486548355  1.0000
  H   H2        1.0  0.37476849527431716  0.6880085040597806  0.24653500475457696  1.0000
  H   H3        1.0  0.4414705602479216  0.31324064058845386  0.6880058790622101  1.0000
  H   H4        1.0  0.6252261118961827  0.8717712753750037  0.3132353292152743  1.0000
  H   H5        1.0  0.3747450393210628  0.6867231209025634  0.1282430554313833  1.0000
  H   H6        1.0  0.44152525508045654  0.12825068446868212  0.753496738785742  1.0000
  H   H7        1.0  0.6252527673143291  0.7535058936326067  0.3119766413130804  1.0000
  H   H8        1.0  0.5584806057368681  0.311981105549144  0.6867235390292663  1.0000
  H   H9        1.0  0.5604580375890577  0.330291144703743  0.9542023504343219  1.0000
  H   H10       1.0  0.37607955961394174  0.7698274504104461  0.33028791874193797  1.0000
  H   H11       1.0  0.4395398928152899  0.39374914775405045  0.7698271142617584  1.0000
  H   H12       1.0  0.6239126716385501  0.9542074036554027  0.3937463488956822  1.0000
  H   H13       1.0  0.3760565810411693  0.6062113656139873  0.04580683061359283  1.0000
  H   H14       1.0  0.43959683509439873  0.04581105134769108  0.6697490067258371  1.0000
  H   H15       1.0  0.6239457786986053  0.6697547282644721  0.2301613799808068  1.0000
  H   H16       1.0  0.5604124588155345  0.23016171335573432  0.6062140584742721  1.0000
  H   H17       1.0  0.23830761490204122  0.25477761687401573  0.10892468872109626  1.0000
  H   H18       1.0  0.14585392922223414  0.01646877383927155  0.2547788054730802  1.0000
  H   H19       1.0  0.7616920730353912  0.8706141698986515  0.016466844720255905  1.0000
  H   H20       1.0  0.8541413141172924  0.10892120366315787  0.870619305240922  1.0000
  H   H21       1.0  0.14584981392600568  0.1293796920116818  0.8910762890296907  1.0000
  H   H22       1.0  0.7617005558600171  0.891080378646713  0.7452210453807879  1.0000
  H   H23       1.0  0.8541458916070254  0.7452193305852219  0.9835296888359152  1.0000
  H   H24       1.0  0.23830855970071976  0.9835339589956292  0.1293841832795196  1.0000
  C   C1        1.0  0.3814781488011718  0.3814802654114189  0.9999981846618907  1.0000
  C   C2        1.0  0.3814809819357594  0.9999983391487037  0.38148205457687834  1.0000
  C   C3        1.0  0.6185168787181325  0.6185175254775146  1.599196793101785e-07  1.0000
  C   C4        1.0  0.6185200974461152  4.4993928578391673e-07  0.6185169357145311  1.0000
  C   C5        1.0  0.24209836522267386  0.2513461879906984  0.0610069918594363  1.0000
  C   C6        1.0  0.1903408592212514  0.00924691399387714  0.2513490478562019  1.0000
  C   C7        1.0  0.757899962108155  0.8189051579472277  0.009245186098816343  1.0000
  C   C8        1.0  0.8096586371008955  0.06100541741287913  0.8189085732192466  1.0000
  C   C9        1.0  0.19033870866304162  0.18109173085397143  0.9389952809783607  1.0000
  C   C10       1.0  0.7579080055600188  0.9389992956466743  0.7486520764830472  1.0000
  C   C11       1.0  0.8096580145912571  0.7486502166571755  0.9907522656625716  1.0000
  C   C12       1.0  0.24210091510643414  0.9907556339931106  0.18109522615812082  1.0000
  C   C13       1.0  0.49999777306051396  0.4157484552128993  0.91574493404579  1.0000
  C   C14       1.0  0.49999465078644817  0.9157443322124624  0.415746407499512  1.0000
  C   C15       1.0  0.5000025071309936  0.5842523581859993  0.08425580976613394  1.0000
  C   C16       1.0  0.5000042380872642  0.08425620236446457  0.5842527942444775  1.0000
  C   C17       1.0  0.3129117106615738  0.3129123888441044  0.9999992153896855  1.0000
  C   C18       1.0  0.3129128633148853  0.9999977332413509  0.3129132931354804  1.0000
  C   C19       1.0  0.6870856188599036  0.6870849039124283  4.767544368040234e-07  1.0000
  C   C20       1.0  0.6870911404829414  2.283989701522063e-06  0.6870843579733331  1.0000
  C   C21       1.0  0.30424910074743394  0.3138591173937614  0.059649358415811086  1.0000
  C   C22       1.0  0.2542092782057068  0.00960622119544049  0.3138606615730311  1.0000
  C   C23       1.0  0.6957493573350109  0.7553984565424303  0.009608549462953506  1.0000
  C   C24       1.0  0.7457886941278247  0.05964840884971786  0.7553991866655209  1.0000
  C   C25       1.0  0.25420626635322907  0.24459662081097364  0.9403485614262407  1.0000
  C   C26       1.0  0.6957592839303219  0.9403551590310004  0.6861372388348812  1.0000
  C   C27       1.0  0.7457902146554362  0.6861378513453645  0.9903916962790474  1.0000
  C   C28       1.0  0.3042513415335722  0.9903908520272824  0.2446003966838149  1.0000
  C   C29       1.0  0.5323151950900924  0.2787433605802435  0.849364398323786  1.0000
  C   C30       1.0  0.4293695284008266  0.746425602151419  0.27873746479680517  1.0000
  C   C31       1.0  0.4676847585563948  0.3170552879853119  0.7464226757564347  1.0000
  C   C32       1.0  0.5706227402031561  0.8493700793512887  0.31704920577104195  1.0000
  C   C33       1.0  0.42935926324932455  0.6829261549488664  0.15063772703584993  1.0000
  C   C34       1.0  0.4677178786463116  0.15064426814022625  0.7212788987356049  1.0000
  C   C35       1.0  0.5706408171897479  0.7212852056858097  0.2535655136498391  1.0000
  C   C36       1.0  0.5322888889853062  0.25357018516288593  0.6829246577542847  1.0000
  C   C37       1.0  0.5336858101770688  0.3254768660546433  0.8955846927839913  1.0000
  C   C38       1.0  0.4298828453748485  0.7917863486848945  0.3254720971226277  1.0000
  C   C39       1.0  0.46631308754233913  0.36190337239879966  0.7917853805981423  1.0000
  C   C40       1.0  0.5701088055754014  0.8955891261656747  0.3618993526124257  1.0000
  C   C41       1.0  0.4298734295701224  0.6380763144365389  0.10441932516108926  1.0000
  C   C42       1.0  0.4663468518672715  0.10442358524193916  0.6745467428872872  1.0000
  C   C43       1.0  0.570128410937194  0.6745502570241726  0.2082050255749976  1.0000
  C   C44       1.0  0.5336616938642679  0.20820833519582752  0.6380766035594263  1.0000
  C   C45       1.0  0.49999971223209655  0.3668997977469391  0.8668958275339521  1.0000
  C   C46       1.0  0.4999970238602956  0.8668972349988808  0.3668975980066307  1.0000
  C   C47       1.0  0.5000015838410476  0.6331031463549905  0.13310368389256413  1.0000
  C   C48       1.0  0.5000043350500147  0.13310576444407468  0.6331009188318574  1.0000
  C   C49       1.0  0.5000010975703901  0.2743263345626444  0.7743203993812527  1.0000
  C   C50       1.0  0.4999966667730362  0.7743259408814324  0.27431913013424497  1.0000
  C   C51       1.0  0.49999910089373156  0.725679404397802  0.22567354833320502  1.0000
  C   C52       1.0  0.5000023371072049  0.2256797214708258  0.7256740026921591  1.0000
  C   C53       1.0  0.8833500717794889  7.156369363652701e-06  0.8833560924431011  1.0000
  C   C54       1.0  0.11665061009713903  0.11665532657575282  8.787881022010513e-06  1.0000
  C   C55       1.0  0.1166498645623832  6.037603782296996e-06  0.11665987557316267  1.0000
  C   C56       1.0  0.8833473809855192  0.8833510559801712  2.908040066235012e-06  1.0000
  C   C57       1.0  0.18440919983989812  0.18440966707495227  0.9999984781386787  1.0000
  C   C58       1.0  0.18441487221718936  1.6871706805033257e-06  0.18441248578668726  1.0000
  C   C59       1.0  0.8155876451967927  0.8155831769221394  0.9999972493345125  1.0000
  C   C60       1.0  0.8155901734526838  0.9999996376421267  0.815587988166321  1.0000
  N   N1        1.0  0.36126490819463447  0.38435547044174007  0.12398430975802906  1.0000
  N   N2        1.0  0.26036834467908676  0.0230839655390369  0.38435623572841837  1.0000
  N   N3        1.0  0.6387388297409231  0.7627210152738756  0.023092871579287137  1.0000
  N   N4        1.0  0.7396232669039051  0.12397962957965805  0.7627239059646129  1.0000
  N   N5        1.0  0.2603659431362359  0.23727441078533915  0.8760141423053155  1.0000
  N   N6        1.0  0.6387483230434298  0.8760172829727251  0.6156437308228746  1.0000
  N   N7        1.0  0.7396338898256476  0.6156436760859664  0.9769171037424442  1.0000
  N   N8        1.0  0.3612659442311145  0.9769120234979243  0.2372786432965342  1.0000
  O   O1        1.0  0.35422777925110444  0.40570642862322603  0.9476362585100588  1.0000
  O   O2        1.0  0.45806959726547086  0.051475298189799915  0.40570984493352563  1.0000
  O   O3        1.0  0.6457674812153513  0.5934053164641072  0.05147837648475221  1.0000
  O   O4        1.0  0.5419358783491506  0.9476432986557628  0.5934059822333992  1.0000
  O   O5        1.0  0.45806650826915535  0.40659517827834435  0.052357400701985995  1.0000
  O   O6        1.0  0.645768727560018  0.05236342113173013  0.5942882810125524  1.0000
  O   O7        1.0  0.5419301563285687  0.5942882965189611  0.9485268180587595  1.0000
  O   O8        1.0  0.3542349195419876  0.948524227710415  0.40659618290790434  1.0000
  O   O9        1.0  0.45055431704490456  0.4373844641300765  0.8835941976963682  1.0000
  O   O10       1.0  0.5537841682007355  0.9868254074971574  0.4373835773703547  1.0000
  O   O11       1.0  0.5494416859258564  0.4330398271502959  0.9868258766947591  1.0000
  O   O12       1.0  0.446209342007954  0.8835938306053421  0.4330398561243314  1.0000
  O   O13       1.0  0.5537931074097601  0.5669634976869062  0.11640911612003896  1.0000
  O   O14       1.0  0.5494458515728835  0.11640868874273737  0.5626132063257144  1.0000
  O   O15       1.0  0.4462115901960076  0.5626123244024159  0.0131766157757554  1.0000
  O   O16       1.0  0.4505635366669694  0.013177714437382767  0.5669635551788375  1.0000
  O   O17       1.0  0.9232565539308484  0.049799949376918694  0.9458342038595051  1.0000
  O   O18       1.0  0.10396814123433983  0.12654379494412643  0.049802411623531405  1.0000
  O   O19       1.0  0.07674523753858863  0.022577278004583017  0.1265480742191585  1.0000
  O   O20       1.0  0.8960313519424616  0.9458273724174263  0.022572982659397608  1.0000
  O   O21       1.0  0.10396786307322274  0.9774243067723135  0.0541616671686427  1.0000
  O   O22       1.0  0.07673353675944129  0.054156740396827246  0.9501921164258106  1.0000
  O   O23       1.0  0.8960304300977243  0.9501889302997386  0.8734565433983191  1.0000
  O   O24       1.0  0.9232635427127179  0.8734494062870014  0.9774219030957667  1.0000
  O   O25       1.0  0.3859501089872098  0.3788133084646646  0.18686825787507644  1.0000
  O   O26       1.0  0.37815179867913434  0.4428575045399512  0.1096623497131475  1.0000
  O   O27       1.0  0.19194252303938725  0.9928519436091607  0.3788130121781847  1.0000
  O   O28       1.0  0.33319324936100964  0.0647018202552019  0.4428595585136748  1.0000
  O   O29       1.0  0.6140631834974569  0.8009294362509962  0.9928734530809604  1.0000
  O   O30       1.0  0.6218446641151589  0.7315067921752602  0.06470088329536601  1.0000
  O   O31       1.0  0.808048290212561  0.1868633426641893  0.8009392100770825  1.0000
  O   O32       1.0  0.666796884810381  0.10965590341766072  0.7315010340846371  1.0000
  O   O33       1.0  0.19194265482067857  0.19906910422542265  0.8131329632428788  1.0000
  O   O34       1.0  0.3331936056096725  0.26849167504302346  0.8903362188934594  1.0000
  O   O35       1.0  0.6140814776814238  0.8131426462983101  0.6211840933228742  1.0000
  O   O36       1.0  0.6218471215058018  0.8903431142198814  0.5571330453098186  1.0000
  O   O37       1.0  0.8080556592387255  0.6211858163640545  0.007149092582736168  1.0000
  O   O38       1.0  0.666804148514295  0.55713701731176  0.9352959244233503  1.0000
  O   O39       1.0  0.3859479131214343  0.007133668198044124  0.19908100992851266  1.0000
  O   O40       1.0  0.3781572243246887  0.9352962891508342  0.26849384307629987  1.0000
