data_image0
_chemical_formula_structural       Zn2H32C32N4O8
_chemical_formula_sum              "Zn2 H32 C32 N4 O8"
_cell_length_a       4.290194006000036
_cell_length_b       10.548808272438189
_cell_length_c       15.441067537498304
_cell_angle_alpha    96.28815464628885
_cell_angle_beta     90.00000791528925
_cell_angle_gamma    90.00001152229991

_space_group_name_H-M_alt    "P 1"
_space_group_IT_number       1

loop_
  _space_group_symop_operation_xyz
  'x, y, z'

loop_
  _atom_site_type_symbol
  _atom_site_label
  _atom_site_symmetry_multiplicity
  _atom_site_fract_x
  _atom_site_fract_y
  _atom_site_fract_z
  _atom_site_occupancy
  Zn  Zn1       1.0  0.5000009462275372  0.4999999013736484  0.49999982851805663  1.0000
  Zn  Zn2       1.0  1.2365416779999996e-07  0.4999999989659968  3.408985875967387e-07  1.0000
  H   H1        1.0  0.2584874424202326  0.4359637674450454  0.7646052642240946  1.0000
  H   H2        1.0  0.7584881654192587  0.5640368737865271  0.7353952351157673  1.0000
  H   H3        1.0  0.741512119138079  0.5640360372327536  0.23539504057872307  1.0000
  H   H4        1.0  0.24151139613930886  0.43596388460159113  0.2646051397387055  1.0000
  H   H5        1.0  0.5772608083173124  0.05558766961908648  0.7525969205691112  1.0000
  H   H6        1.0  0.07726032827284969  0.9444119998421737  0.7474028527725236  1.0000
  H   H7        1.0  0.4227410841377689  0.9444121331282106  0.24740273646700925  1.0000
  H   H8        1.0  0.922739233285469  0.05558780483562489  0.2525974520302938  1.0000
  H   H9        1.0  0.6287852819075114  0.1745705301803753  0.6224448282070937  1.0000
  H   H10       1.0  0.1287848075695592  0.8254291438666073  0.8775549474601333  1.0000
  H   H11       1.0  0.3712166105479753  0.8254302282078498  0.3775555466474287  1.0000
  H   H12       1.0  0.8712147539883404  0.17456970517026346  0.1224446395242751  1.0000
  H   H13       1.0  0.7560173735643262  0.16419463123626338  0.9683148872949372  1.0000
  H   H14       1.0  0.25601673280203124  0.835806007844802  0.5316849641666508  1.0000
  H   H15       1.0  0.24398218799424135  0.8358061271518549  0.0316854875595354  1.0000
  H   H16       1.0  0.7439828287563799  0.16419474861271507  0.46831476292106794  1.0000
  H   H17       1.0  0.07695947127084679  0.0691815681384114  0.9294637880309367  1.0000
  H   H18       1.0  0.5769602939136363  0.93081810129609  0.5705359852971198  1.0000
  H   H19       1.0  0.9230377593908015  0.9308191902496074  0.07053658682347927  1.0000
  H   H20       1.0  0.42303926764451916  0.06918170145110028  0.4294636717389436  1.0000
  H   H21       1.0  0.6958242382596964  0.0224976403590986  0.8950575892415029  1.0000
  H   H22       1.0  0.19582603481658364  0.9775020415851188  0.6049428372183812  1.0000
  H   H23       1.0  0.30417532329861535  0.9775021643186999  0.10494271556131445  1.0000
  H   H24       1.0  0.8041758576389099  0.022498716803106295  0.3950575376361414  1.0000
  H   H25       1.0  0.42868023281766904  0.3787179820395465  0.9055500545890851  1.0000
  H   H26       1.0  0.928680914220436  0.6212817206290068  0.5944503823808914  1.0000
  H   H27       1.0  0.5713193287406497  0.6212818226382525  0.09445025021372538  1.0000
  H   H28       1.0  0.07131864733788258  0.3787180840487919  0.4055499224219261  1.0000
  H   H29       1.0  0.2401129898861569  0.273739931751777  0.958208887723053  1.0000
  H   H30       1.0  0.7401113661963804  0.726260705913745  0.5417909630206594  1.0000
  H   H31       1.0  0.7598865716722543  0.7262608247057399  0.041790839364665495  1.0000
  H   H32       1.0  0.25988586446526796  0.2737400524742739  0.4582094118337565  1.0000
  C   C1        1.0  0.9514001124709779  0.31158557149872473  0.685374447985339  1.0000
  C   C2        1.0  0.4513995391491292  0.6884141312612541  0.8146253422433389  1.0000
  C   C3        1.0  0.04860177998425999  0.6884142331791806  0.31462585681752847  1.0000
  C   C4        1.0  0.5485976915116879  0.3115847158449014  0.1853735969742658  1.0000
  C   C5        1.0  0.10604676287234578  0.3532516886273313  0.7628107183220647  1.0000
  C   C6        1.0  0.6060451967751562  0.6467489371061745  0.737189126370474  1.0000
  C   C7        1.0  0.8939551295831408  0.6467490697608937  0.23718965653245763  1.0000
  C   C8        1.0  0.39395203388608024  0.3532508656409092  0.2628105306655399  1.0000
  C   C9        1.0  0.06538193813455712  0.29066884557612127  0.8371108092641251  1.0000
  C   C10       1.0  0.5653803661380719  0.7093317784687868  0.6628896813597294  1.0000
  C   C11       1.0  0.9346199543206807  0.7093309591017771  0.1628894955387423  1.0000
  C   C12       1.0  0.4346191954200832  0.2906680242784034  0.33710997567633433  1.0000
  C   C13       1.0  0.8782216079618977  0.18036051425963248  0.8336985889501703  1.0000
  C   C14       1.0  0.3782210259751224  0.819639181987398  0.6663011979755351  1.0000
  C   C15       1.0  0.1217802844934326  0.8196402421979838  0.1663011381375981  1.0000
  C   C16       1.0  0.621778535583033  0.18036062075979234  0.3336984590605283  1.0000
  C   C17       1.0  0.7253077477701384  0.13988792886005538  0.7552328132698348  1.0000
  C   C18       1.0  0.22530722472220785  0.8601127074878364  0.7447670368056548  1.0000
  C   C19       1.0  0.2746941446853555  0.8601128295281696  0.2447675615846876  1.0000
  C   C20       1.0  0.7746923368359473  0.13988709525936116  0.2552326202304087  1.0000
  C   C21       1.0  0.7559497166092798  0.2047817428910007  0.6821062855725939  1.0000
  C   C22       1.0  0.25594919773539715  0.7952179424737268  0.8178934958342905  1.0000
  C   C23       1.0  0.24404984494903906  0.795218061786798  0.3178940192302235  1.0000
  C   C24       1.0  0.7440480329258321  0.20478186027336426  0.18210616120172315  1.0000
  C   C25       1.0  0.9872283274169078  0.3830255142332036  0.607563288203707  1.0000
  C   C26       1.0  0.4872277573551926  0.6169741917155135  0.892436503642102  1.0000
  C   C27       1.0  0.012771234142171298  0.6169771515755613  0.3924372267540761  1.0000
  C   C28       1.0  0.5127694733052836  0.38302274990060425  0.10756294323893907  1.0000
  C   C29       1.0  0.8483115392361712  0.10544737693115276  0.9106879649297354  1.0000
  C   C30       1.0  0.348310956115199  0.8945532722947857  0.5893125384643695  1.0000
  C   C31       1.0  0.15168802232239642  0.8945533814569655  0.08931240992473728  1.0000
  C   C32       1.0  0.6516886054433684  0.1054474860933396  0.4106878363901032  1.0000
  N   N1        1.0  0.2129533850730354  0.34073982239101497  0.9160458676489043  1.0000
  N   N2        1.0  0.7129540800544305  0.6592608128573758  0.583953981868987  1.0000
  N   N3        1.0  0.7870461764852764  0.659259982286784  0.0839544371539063  1.0000
  N   N4        1.0  0.2870454815039807  0.34073994360014126  0.41604574521873156  1.0000
  O   O1        1.0  0.7944444830919722  0.3580423878811203  0.5447161327803157  1.0000
  O   O2        1.0  0.2944439565604354  0.6419573009096738  0.9552836503640519  1.0000
  O   O3        1.0  0.20555740936342906  0.6419574187273938  0.4552848197892984  1.0000
  O   O4        1.0  0.705557935894319  0.358042497976399  0.04471471113856039  1.0000
  O   O5        1.0  0.20374396602852582  0.46623092656142956  0.6082173177122314  1.0000
  O   O6        1.0  0.7037447516272479  0.5337687541569948  0.8917824613383372  1.0000
  O   O7        1.0  0.7962555955296297  0.5337688761857605  0.3917823393238322  1.0000
  O   O8        1.0  0.2962524790342372  0.4662320023004155  0.10821726574933169  1.0000
