data_image0
_chemical_formula_structural       Al4H38C68Cl2O24
_chemical_formula_sum              "Al4 H38 C68 Cl2 O24"
_cell_length_a       6.657048199842313
_cell_length_b       20.63207855078638
_cell_length_c       22.280867224764105
_cell_angle_alpha    89.99991404502607
_cell_angle_beta     90.00352555666692
_cell_angle_gamma    92.86593479376796

_space_group_name_H-M_alt    "P 1"
_space_group_IT_number       1

loop_
  _space_group_symop_operation_xyz
  'x, y, z'

loop_
  _atom_site_type_symbol
  _atom_site_label
  _atom_site_symmetry_multiplicity
  _atom_site_fract_x
  _atom_site_fract_y
  _atom_site_fract_z
  _atom_site_occupancy
  Al  Al1       1.0  0.015637930108503905  0.31586009902566303  0.4968191569819281  1.0000
  Al  Al2       1.0  0.9843959163409937  0.6841373029400231  0.9968217018781046  1.0000
  Al  Al3       1.0  0.516332340664981  0.3186310162944466  0.4979846592193624  1.0000
  Al  Al4       1.0  0.48370384289918184  0.6813600818825167  0.9979806154746669  1.0000
  H   H1        1.0  0.5432553082729755  0.1931775280454318  0.644343766971744  1.0000
  H   H2        1.0  0.45678973607461876  0.806818211460076  0.14433216152043826  1.0000
  H   H3        1.0  0.9826473812843306  0.8647939205257769  0.9093082216556779  1.0000
  H   H4        1.0  0.017362696681019002  0.1352050139349856  0.40930399189866057  1.0000
  H   H5        1.0  0.5702945492383691  0.8063522281449025  0.8585375555574544  1.0000
  H   H6        1.0  0.42971247285803577  0.19365860006684704  0.3585247506304796  1.0000
  H   H7        1.0  0.5029768964787565  0.0082844026258257  0.7604896332476656  1.0000
  H   H8        1.0  0.4970069019150571  0.9917211141343076  0.2604663022769174  1.0000
  H   H9        1.0  0.9172953980015992  0.052017916651898616  0.6594215395724419  1.0000
  H   H10       1.0  0.0827410227336642  0.9479730422911032  0.1594475583668356  1.0000
  H   H11       1.0  0.938338125722197  0.14446721969052592  0.587039698547457  1.0000
  H   H12       1.0  0.061720141845327724  0.8555214536937825  0.08706932487967829  1.0000
  H   H13       1.0  0.045134028910993586  0.9952280459979406  0.7412648264403073  1.0000
  H   H14       1.0  0.9548621322601251  0.0047749518771454  0.24127653615441594  1.0000
  H   H15       1.0  0.519904133062802  0.10459788674753413  0.7200459256116217  1.0000
  H   H16       1.0  0.48010645863818985  0.8954001558838911  0.22003120122809608  1.0000
  H   H17       1.0  0.6110957777390951  0.9020369404406241  0.7907642692442849  1.0000
  H   H18       1.0  0.38888788236396016  0.0979818220918744  0.2907377835866427  1.0000
  H   H19       1.0  0.3183648276584137  0.5304343874830338  0.5500749069994697  1.0000
  H   H20       1.0  0.6818630525972297  0.4695414679938709  0.0500764934528846  1.0000
  H   H21       1.0  0.3109270395377095  0.6600194475457145  0.7229597704384502  1.0000
  H   H22       1.0  0.6891787804527639  0.33998684447644933  0.22297529772583147  1.0000
  H   H23       1.0  0.323140632092084  0.6210841106408012  0.6247074440134242  1.0000
  H   H24       1.0  0.677045464113725  0.3789066618899072  0.1247200130231931  1.0000
  H   H25       1.0  0.11806205750518473  0.38121807035173566  0.7862235945905381  1.0000
  H   H26       1.0  0.8817308051188705  0.618808464820397  0.2862527760486415  1.0000
  H   H27       1.0  0.074975229886725  0.3701648934576838  0.894362763963734  1.0000
  H   H28       1.0  0.9247727870690525  0.6298558491569609  0.3943942365765949  1.0000
  H   H29       1.0  0.2820742358101286  0.6443717028674032  0.8321384908906423  1.0000
  H   H30       1.0  0.7180083729343283  0.35564044539319883  0.3321484911219699  1.0000
  H   H31       1.0  0.0812399511558652  0.4099850268344055  0.9922462761261953  1.0000
  H   H32       1.0  0.9186262394367546  0.5900337324253045  0.4922692636085486  1.0000
  H   H33       1.0  0.060426734428141116  0.029667452055264196  0.8438862414180406  1.0000
  H   H34       1.0  0.9395217868380712  0.9703311835570146  0.3438850142212644  1.0000
  H   H35       1.0  0.7762019347569337  0.35080289953781124  0.5672689679245478  1.0000
  H   H36       1.0  0.22387252761264884  0.6491895605606574  0.0672688848763059  1.0000
  H   H37       1.0  0.2705257537746917  0.34945725420952567  0.4258885135547175  1.0000
  H   H38       1.0  0.72950518083384  0.6505402992933186  0.9258862333995735  1.0000
  C   C1        1.0  0.7499356642818287  0.22933388322414325  0.42630948304769584  1.0000
  C   C2        1.0  0.25007315871796726  0.7706656168521206  0.9263139740010329  1.0000
  C   C3        1.0  0.7805681259320564  0.40914523436381967  0.4286163154321797  1.0000
  C   C4        1.0  0.2194417848568406  0.5908571881815234  0.9286048082650212  1.0000
  C   C5        1.0  0.2778604807507818  0.402739579381432  0.5727710027200388  1.0000
  C   C6        1.0  0.7221982879637068  0.5972485413201768  0.0727677683005155  1.0000
  C   C7        1.0  0.2528095973027363  0.22853598987947527  0.5676209496524577  1.0000
  C   C8        1.0  0.7472351478780653  0.7714579323257951  0.0676273780028964  1.0000
  C   C9        1.0  0.2424829004731635  0.17371568109053473  0.6111111960953011  1.0000
  C   C10       1.0  0.7575596811274893  0.8262745639519268  0.11111938327887569  1.0000
  C   C11       1.0  0.4071875104223964  0.1617716712580375  0.6481713750962114  1.0000
  C   C12       1.0  0.5928475420489862  0.8382206907276742  0.1481712208181065  1.0000
  C   C13       1.0  0.3938335434366992  0.1117135896128332  0.6898618454483055  1.0000
  C   C14       1.0  0.6061880472975361  0.8882828532526121  0.18985901311832978  1.0000
  C   C15       1.0  0.21777419981297189  0.070909676744833  0.6944414369195187  1.0000
  C   C16       1.0  0.7822430224666024  0.9290892148813371  0.1944446842660739  1.0000
  C   C17       1.0  0.0541300236904618  0.0833723094812768  0.6566259070615245  1.0000
  C   C18       1.0  0.9459048077545946  0.9166230042144224  0.15664197261241236  1.0000
  C   C19       1.0  0.0652166514896351  0.13442463485272782  0.6159187762113304  1.0000
  C   C20       1.0  0.9348305619910704  0.8655675733644019  0.11593844823843817  1.0000
  C   C21       1.0  0.14410018567751587  0.9281931879210675  0.8470298193301318  1.0000
  C   C22       1.0  0.8558691831196512  0.07180837112185401  0.3470262007871554  1.0000
  C   C23       1.0  0.11843565425184006  0.8720119887618977  0.8822168856818281  1.0000
  C   C24       1.0  0.8815606600821655  0.1279848789587916  0.38221565925130113  1.0000
  C   C25       1.0  0.44992033956552996  0.8398655347748373  0.8534768199413776  1.0000
  C   C26       1.0  0.5500814513190164  0.1601399320851016  0.3534646952354592  1.0000
  C   C27       1.0  0.47274350184943614  0.8936138652836334  0.8163679115181495  1.0000
  C   C28       1.0  0.527245835569616  0.1063962816233897  0.31634893427897026  1.0000
  C   C29       1.0  0.3200525124748523  0.9381668649802252  0.811201489398101  1.0000
  C   C30       1.0  0.6799165438366331  0.061837922380199487  0.3111867636890082  1.0000
  C   C31       1.0  0.19737847991468271  0.0173099758606909  0.7368392026409224  1.0000
  C   C32       1.0  0.8026124112194354  0.9826959137397254  0.23683805251172166  1.0000
  C   C33       1.0  0.3471017630809783  0.991231720172401  0.7685964125318206  1.0000
  C   C34       1.0  0.6528789410277868  0.008778202980906303  0.2685815127424789  1.0000
  C   C35       1.0  0.2702821594289588  0.827967709002422  0.8857325582123109  1.0000
  C   C36       1.0  0.7297199315807461  0.17203111559757642  0.3857284384986386  1.0000
  C   C37       1.0  0.301344443729363  0.5706943358366419  0.6391592463980516  1.0000
  C   C38       1.0  0.6988064195089053  0.42929553954039085  0.13916520056526588  1.0000
  C   C39       1.0  0.27854227765214296  0.4566593942497762  0.6181381015587205  1.0000
  C   C40       1.0  0.7215331731695329  0.543326996464586  0.1181381611244063  1.0000
  C   C41       1.0  0.1530571402847798  0.4707082955710788  0.9140454514523171  1.0000
  C   C42       1.0  0.8468602333088598  0.5293042638228656  0.4140668405733692  1.0000
  C   C43       1.0  0.12127053590315032  0.4173241578695937  0.8752640804442747  1.0000
  C   C44       1.0  0.8785652666223884  0.5826862900402789  0.375286598062921  1.0000
  C   C45       1.0  0.1477530168893537  0.42356725078767016  0.8140763101565369  1.0000
  C   C46       1.0  0.852115389143428  0.576451639262494  0.31409537966005263  1.0000
  C   C47       1.0  0.21003407971907248  0.48368595457525027  0.7874510684675753  1.0000
  C   C48       1.0  0.7899258384358065  0.5163308548502243  0.2874610252820773  1.0000
  C   C49       1.0  0.22948385697864637  0.539243209064324  0.8265222953524828  1.0000
  C   C50       1.0  0.7705153331546202  0.46076407245528384  0.32653532072313135  1.0000
  C   C51       1.0  0.24644655255174544  0.4925384436568904  0.723232503751767  1.0000
  C   C52       1.0  0.7535692891530984  0.5074683486479403  0.2232384496437518  1.0000
  C   C53       1.0  0.2762246291466042  0.5578257124115353  0.700978518415269  1.0000
  C   C54       1.0  0.7238563591670159  0.4421756268115262  0.20098878161076064  1.0000
  C   C55       1.0  0.2858951755473669  0.6114408330091408  0.741761021899883  1.0000
  C   C56       1.0  0.714189520445679  0.38856069780756297  0.2417749165322647  1.0000
  C   C57       1.0  0.2689451583926399  0.6027862814674237  0.8020112785879335  1.0000
  C   C58       1.0  0.7311162355654945  0.39721990447549865  0.3020222137246549  1.0000
  C   C59       1.0  0.25728686805265266  0.4427021353482275  0.6790112957117387  1.0000
  C   C60       1.0  0.7427224984153541  0.5572928023706326  0.1790147160092488  1.0000
  C   C61       1.0  0.29974426726830933  0.5209831977750738  0.597909569647129  1.0000
  C   C62       1.0  0.7004143971545532  0.4790040555468806  0.09791090734724146  1.0000
  C   C63       1.0  0.20273750428744822  0.5315903616253976  0.889229306805852  1.0000
  C   C64       1.0  0.7972337953337246  0.46841673431040226  0.38924847224431147  1.0000
  C   C65       1.0  0.13271904373775104  0.4605469283764024  0.9791792517431688  1.0000
  C   C66       1.0  0.8671993434701051  0.5394635112536151  0.47920489969323643  1.0000
  C   C67       1.0  0.9996795147640969  0.9797196054533333  0.8548502209434119  1.0000
  C   C68       1.0  0.0002610509148936999  0.0202761712086428  0.3548416356532513  1.0000
  Cl  Cl1       1.0  0.2596185556970454  0.3600439592653757  0.695517523110098  1.0000
  Cl  Cl2       1.0  0.7403448841570749  0.6399549456026533  0.1955085503583902  1.0000
  O   O1        1.0  0.6045942700605593  0.3880954934879242  0.4428853572489471  1.0000
  O   O2        1.0  0.39542879044189766  0.6118987441775376  0.9428763971243793  1.0000
  O   O3        1.0  0.9258581272570368  0.2488855806219307  0.4424907839571404  1.0000
  O   O4        1.0  0.07415877607578383  0.7511275829105986  0.9425084327055656  1.0000
  O   O5        1.0  0.08570812321005411  0.24824618958047756  0.5491102916686258  1.0000
  O   O6        1.0  0.9143413632220927  0.7517432770013316  0.049125114021933286  1.0000
  O   O7        1.0  0.9455652629229621  0.3833632583888047  0.44048943614716757  1.0000
  O   O8        1.0  0.0544570943834941  0.616649894813179  0.9404776215145886  1.0000
  O   O9        1.0  0.10580833804039713  0.38100392195757143  0.5555915630078303  1.0000
  O   O10       1.0  0.8942571149572487  0.6189802343768492  0.0555881324939662  1.0000
  O   O11       1.0  0.5871559247156314  0.25468997641679186  0.44159196233074016  1.0000
  O   O12       1.0  0.4128449154488436  0.7452989202407211  0.9415850630762463  1.0000
  O   O13       1.0  0.7672669485812947  0.3201681255335059  0.5341064254043458  1.0000
  O   O14       1.0  0.2327936575649971  0.6798227245233336  0.034104565511881894  1.0000
  O   O15       1.0  0.4477342007152174  0.38492882396411693  0.5552067774264912  1.0000
  O   O16       1.0  0.5523222257969636  0.6150655232497683  0.055204545757724995  1.0000
  O   O17       1.0  0.4260308208240602  0.25202138727788537  0.552605507025376  1.0000
  O   O18       1.0  0.5740095048617704  0.7479802296355943  0.0525995554971246  1.0000
  O   O19       1.0  0.2669165950675492  0.32087028176758275  0.4605002926827453  1.0000
  O   O20       1.0  0.7331176239517633  0.6791259784121523  0.9604993181977048  1.0000
  O   O21       1.0  0.16909988433166492  0.5019148773564552  0.0177132460713167  1.0000
  O   O22       1.0  0.8308994702347621  0.49809725807815397  0.5177319641266321  1.0000
  O   O23       1.0  0.8278099964437758  0.9710560646567007  0.8744592771098283  1.0000
  O   O24       1.0  0.1721966553382828  0.028943676720011507  0.3744491863105281  1.0000
