data_image0
_chemical_formula_structural       K2H48C24Br6O12
_chemical_formula_sum              "K2 H48 C24 Br6 O12"
_cell_length_a       7.953497943000141
_cell_length_b       8.952024048084203
_cell_length_c       14.028021258460239
_cell_angle_alpha    104.38935849630388
_cell_angle_beta     89.99999474266195
_cell_angle_gamma    89.9999814358858

_space_group_name_H-M_alt    "P 1"
_space_group_IT_number       1

loop_
  _space_group_symop_operation_xyz
  'x, y, z'

loop_
  _atom_site_type_symbol
  _atom_site_label
  _atom_site_symmetry_multiplicity
  _atom_site_fract_x
  _atom_site_fract_y
  _atom_site_fract_z
  _atom_site_occupancy
  K   K1        1.0  0.5000012572456853  0.4999992978408372  0.5000000465336784  1.0000
  K   K2        1.0  0.999999001319729  9.863707007e-07  1.299230163e-07  1.0000
  H   H1        1.0  0.366153152850778  0.7977075584084616  0.8140248778140207  1.0000
  H   H2        1.0  0.8661533094430779  0.7022926863023428  0.6859749289324668  1.0000
  H   H3        1.0  0.6338468470235127  0.20229219051746844  0.1859753981613821  1.0000
  H   H4        1.0  0.1338479477394756  0.29770821589630003  0.314024817096481  1.0000
  H   H5        1.0  0.574152209369892  0.7714096089877246  0.7654613629741078  1.0000
  H   H6        1.0  0.0741520901915536  0.7285895798463643  0.7345404303707  1.0000
  H   H7        1.0  0.42584779050428506  0.22859013988004756  0.2345403387098983  1.0000
  H   H8        1.0  0.9258491669911137  0.2714101690502774  0.26546055845893335  1.0000
  H   H9        1.0  0.4692663153008779  0.5581796480024509  0.8399570921420365  1.0000
  H   H10       1.0  0.9692663900568803  0.9418194090217824  0.660043233623945  1.0000
  H   H11       1.0  0.5307336845734126  0.44182010092348634  0.1600431838333662  1.0000
  H   H12       1.0  0.0307336098174105  0.058180339904147595  0.3399570423514575  1.0000
  H   H13       1.0  0.3139485064428911  0.5115576164049358  0.7445417355503992  1.0000
  H   H14       1.0  0.8139485493293959  0.9884414924270076  0.7554593195289031  1.0000
  H   H15       1.0  0.6860514934313429  0.48844213249191887  0.25545925327929814  1.0000
  H   H16       1.0  0.18605145054484498  0.011558256469840001  0.24454166930080132  1.0000
  H   H17       1.0  0.4404362972397138  0.26525865977106367  0.693117721556284  1.0000
  H   H18       1.0  0.9404351656951916  0.23474121231839726  0.8068823033032047  1.0000
  H   H19       1.0  0.5595637026345769  0.7347410891548664  0.3068825544191185  1.0000
  H   H20       1.0  0.059564834179155896  0.7652585366366154  0.19311725981789613  1.0000
  H   H21       1.0  0.6145911024121915  0.3092356253085811  0.7763856074165859  1.0000
  H   H22       1.0  0.11458974123255669  0.19076204904297359  0.7236140861568643  1.0000
  H   H23       1.0  0.3854101547709731  0.6907618171294699  0.2236143027429165  1.0000
  H   H24       1.0  0.8854102586417908  0.8092376999120462  0.2763854769642364  1.0000
  H   H25       1.0  0.8061319994189021  0.2844560572905692  0.6258581917265076  1.0000
  H   H26       1.0  0.30613060546244947  0.2155438595934527  0.874142560219511  1.0000
  H   H27       1.0  0.19386800045539584  0.7155436916353607  0.3741420842488949  1.0000
  H   H28       1.0  0.6938693944116209  0.7844570425763137  0.12585789866380276  1.0000
  H   H29       1.0  0.7044195499333128  0.11057307530131058  0.6351959460299526  1.0000
  H   H30       1.0  0.204421866988568  0.3894268756446095  0.864801965277117  1.0000
  H   H31       1.0  0.29557919263260857  0.8894266736539153  0.3648036170912121  1.0000
  H   H32       1.0  0.7955793901940993  0.6105740266121984  0.1351963550432274  1.0000
  H   H33       1.0  0.7052745532384037  0.0007249456359303999  0.4604336236825191  1.0000
  H   H34       1.0  0.2052768824818969  0.4992765901536415  0.039567479768308475  1.0000
  H   H35       1.0  0.2947229320188071  0.9992759565342623  0.5395668352009366  1.0000
  H   H36       1.0  0.7947256320089763  0.5007243119866301  0.960433691969179  1.0000
  H   H37       1.0  0.8270410737951793  0.16524926791120723  0.4516367896487168  1.0000
  H   H38       1.0  0.32704094606378925  0.3347499208100971  0.04836250937421482  1.0000
  H   H39       1.0  0.17295766877084867  0.834749327742017  0.5483640162731334  1.0000
  H   H40       1.0  0.6729577965023522  0.665248674901285  0.951636870839039  1.0000
  H   H41       1.0  0.3253497011186965  0.9646624394705302  0.7049500218339803  1.0000
  H   H42       1.0  0.8253486430050214  0.5353366656146574  0.7950496063285969  1.0000
  H   H43       1.0  0.6746502987555941  0.0353373094554073  0.29505025414142244  1.0000
  H   H44       1.0  0.17465009956112001  0.46466193009673157  0.2049497738846568  1.0000
  H   H45       1.0  0.5219072559688483  0.9168569577605368  0.6416166545193961  1.0000
  H   H46       1.0  0.021905912023015596  0.5831434018414187  0.8583831887068814  1.0000
  H   H47       1.0  0.47809400121370527  0.08314394443810609  0.3583830915095518  1.0000
  H   H48       1.0  0.9780940878512822  0.41685634708451863  0.1416170872685214  1.0000
  C   C1        1.0  0.44452874863029723  0.7257251507139985  0.7552373503801492  1.0000
  C   C2        1.0  0.9445288700646726  0.7742750677810547  0.744763873769493  1.0000
  C   C3        1.0  0.5554712512437731  0.27427575145576805  0.24476310850317157  1.0000
  C   C4        1.0  0.055471129809617985  0.2257246811448752  0.2552364022059095  1.0000
  C   C5        1.0  0.44069650141949507  0.5611581646772947  0.7633915445350753  1.0000
  C   C6        1.0  0.9406965650954574  0.938840901882017  0.7366087842584507  1.0000
  C   C7        1.0  0.5593047557632287  0.4388415842484291  0.23660873144025635  1.0000
  C   C8        1.0  0.05930469208725949  0.061158847043707  0.263391491716888  1.0000
  C   C9        1.0  0.5680078297244932  0.3160139696695978  0.7032114283764275  1.0000
  C   C10       1.0  0.06800771667450078  0.183986026745508  0.796787923094918  1.0000
  C   C11       1.0  0.4319921701500745  0.6839846260415782  0.29678795183676243  1.0000
  C   C12       1.0  0.9319922831996265  0.8160148754533479  0.20321182293409384  1.0000
  C   C13       1.0  0.6826781526523787  0.2267832233588294  0.6236586343162855  1.0000
  C   C14       1.0  0.18267673765195264  0.27321673478567027  0.8763407050035215  1.0000
  C   C15       1.0  0.3173218472219689  0.7732165255961904  0.37634092880480813  1.0000
  C   C16       1.0  0.8173220049137482  0.7267841674133918  0.1236590410255616  1.0000
  C   C17       1.0  0.6978149216704636  0.11989077343228874  0.45137107620648464  1.0000
  C   C18       1.0  0.19781477762014527  0.38011076487639883  0.048629315180669194  1.0000
  C   C19       1.0  0.30218382089534396  0.8801089754647718  0.5486299126232907  1.0000
  C   C20       1.0  0.8021839649454989  0.6198901372935807  0.9513711437027155  1.0000
  C   C21       1.0  0.3889883869686058  0.8814624352016055  0.6442906788216477  1.0000
  C   C22       1.0  0.8889872893747749  0.6185366486153114  0.8557096554514487  1.0000
  C   C23       1.0  0.6110116129054646  0.11853846696816824  0.3557097800616731  1.0000
  C   C24       1.0  0.1110114531913098  0.38146194706699527  0.14429043761610671  1.0000
  Br  Br1       1.0  0.8317684520931009  0.7248847126557721  0.46404873945577674  1.0000
  Br  Br2       1.0  0.33176834772987707  0.7751171287471053  0.035952124605927296  1.0000
  Br  Br3       1.0  0.16823154778091257  0.27511618948491895  0.5359524322818459  1.0000
  Br  Br4       1.0  0.6682316521442502  0.22488377345174373  0.9640476214230915  1.0000
  Br  Br5       1.0  1.2925144689999993e-07  0.499999214404376  0.5000000200412559  1.0000
  Br  Br6       1.0  0.49999987056038  0.9999986791478507  0.9999994067056691  1.0000
  O   O1        1.0  0.3811692117027192  0.7302013337654358  0.6605232809388754  1.0000
  O   O2        1.0  0.8811693197152975  0.7697965994170559  0.8394768712548385  1.0000
  O   O3        1.0  0.6188307881717917  0.2697972619166578  0.33947681212860914  1.0000
  O   O4        1.0  0.1188306801592134  0.23020199626503768  0.1605232218126531  1.0000
  O   O5        1.0  0.5612799446883513  0.47290138835924717  0.6967412808303521  1.0000
  O   O6        1.0  0.06127988690849409  0.027098610272183497  0.8032587842082465  1.0000
  O   O7        1.0  0.43872005518571905  0.5270995138105262  0.3032591780529614  1.0000
  O   O8        1.0  0.9387188556573703  0.9729011386539599  0.1967414917672272  1.0000
  O   O9        1.0  0.6038235495489772  0.21438035556823107  0.5305966896107535  1.0000
  O   O10       1.0  0.1038208580225515  0.28562308865453195  0.969402493934787  1.0000
  O   O11       1.0  0.39617519301672377  0.7856205466308311  0.4694030564183295  1.0000
  O   O12       1.0  0.8961766272343324  0.7143801200614985  0.03059690505589428  1.0000
