data_image0
_chemical_formula_structural       K2Fe2H36C30N4O20
_chemical_formula_sum              "K2 Fe2 H36 C30 N4 O20"
_cell_length_a       7.561815843636181
_cell_length_b       9.202233213409622
_cell_length_c       13.348525297415579
_cell_angle_alpha    75.79172584711422
_cell_angle_beta     81.22260899030763
_cell_angle_gamma    78.78299993537769

_space_group_name_H-M_alt    "P 1"
_space_group_IT_number       1

loop_
  _space_group_symop_operation_xyz
  'x, y, z'

loop_
  _atom_site_type_symbol
  _atom_site_label
  _atom_site_symmetry_multiplicity
  _atom_site_fract_x
  _atom_site_fract_y
  _atom_site_fract_z
  _atom_site_occupancy
  K   K1        1.0  0.3828434534146154  0.7041367619611237  0.8963644525960532  1.0000
  K   K2        1.0  0.617153264492771  0.2958667186511618  0.10363743807477735  1.0000
  Fe  Fe1       1.0  0.745196598570857  0.3003420408413362  0.7681038309476449  1.0000
  Fe  Fe2       1.0  0.25480251533856096  0.6996557503647978  0.2318965660675119  1.0000
  H   H1        1.0  0.09497501277903102  0.9334926108504432  0.7698574078161684  1.0000
  H   H2        1.0  0.9050268254832827  0.0665051795101448  0.23014573684177012  1.0000
  H   H3        1.0  0.06310095059762938  0.0671917276233387  0.8492457926961948  1.0000
  H   H4        1.0  0.936895060654713  0.9328083443496312  0.1507552472363258  1.0000
  H   H5        1.0  0.687495051888497  0.014090184209919697  0.6708174941438897  1.0000
  H   H6        1.0  0.312523318331877  0.9859041343094153  0.3291727451962528  1.0000
  H   H7        1.0  0.9219055946480952  0.9798082919111907  0.6317215742249829  1.0000
  H   H8        1.0  0.0781135962366193  0.0202030720928761  0.3682709190203681  1.0000
  H   H9        1.0  0.0763498764121167  0.49703920802234347  0.8327039864039065  1.0000
  H   H10       1.0  0.9236444019360519  0.5029563338065374  0.16730248189432465  1.0000
  H   H11       1.0  0.19353765173107013  0.3143558241010496  0.8259342570229719  1.0000
  H   H12       1.0  0.8064557366809665  0.6856374497704962  0.17407342974524198  1.0000
  H   H13       1.0  0.3165568486211895  0.9579342625846083  0.6402564003673632  1.0000
  H   H14       1.0  0.6834483577734003  0.0420601164257022  0.3597492671599908  1.0000
  H   H15       1.0  0.4381626234773606  0.39264523725788786  0.46130254050791564  1.0000
  H   H16       1.0  0.5618355770119051  0.6073502831056173  0.5386975792643439  1.0000
  H   H17       1.0  0.19278841380781134  0.5206604961359388  0.5654052288086574  1.0000
  H   H18       1.0  0.8072122573011528  0.47933615540809893  0.43459522067603723  1.0000
  H   H19       1.0  0.5041992442076333  0.10979220150614569  0.497025539543948  1.0000
  H   H20       1.0  0.4958003184580732  0.8902033184345866  0.5029759540497026  1.0000
  H   H21       1.0  0.8969757182540831  0.5614265718088588  0.5995749139936635  1.0000
  H   H22       1.0  0.10303012434344792  0.4385712071848785  0.4004271171333684  1.0000
  H   H23       1.0  0.011701128817890103  0.6260013943766438  0.6835638315925933  1.0000
  H   H24       1.0  0.9882971773495226  0.37399413897068  0.3164430188876111  1.0000
  H   H25       1.0  0.7882675764187752  0.989912699400648  0.9234771367337942  1.0000
  H   H26       1.0  0.2117314318124883  0.010085078821660402  0.07651652957341779  1.0000
  H   H27       1.0  0.7493934669543805  0.877639340734447  0.8393035399288492  1.0000
  H   H28       1.0  0.2506059824567187  0.1223629767106118  0.16068781132988616  1.0000
  H   H29       1.0  0.603899350075551  0.6683301817443735  0.07561084643402444  1.0000
  H   H30       1.0  0.3960973560898182  0.3316732974252545  0.9243902963803662  1.0000
  H   H31       1.0  0.782849658101398  0.6436787791354347  0.001358107182539888  1.0000
  H   H32       1.0  0.2171474968202602  0.3563224287687916  0.9986441322103445  1.0000
  H   H33       1.0  0.2670731231467158  0.7063733128633912  0.6361115729696039  1.0000
  H   H34       1.0  0.732921108988066  0.2936426575446589  0.3638831647348653  1.0000
  H   H35       1.0  0.3972657883352041  0.602169999904639  0.716594017741059  1.0000
  H   H36       1.0  0.6027238074269974  0.3978493938176371  0.2834028061241085  1.0000
  C   C1        1.0  0.044484405481938404  0.05331945323383282  0.7723659545191808  1.0000
  C   C2        1.0  0.9555171907892088  0.9466794705954839  0.22763552006485102  1.0000
  C   C3        1.0  0.11460793426538629  0.3128549705272122  0.6633530662034133  1.0000
  C   C4        1.0  0.8853992705085857  0.6871428080437454  0.33665033874501654  1.0000
  C   C5        1.0  0.9441421022424874  0.31332237744856434  0.9246491405449078  1.0000
  C   C6        1.0  0.055848124802388065  0.6866731699765795  0.0753554498584705  1.0000
  C   C7        1.0  0.8129589235341045  0.06198568389785919  0.6606299900877701  1.0000
  C   C8        1.0  0.1870537177780136  0.9380177397058345  0.3393614636079434  1.0000
  C   C9        1.0  0.14905976567668225  0.15259555887175938  0.6855495298947787  1.0000
  C   C10       1.0  0.8509463306540397  0.8474010880958857  0.3144549191625998  1.0000
  C   C11       1.0  0.786579912066941  0.21149972085006397  0.5823241540004175  1.0000
  C   C12       1.0  0.21342209015798366  0.7885037378740591  0.41767276196582503  1.0000
  C   C13       1.0  0.057660018041502746  0.38336931220085557  0.828661864181754  1.0000
  C   C14       1.0  0.9423355637730282  0.6166262219920212  0.17134223865567585  1.0000
  C   C15       1.0  0.289308589318459  0.0819023615997949  0.6235303337415771  1.0000
  C   C16       1.0  0.7106965935920968  0.9180920145252214  0.3764738380728972  1.0000
  C   C17       1.0  0.35772469928899403  0.3239549647411977  0.5227963237274551  1.0000
  C   C18       1.0  0.6422777710106897  0.6760394136720081  0.4772058483006845  1.0000
  C   C19       1.0  0.21753438922062424  0.3971234774791199  0.5823393161221091  1.0000
  C   C20       1.0  0.7824708095975198  0.6028777120193426  0.4176629397782889  1.0000
  C   C21       1.0  0.3935447670035899  0.16612600755279772  0.5431865899983919  1.0000
  C   C22       1.0  0.606456157838565  0.8338695119651547  0.4568162774166423  1.0000
  C   C23       1.0  0.9139626424447583  0.5539304867735665  0.680952160750813  1.0000
  C   C24       1.0  0.08603402432898836  0.4460661761373287  0.3190494022647883  1.0000
  C   C25       1.0  0.728969819171432  0.6102659455890559  0.7320176309905834  1.0000
  C   C26       1.0  0.27102816281069403  0.38973071112847185  0.26798231442064957  1.0000
  C   C27       1.0  0.5417474251527493  0.07371627572710793  0.8545000104872287  1.0000
  C   C28       1.0  0.45825278545790843  0.926282645639688  0.14549859456253234  1.0000
  C   C29       1.0  0.7387609357697754  0.9937870856625893  0.8495171058020645  1.0000
  C   C30       1.0  0.2612372219169785  0.006215240861131099  0.1504773587739194  1.0000
  N   N1        1.0  0.8459071619319829  0.0856207360705739  0.7626195204975729  1.0000
  N   N2        1.0  0.1540954723303187  0.9143793107061738  0.23737642283887792  1.0000
  N   N3        1.0  0.9777786667279784  0.39196333740895284  0.7304452433368597  1.0000
  N   N4        1.0  0.022222039607036913  0.6080333184630291  0.2695574497171478  1.0000
  O   O1        1.0  0.5221369596024416  0.2220164425628326  0.8185718864428324  1.0000
  O   O2        1.0  0.477861440075486  0.7779847504921449  0.18142424820705116  1.0000
  O   O3        1.0  0.8022879968078697  0.26442445704694967  0.9092066192646087  1.0000
  O   O4        1.0  0.19770622283020597  0.7355710775687001  0.09079610975143744  1.0000
  O   O5        1.0  0.7332370834626474  0.3308729180701278  0.6224033988225841  1.0000
  O   O6        1.0  0.2667655860256986  0.6691271330345642  0.3775947880831794  1.0000
  O   O7        1.0  0.8085169076401825  0.2161509269686945  0.48745332887529713  1.0000
  O   O8        1.0  0.1914799272617529  0.7838582162365313  0.5125393416780925  1.0000
  O   O9        1.0  0.9896867116848326  0.30079603494161944  0.012858874344026116  1.0000
  O   O10       1.0  0.010304417038184977  0.6992017818835096  0.9871452454458165  1.0000
  O   O11       1.0  0.4126995964305706  0.005187511176387702  0.8911776309389197  1.0000
  O   O12       1.0  0.5872985729982004  0.9948148167899689  0.10881758149349711  1.0000
  O   O13       1.0  0.6259370081166934  0.5058268590872572  0.7702748587736181  1.0000
  O   O14       1.0  0.3740585502137891  0.4941686722203258  0.22972774835093188  1.0000
  O   O15       1.0  0.6779533761493538  0.7463032808488849  0.7329528981644629  1.0000
  O   O16       1.0  0.3220378888866763  0.25369338952368986  0.26704616099133455  1.0000
  O   O17       1.0  0.6607006895645852  0.6146906067287361  0.02056190047059658  1.0000
  O   O18       1.0  0.33929646535706587  0.38531060117549026  0.979440338922288  1.0000
  O   O19       1.0  0.28250765607293726  0.6736896656388965  0.7108620323685457  1.0000
  O   O20       1.0  0.7174877473807655  0.3263342555164996  0.2891327367386438  1.0000
