data_image0
_chemical_formula_structural       Cu3H16C30N2O16
_chemical_formula_sum              "Cu3 H16 C30 N2 O16"
_cell_length_a       8.881586941557817
_cell_length_b       8.958660097049172
_cell_length_c       9.733577790596248
_cell_angle_alpha    96.86546771250394
_cell_angle_beta     105.32536845885849
_cell_angle_gamma    95.44057911533717

_space_group_name_H-M_alt    "P 1"
_space_group_IT_number       1

loop_
  _space_group_symop_operation_xyz
  'x, y, z'

loop_
  _atom_site_type_symbol
  _atom_site_label
  _atom_site_symmetry_multiplicity
  _atom_site_fract_x
  _atom_site_fract_y
  _atom_site_fract_z
  _atom_site_occupancy
  Cu  Cu1       1.0  0.9999993999102443  0.9999997635682546  0.5000008685468488  1.0000
  Cu  Cu2       1.0  0.0391443234223203  0.6259087398872154  0.4132421844722387  1.0000
  Cu  Cu3       1.0  0.9608550056555247  0.3740943341486869  0.5867561544838439  1.0000
  H   H1        1.0  0.24309709083757272  0.4507755507969335  0.2765984264489703  1.0000
  H   H2        1.0  0.756902003641919  0.5492332811679502  0.7233964499211041  1.0000
  H   H3        1.0  0.5233600945314976  0.4861440270353369  0.26879475473496933  1.0000
  H   H4        1.0  0.4766382508390238  0.5138602995196065  0.7311973376168126  1.0000
  H   H5        1.0  0.5882608938009071  0.9104347154319112  0.5521129867530306  1.0000
  H   H6        1.0  0.4117402097903948  0.0895647935766064  0.447892532589556  1.0000
  H   H7        1.0  0.3068755142716739  0.8531390566634371  0.5553698196750574  1.0000
  H   H8        1.0  0.6931224715415925  0.14686284021807688  0.4446331921809731  1.0000
  H   H9        1.0  0.006963085256188612  0.6839460838663031  0.9762183659533433  1.0000
  H   H10       1.0  0.9930348980575376  0.31605584250995383  0.023782593983789093  1.0000
  H   H11       1.0  0.259467737436907  0.11217873005236362  0.2097784899304429  1.0000
  H   H12       1.0  0.7405368484887589  0.8878207617670952  0.7902227212322543  1.0000
  H   H13       1.0  0.280788334007184  0.9678482873797878  0.7782483109587304  1.0000
  H   H14       1.0  0.7192112271694882  0.03214905822188291  0.2217514386644694  1.0000
  H   H15       1.0  0.5329312055603522  0.2917558375508875  0.9240495775919016  1.0000
  H   H16       1.0  0.4670718796478539  0.7082346729434408  0.07594401361532736  1.0000
  C   C1        1.0  0.32455393952948697  0.5497588502472298  0.33694693335208836  1.0000
  C   C2        1.0  0.675444409590348  0.4502454320656  0.6630482368780477  1.0000
  C   C3        1.0  0.48010554904354313  0.5715393887706384  0.332123804483885  1.0000
  C   C4        1.0  0.5198929842291095  0.4284660567630994  0.6678694968521983  1.0000
  C   C5        1.0  0.5765994472614581  0.7035930377533077  0.40851262691283813  1.0000
  C   C6        1.0  0.4233983469003775  0.2964077843915192  0.5914860980805515  1.0000
  C   C7        1.0  0.5150090483221206  0.807409372944832  0.4901459080372775  1.0000
  C   C8        1.0  0.4849910753111573  0.19259134434060604  0.5098564425793626  1.0000
  C   C9        1.0  0.3597220696359713  0.7761402708939401  0.4926444451070608  1.0000
  C   C10       1.0  0.6402770777885961  0.22386161042630454  0.5073578146619795  1.0000
  C   C11       1.0  0.7457976371266711  0.7342562747299155  0.408678117899953  1.0000
  C   C12       1.0  0.2542003436875219  0.26574568114108393  0.5913207901182815  1.0000
  C   C13       1.0  0.13699995124744652  0.81428067692368  0.8618046900559122  1.0000
  C   C14       1.0  0.8629988216226466  0.18571895169159805  0.138196177703975  1.0000
  C   C15       1.0  0.08390262775670719  0.7876534368327909  0.9809206493042808  1.0000
  C   C16       1.0  0.9160984720852811  0.21234611641784087  0.01908179215996599  1.0000
  C   C17       1.0  0.12584689634346796  0.8954060849985268  0.10603687014585012  1.0000
  C   C18       1.0  0.8741553651098287  0.10459345269083543  0.8939648192313924  1.0000
  C   C19       1.0  0.22644473091180123  0.027249735739616195  0.1135507977584993  1.0000
  C   C20       1.0  0.7735565568323112  0.9727509364898099  0.8864528526900415  1.0000
  C   C21       1.0  0.2861324413126383  0.05092376835909107  0.9971271378838508  1.0000
  C   C22       1.0  0.713867117364501  0.9490736067373221  0.002870559820451104  1.0000
  C   C23       1.0  0.23940872684655543  0.9458782106244711  0.8703983832558889  1.0000
  C   C24       1.0  0.7605898606209394  0.05412026951726999  0.12960332743860903  1.0000
  C   C25       1.0  0.08030805746840032  0.7032378858641408  0.7245391461416446  1.0000
  C   C26       1.0  0.9196903445965106  0.29675944580405667  0.2754634074874503  1.0000
  C   C27       1.0  0.3984872958680015  0.18951880933794737  0.01386466516234463  1.0000
  C   C28       1.0  0.6015218718550628  0.8104940348624441  0.986152627516269  1.0000
  C   C29       1.0  0.06103897029272079  0.8658667830394507  0.22984651671495732  1.0000
  C   C30       1.0  0.9389617562445592  0.1341305027588362  0.7701555586995923  1.0000
  N   N1        1.0  0.2657383859769809  0.6498856973667628  0.4165561838084599  1.0000
  N   N2        1.0  0.7342609443506377  0.3501173619217753  0.5834431811070715  1.0000
  O   O1        1.0  0.8181822686369175  0.6182101762814938  0.4112904975267783  1.0000
  O   O2        1.0  0.181815708427969  0.38179182383161964  0.5887053326131095  1.0000
  O   O3        1.0  0.796675527382483  0.8714160912070454  0.4090198325744154  1.0000
  O   O4        1.0  0.2033236175425444  0.1285858196079488  0.5909803752757199  1.0000
  O   O5        1.0  0.013380610346111203  0.5743152477305031  0.7308220547731992  1.0000
  O   O6        1.0  0.986622256510721  0.425680828976965  0.26918141132085793  1.0000
  O   O7        1.0  0.10334589557835018  0.7503887504219405  0.6113797068193207  1.0000
  O   O8        1.0  0.8966503649172497  0.24960980508444663  0.3886204301708177  1.0000
  O   O9        1.0  0.9889667411218781  0.7362255317805834  0.22281017397782676  1.0000
  O   O10       1.0  0.011035936583063203  0.2637694406954623  0.7771910571724804  1.0000
  O   O11       1.0  0.08937346188341169  0.9766588149637556  0.3344245961038368  1.0000
  O   O12       1.0  0.9106261017928006  0.023338501143172204  0.6655772054382538  1.0000
  O   O13       1.0  0.4583424291060396  0.1982599070461291  0.9000649038458306  1.0000
  O   O14       1.0  0.5416637763797354  0.801728186080453  0.09993324676685235  1.0000
  O   O15       1.0  0.4375558441046295  0.2874021041505871  0.12075990189403298  1.0000
  O   O16       1.0  0.5624402526892426  0.7125887209219144  0.8792228124434374  1.0000
