data_image0
_chemical_formula_structural       Zn4H40C64N40
_chemical_formula_sum              "Zn4 H40 C64 N40"
_cell_length_a       7.76090561504075
_cell_length_b       14.81401278417719
_cell_length_c       15.909642414751927
_cell_angle_alpha    110.95962225269969
_cell_angle_beta     90.00035824239721
_cell_angle_gamma    89.99978006278346

_space_group_name_H-M_alt    "P 1"
_space_group_IT_number       1

loop_
  _space_group_symop_operation_xyz
  'x, y, z'

loop_
  _atom_site_type_symbol
  _atom_site_label
  _atom_site_symmetry_multiplicity
  _atom_site_fract_x
  _atom_site_fract_y
  _atom_site_fract_z
  _atom_site_occupancy
  Zn  Zn1       1.0  0.5369246584603362  0.17436847261497226  0.9367108305560733  1.0000
  Zn  Zn2       1.0  0.0369220714643603  0.32562800095447386  0.5632855750772378  1.0000
  Zn  Zn3       1.0  0.4630889430404822  0.825636219503167  0.0632911404747389  1.0000
  Zn  Zn4       1.0  0.9630696253710627  0.6743701284571343  0.43671181028793876  1.0000
  H   H1        1.0  0.7058398128954411  0.0362250218215934  0.7482003628359876  1.0000
  H   H2        1.0  0.20583862515823637  0.46377007831036116  0.7518061807846124  1.0000
  H   H3        1.0  0.2941518840076328  0.9637711723773847  0.2518064706893098  1.0000
  H   H4        1.0  0.7941492061241108  0.5362308691870794  0.2481889504623496  1.0000
  H   H5        1.0  0.7251742129247493  0.019680955521629098  0.5869301390813247  1.0000
  H   H6        1.0  0.225162084818578  0.4803106436263605  0.9130810165165499  1.0000
  H   H7        1.0  0.27482521503484497  0.9803152386736683  0.41307669445453843  1.0000
  H   H8        1.0  0.7748167269222249  0.51968530307213  0.08691505137627327  1.0000
  H   H9        1.0  0.39619662078354884  0.2707564170830067  0.6497837078172707  1.0000
  H   H10       1.0  0.8961899647704499  0.22923466968924092  0.8502127167977562  1.0000
  H   H11       1.0  0.6038066726518923  0.7292446759991974  0.35021775616544193  1.0000
  H   H12       1.0  0.10380302057394183  0.7707540061247329  0.14977917068911487  1.0000
  H   H13       1.0  0.3818204313147292  0.2730379026413914  0.806971946666138  1.0000
  H   H14       1.0  0.8818246630865901  0.2269633450220638  0.6930288980617547  1.0000
  H   H15       1.0  0.6181751310773935  0.7269625114021209  0.19303118905930455  1.0000
  H   H16       1.0  0.11817605330796968  0.7730340325468104  0.3069669927117359  1.0000
  H   H17       1.0  0.655058992478402  0.07616724657847838  0.4663452479613426  1.0000
  H   H18       1.0  0.1550385527781799  0.4238288523091995  0.03365612269742254  1.0000
  H   H19       1.0  0.3449546090660078  0.9238281520939892  0.5336581911754833  1.0000
  H   H20       1.0  0.8449479899815415  0.5761727742312245  0.9663373367944741  1.0000
  H   H21       1.0  0.49978719951747763  0.31576460763211134  0.40821497571647564  1.0000
  H   H22       1.0  0.9997659666648887  0.18423173992300687  0.0917812326728153  1.0000
  H   H23       1.0  0.5002405756029874  0.6842401427161279  0.5917895284195538  1.0000
  H   H24       1.0  0.0002489233396972  0.8157642067583025  0.9082148352693193  1.0000
  H   H25       1.0  0.5690958214037637  0.06951937923710722  0.22003390333527048  1.0000
  H   H26       1.0  0.0690926623770594  0.4304860367578056  0.2799632311573176  1.0000
  H   H27       1.0  0.43091133751754296  0.9304902845689181  0.7799658644856178  1.0000
  H   H28       1.0  0.9309170735846453  0.5695106180867525  0.7200324315674037  1.0000
  H   H29       1.0  0.5814709815382103  0.051957004344082194  0.05809907444092489  1.0000
  H   H30       1.0  0.0814646142163582  0.44804198273633483  0.4418998409562462  1.0000
  H   H31       1.0  0.41854004294413744  0.9480425996167765  0.9419000336157807  1.0000
  H   H32       1.0  0.9185283710856782  0.551962534681067  0.5580945307888356  1.0000
  H   H33       1.0  0.4954661567355886  0.3443006287846869  0.11878798555305538  1.0000
  H   H34       1.0  0.9954501308201247  0.15569943839965114  0.3812137842366069  1.0000
  H   H35       1.0  0.5045525988193375  0.6557063042871076  0.8812178360253923  1.0000
  H   H36       1.0  0.004553162606931899  0.844306713722645  0.6187892761737642  1.0000
  H   H37       1.0  0.4770504236689348  0.3753881036658199  0.2821246385199743  1.0000
  H   H38       1.0  0.9770338220630634  0.12461770458875068  0.21787637232862517  1.0000
  H   H39       1.0  0.5229747744390849  0.6246152158028337  0.7178800427618128  1.0000
  H   H40       1.0  0.022979779461366003  0.8753848921654209  0.7821280808762193  1.0000
  C   C1        1.0  0.636708365583104  0.08588138662472028  0.7236608564531437  1.0000
  C   C2        1.0  0.13670914605375367  0.41411588929867793  0.7763436492826088  1.0000
  C   C3        1.0  0.36328719681942095  0.9141176110971899  0.27634308969303584  1.0000
  C   C4        1.0  0.8632761082137609  0.585885072759197  0.22365211523229073  1.0000
  C   C5        1.0  0.648654880038194  0.0775532058019195  0.633827143115127  1.0000
  C   C6        1.0  0.14863613416778076  0.42243830610634336  0.866176837306355  1.0000
  C   C7        1.0  0.3513535674729411  0.922444390151469  0.3661782467408655  1.0000
  C   C8        1.0  0.8513426775538238  0.5775619332345912  0.13381869913864364  1.0000
  C   C9        1.0  0.5620588840508278  0.14427031392292383  0.6047249867173221  1.0000
  C   C10       1.0  0.06203842481348689  0.355724069461324  0.8952752363180635  1.0000
  C   C11       1.0  0.43794440940661156  0.8557272237960659  0.3952778700457741  1.0000
  C   C12       1.0  0.937936521378248  0.644274709882211  0.1047192107279997  1.0000
  C   C13       1.0  0.4648255290317708  0.2167805199047947  0.6686606212553341  1.0000
  C   C14       1.0  0.9648092145257936  0.2832134505985806  0.831339436287891  1.0000
  C   C15       1.0  0.5351790529282783  0.7832162659751416  0.3313407409055031  1.0000
  C   C16       1.0  0.035174751254672315  0.7167788679381742  0.16865485803504743  1.0000
  C   C17       1.0  0.4580446589520336  0.21847745911955488  0.7562647401855286  1.0000
  C   C18       1.0  0.9580362539856538  0.2815193504841389  0.7437336779901356  1.0000
  C   C19       1.0  0.5419560574605596  0.7815236194046591  0.2437360905222049  1.0000
  C   C20       1.0  0.041963173913885  0.7184766253229568  0.25626365647379146  1.0000
  C   C21       1.0  0.5735131648415434  0.1344608182950253  0.510440531298002  1.0000
  C   C22       1.0  0.0734925530216017  0.3655313860154975  0.9895590388665239  1.0000
  C   C23       1.0  0.4265030137073041  0.8655359821386026  0.4895614641501566  1.0000
  C   C24       1.0  0.926492701234274  0.6344644442062232  0.01043196286340726  1.0000
  C   C25       1.0  0.5071574480646673  0.2405308384803462  0.3610660982506175  1.0000
  C   C26       1.0  0.007133123889971701  0.2594653867721775  0.13893423481221837  1.0000
  C   C27       1.0  0.4928754810906711  0.7594731745862189  0.6389375445599014  1.0000
  C   C28       1.0  0.9928714580312389  0.7405305307956168  0.8610605665729025  1.0000
  C   C29       1.0  0.5188874840948473  0.22399019640005943  0.2651372473916567  1.0000
  C   C30       1.0  0.018873286935367207  0.2760102811951412  0.23486131976073207  1.0000
  C   C31       1.0  0.4811377139919558  0.7760137729925418  0.7348644955939106  1.0000
  C   C32       1.0  0.9811403145770115  0.7239850010036192  0.7651370532043984  1.0000
  C   C33       1.0  0.5494044634330919  0.1318037321344434  0.20006905148976978  1.0000
  C   C34       1.0  0.049395575854411795  0.3682016880661294  0.29992739589316386  1.0000
  C   C35       1.0  0.4506014069591516  0.868200770717614  0.7999246870014571  1.0000
  C   C36       1.0  0.9506141601201251  0.6317993758945732  0.7000728015554287  1.0000
  C   C37       1.0  0.5572277526244703  0.12210314698137377  0.1102096396126129  1.0000
  C   C38       1.0  0.05721994509713821  0.37789145408279984  0.3897846747848845  1.0000
  C   C39       1.0  0.4427742522715406  0.877901472346224  0.8897891650450374  1.0000
  C   C40       1.0  0.942778194282994  0.622108120765766  0.6102131667112827  1.0000
  C   C41       1.0  0.5099725731324016  0.2852450045960921  0.14378075951326247  1.0000
  C   C42       1.0  0.009965535604727904  0.21475699972601345  0.35622140575767247  1.0000
  C   C43       1.0  0.49004618242009473  0.7147561030379562  0.8562213377620508  1.0000
  C   C44       1.0  0.990037757833932  0.7852470133546631  0.6437822370123383  1.0000
  C   C45       1.0  0.5001830044776981  0.30196151897316525  0.23546936039782193  1.0000
  C   C46       1.0  0.00017233807766100002  0.19803685195979168  0.2645303712579761  1.0000
  C   C47       1.0  0.4998409050744642  0.6980430857847892  0.7645288110183016  1.0000
  C   C48       1.0  0.9998399749081203  0.8019663656005135  0.735469877105963  1.0000
  C   C49       1.0  0.8786930479208621  0.06193149054271171  0.916662312200536  1.0000
  C   C50       1.0  0.3786937562344121  0.4380603501828517  0.5833349259075149  1.0000
  C   C51       1.0  0.12130637997066882  0.938064456145966  0.08333375572046711  1.0000
  C   C52       1.0  0.621290209580927  0.5619400929846137  0.41666947634499957  1.0000
  C   C53       1.0  0.5890969490649314  0.37700241861186606  0.9368614554180252  1.0000
  C   C54       1.0  0.08906621509206762  0.12299844349522707  0.5631408940672527  1.0000
  C   C55       1.0  0.4109140753754019  0.6230006679161306  0.06313309350099415  1.0000
  C   C56       1.0  0.91089842311159  0.8770035615951741  0.43686903045273334  1.0000
  C   C57       1.0  0.1730150510687594  0.0762192280635716  0.9182653829276857  1.0000
  C   C58       1.0  0.6730189859882786  0.4237735895895652  0.5817340540687964  1.0000
  C   C59       1.0  0.8269856653605956  0.923771732380459  0.08173225492473085  1.0000
  C   C60       1.0  0.3269675568135071  0.5762318252614803  0.41826814498612197  1.0000
  C   C61       1.0  0.6000483570599899  0.46330902031117926  0.8424850204985929  1.0000
  C   C62       1.0  0.1000465260072474  0.0366993060542811  0.6575304051899025  1.0000
  C   C63       1.0  0.39992014659065944  0.5366934163131276  0.15751246665851673  1.0000
  C   C64       1.0  0.8999413054052424  0.9633057500564702  0.3424873975922438  1.0000
  N   N1        1.0  0.5440801348875439  0.15543112894917496  0.7845939479666554  1.0000
  N   N2        1.0  0.044078069223381505  0.3445633297935089  0.7154087590311348  1.0000
  N   N3        1.0  0.45591800453782844  0.8445678833307184  0.21541063145451025  1.0000
  N   N4        1.0  0.9559187816616942  0.6554275724155119  0.2845863457301547  1.0000
  N   N5        1.0  0.48984984036096074  0.19165206930938444  0.479625594527178  1.0000
  N   N6        1.0  0.9898293565745605  0.30834087794272586  0.020378312192342186  1.0000
  N   N7        1.0  0.5101637611762656  0.8083476656831579  0.5203792129762163  1.0000
  N   N8        1.0  0.010166205787470498  0.6916485205900358  0.9796138033591502  1.0000
  N   N9        1.0  0.5063268015829436  0.1684561687647985  0.3886925006745656  1.0000
  N   N10       1.0  0.0062990162082386  0.3315422691185007  0.11131041411046992  1.0000
  N   N11       1.0  0.4937048390617776  0.8315485670223878  0.6113113701952883  1.0000
  N   N12       1.0  0.9937017001727001  0.6684536047734965  0.8886824874549788  1.0000
  N   N13       1.0  0.5379395974054831  0.1970606481288826  0.08180302699951619  1.0000
  N   N14       1.0  0.03792239718649171  0.3029397530778296  0.41819305914577126  1.0000
  N   N15       1.0  0.4620830236360619  0.802944679349693  0.9181953724759423  1.0000
  N   N16       1.0  0.9620731651796249  0.6970642017696775  0.581808050527826  1.0000
  N   N17       1.0  0.7318518482149017  0.0807667542252588  0.9135722717235166  1.0000
  N   N18       1.0  0.23185144619661463  0.41922751104647915  0.5864303153175072  1.0000
  N   N19       1.0  0.26815015670269554  0.9192321270198747  0.08642660825976382  1.0000
  N   N20       1.0  0.7681350966283633  0.580773625721342  0.41357304845669757  1.0000
  N   N21       1.0  0.5450522301846661  0.31594928820179985  0.9640352529666527  1.0000
  N   N22       1.0  0.04502456440123841  0.1840478857963532  0.5359607696403897  1.0000
  N   N23       1.0  0.4549703908436698  0.684056718319155  0.0359614747555098  1.0000
  N   N24       1.0  0.9549671324313779  0.8159495063360251  0.46403575439223477  1.0000
  N   N25       1.0  0.31049759804562893  0.10941236925246048  0.9186340137885052  1.0000
  N   N26       1.0  0.8104953299022809  0.3905876756418039  0.5813737790902919  1.0000
  N   N27       1.0  0.6895185805156389  0.890586657578055  0.08137119892877824  1.0000
  N   N28       1.0  0.18950023248665812  0.6094170892810024  0.4186313582731741  1.0000
  N   N29       1.0  0.6436507539844954  0.4472973887233564  0.915493423459125  1.0000
  N   N30       1.0  0.1436246764772093  0.05270570603580179  0.5845148255214879  1.0000
  N   N31       1.0  0.35633450023257757  0.5527048440639888  0.08449519792040405  1.0000
  N   N32       1.0  0.856330942176925  0.9472985400149979  0.41549894952675703  1.0000
  N   N33       1.0  0.0320187994827705  0.0320254698340747  0.9210371963775259  1.0000
  N   N34       1.0  0.5320146427202985  0.4679660221664506  0.5789607657721234  1.0000
  N   N35       1.0  0.9679832054267836  0.9679661114148672  0.0789562366375094  1.0000
  N   N36       1.0  0.46796932306821754  0.5320335963665029  0.4210389755190604  1.0000
  N   N37       1.0  0.5688053874862362  0.4843076433750184  0.7793614404612511  1.0000
  N   N38       1.0  0.068809673743857  0.0156999317993041  0.7206511386796135  1.0000
  N   N39       1.0  0.4311437885198829  0.5156918732600175  0.22063386788214248  1.0000
  N   N40       1.0  0.9311691380742888  0.9843101105597681  0.2793650941605534  1.0000
