data_image0
_chemical_formula_structural       Zn4H28C40N12O20
_chemical_formula_sum              "Zn4 H28 C40 N12 O20"
_cell_length_a       10.36432113500386
_cell_length_b       10.601496980006909
_cell_length_c       11.063047727785193
_cell_angle_alpha    90.00003913921977
_cell_angle_beta     116.03670352414129
_cell_angle_gamma    90.00009497344898

_space_group_name_H-M_alt    "P 1"
_space_group_IT_number       1

loop_
  _space_group_symop_operation_xyz
  'x, y, z'

loop_
  _atom_site_type_symbol
  _atom_site_label
  _atom_site_symmetry_multiplicity
  _atom_site_fract_x
  _atom_site_fract_y
  _atom_site_fract_z
  _atom_site_occupancy
  Zn  Zn1       1.0  0.811002611019468  0.6097655518110372  0.18239123320037007  1.0000
  Zn  Zn2       1.0  0.18899578273630618  0.1097658967549009  0.31760893409621366  1.0000
  Zn  Zn3       1.0  0.18899642245056467  0.390234956323404  0.8176071846311006  1.0000
  Zn  Zn4       1.0  0.8110021798395978  0.890234611378837  0.6823899497313664  1.0000
  H   H1        1.0  0.5853693588396709  0.39825377789225075  0.3163903831621442  1.0000
  H   H2        1.0  0.4146297445360432  0.8982546779341406  0.1836084571120864  1.0000
  H   H3        1.0  0.4146307513808765  0.6017439004545011  0.683609378893941  1.0000
  H   H4        1.0  0.585369291863941  0.1017458302006204  0.8163908658309255  1.0000
  H   H5        1.0  0.5450067149560027  0.28270320895978773  0.6710462883373369  1.0000
  H   H6        1.0  0.4549937770834376  0.7827033346929113  0.8289542594818756  1.0000
  H   H7        1.0  0.4549944720209068  0.7172963559143427  0.32895481794730586  1.0000
  H   H8        1.0  0.5450063331394475  0.2172962301798619  0.1710455025757796  1.0000
  H   H9        1.0  0.8722011490699231  0.23022134974783626  0.9139309192663493  1.0000
  H   H10       1.0  0.1278002895613284  0.7302198289109896  0.5860708848745375  1.0000
  H   H11       1.0  0.1278011088022879  0.7697791583900085  0.086069721022966  1.0000
  H   H12       1.0  0.872201971238482  0.2697787927011531  0.41393066052474153  1.0000
  H   H13       1.0  0.8898105382373416  0.5305288790192648  0.7056046632368125  1.0000
  H   H14       1.0  0.11018932838391042  0.03052813644001159  0.7943954622049746  1.0000
  H   H15       1.0  0.11018849523386362  0.4694725723781872  0.294393754595454  1.0000
  H   H16       1.0  0.8898107818378094  0.9694704851697507  0.205604299851892  1.0000
  H   H17       1.0  0.71366643312858  0.6049201747746267  0.8672950157328786  1.0000
  H   H18       1.0  0.2863336150618352  0.1049205457570821  0.6327043291991998  1.0000
  H   H19       1.0  0.28633260620134854  0.3950803333604611  0.13270521232168164  1.0000
  H   H20       1.0  0.7136664951622221  0.8950799623787092  0.36729543285925104  1.0000
  H   H21       1.0  0.018028153449087397  0.7849439832898709  0.29487205814080414  1.0000
  H   H22       1.0  0.9819717456585267  0.28494270350510215  0.2051279365715504  1.0000
  H   H23       1.0  0.9819719567738047  0.2150555815829023  0.7051277039168582  1.0000
  H   H24       1.0  0.018028364564358395  0.7150568613676782  0.7948718254861052  1.0000
  H   H25       1.0  0.9342578055937664  0.7941509135457778  0.12855163878698048  1.0000
  H   H26       1.0  0.0657421163485807  0.2941501538190892  0.3714483713468583  1.0000
  H   H27       1.0  0.06574230755906289  0.20584865132732227  0.8714490283822232  1.0000
  H   H28       1.0  0.9342569229801755  0.7058494110529878  0.6285518567069136  1.0000
  C   C1        1.0  0.6251129384858203  0.40047900628955807  0.42515542439198134  1.0000
  C   C2        1.0  0.3748872471625191  0.9004797644407888  0.07484476383622514  1.0000
  C   C3        1.0  0.374888248489917  0.5995196153215544  0.5748456818918586  1.0000
  C   C4        1.0  0.6251117863063484  0.09951980043063458  0.9251536539944568  1.0000
  C   C5        1.0  0.5538140062586123  0.33135571276507386  0.48473744164523697  1.0000
  C   C6        1.0  0.44618815853769417  0.8313584305563709  0.015264414149704876  1.0000
  C   C7        1.0  0.4461839592472358  0.6686447953689835  0.5152623472938913  1.0000
  C   C8        1.0  0.5538130225816573  0.1686430208431347  0.9847348819134185  1.0000
  C   C9        1.0  0.6029647248959407  0.3340450452827639  0.6246502109808746  1.0000
  C   C10       1.0  0.3970348235820822  0.8340451101322798  0.8753508888288624  1.0000
  C   C11       1.0  0.39703431150403656  0.6659554628520041  0.37534911196214454  1.0000
  C   C12       1.0  0.6029642128167225  0.1659544547394702  0.12464843411336088  1.0000
  C   C13       1.0  0.7232388338440146  0.4068424362723206  0.7007764874743148  1.0000
  C   C14       1.0  0.2767608922484399  0.906842251962985  0.7992238291548761  1.0000
  C   C15       1.0  0.27676019962836307  0.5931599583881492  0.29922193035873335  1.0000
  C   C16       1.0  0.7232381441503719  0.09315731290876532  0.20077549378734713  1.0000
  C   C17       1.0  0.7953903384854683  0.47600346136361066  0.6421921197647367  1.0000
  C   C18       1.0  0.20460955620308846  0.9760032018498421  0.8578074075933703  1.0000
  C   C19       1.0  0.20460976587987287  0.5239979900345446  0.3578058320714136  1.0000
  C   C20       1.0  0.7953905510898595  0.0239963630226043  0.142191449352744  1.0000
  C   C21       1.0  0.7464645711499216  0.4725680081919422  0.5028639716062531  1.0000
  C   C22       1.0  0.2535363888414963  0.9725669839615988  0.9971359891124653  1.0000
  C   C23       1.0  0.2535355390753082  0.5274334432068598  0.49713579045297973  1.0000
  C   C24       1.0  0.7464615708021256  0.0274316376457833  0.0028619896019961627  1.0000
  C   C25       1.0  0.8464743409547708  0.3231035031761423  0.9377882037821839  1.0000
  C   C26       1.0  0.15352625127935227  0.8231020070392108  0.5622124117037118  1.0000
  C   C27       1.0  0.1535268460244765  0.6768979482240098  0.062212902504029416  1.0000
  C   C28       1.0  0.8464760095192929  0.17689567130991427  0.43778913369477845  1.0000
  C   C29       1.0  0.7664208760166248  0.5166638303079694  0.9142911602306472  1.0000
  C   C30       1.0  0.2335768114998018  0.0166631390480703  0.585708968868744  1.0000
  C   C31       1.0  0.2335803080326784  0.4833376210918632  0.08570904094402472  1.0000
  C   C32       1.0  0.7664211598647626  0.9833364258236231  0.4142926302926782  1.0000
  C   C33       1.0  0.4232282260798215  0.2566868752937168  0.3965249757431124  1.0000
  C   C34       1.0  0.5767726855642507  0.7566879810390289  0.1034781260923694  1.0000
  C   C35       1.0  0.5767729696869139  0.7433126895813799  0.6034788458761612  1.0000
  C   C36       1.0  0.42322742172986233  0.24331252709643542  0.8965207308545331  1.0000
  C   C37       1.0  0.8217387339496369  0.543873069439968  0.4352790476839347  1.0000
  C   C38       1.0  0.1782637887535898  0.0438741601050694  0.06472186059755101  1.0000
  C   C39       1.0  0.17826137627207567  0.4561255521697945  0.564720714372932  1.0000
  C   C40       1.0  0.8217363214681299  0.956124461504693  0.9352779014593229  1.0000
  N   N1        1.0  0.7749027354153526  0.4138528599353677  0.8441683792433995  1.0000
  N   N2        1.0  0.22509807895754358  0.9138524897487907  0.6558314831315641  1.0000
  N   N3        1.0  0.2250984457051786  0.5861495347271484  0.15583091682051992  1.0000
  N   N4        1.0  0.7749031050894147  0.08614707512501242  0.34416871804153004  1.0000
  N   N5        1.0  0.8807285113476129  0.3672403810420022  0.059378224642174016  1.0000
  N   N6        1.0  0.11927266568604718  0.8672381556874669  0.4406223470262916  1.0000
  N   N7        1.0  0.11927267270169038  0.63276107035783  0.940621976532498  1.0000
  N   N8        1.0  0.8807285212896832  0.1327604659236457  0.5593787592575554  1.0000
  N   N9        1.0  0.8295824849301353  0.489258951193861  0.04411455117760004  1.0000
  N   N10       1.0  0.1704189947228585  0.9892577628688812  0.45588622486543073  1.0000
  N   N11       1.0  0.170417625293922  0.5107415569419302  0.955885210880844  1.0000
  N   N12       1.0  0.8295821922517134  0.010739915479220498  0.5441148814176201  1.0000
  O   O1        1.0  0.3750543205010288  0.2629500578951678  0.2708089887220382  1.0000
  O   O2        1.0  0.6249433822708781  0.7629485014782489  0.22919190114382093  1.0000
  O   O3        1.0  0.624944721758837  0.7370504502402467  0.7291921444440707  1.0000
  O   O4        1.0  0.3750556570567126  0.23705012013081023  0.7708083269091618  1.0000
  O   O5        1.0  0.3665073549729528  0.1885870344054936  0.4573761385566471  1.0000
  O   O6        1.0  0.633492305161809  0.6885872454664864  0.042623694764913  1.0000
  O   O7        1.0  0.6334949058268577  0.8114115872066492  0.5426254068426317  1.0000
  O   O8        1.0  0.36650780213230416  0.3114132626689781  0.9573751621819967  1.0000
  O   O9        1.0  0.7955491888590487  0.5026731641050687  0.3169024930673672  1.0000
  O   O10       1.0  0.20445108108292226  0.0026715517502182997  0.1830965628621044  1.0000
  O   O11       1.0  0.20445306901316226  0.4973273440327759  0.6830981472219408  1.0000
  O   O12       1.0  0.7955479553158895  0.997328013121532  0.8169027600801261  1.0000
  O   O13       1.0  0.9032050160315563  0.6351168736781148  0.49226993102423233  1.0000
  O   O14       1.0  0.0967923638400023  0.135114018655095  0.007728934504619608  1.0000
  O   O15       1.0  0.09679187565021859  0.3648836344549196  0.507729418799464  1.0000
  O   O16       1.0  0.9032066696300378  0.8648864894793462  0.9922694833268509  1.0000
  O   O17       1.0  0.962721378939811  0.736095956639261  0.20936491901805696  1.0000
  O   O18       1.0  0.037278399019236  0.236094149950553  0.290634993876374  1.0000
  O   O19       1.0  0.0372787312830738  0.2639036082335195  0.7906348430396051  1.0000
  O   O20       1.0  0.9627217141335933  0.7639054149225474  0.7093656732928297  1.0000
