data_image0
_chemical_formula_structural       Cd4H44C24N4Cl8O8
_chemical_formula_sum              "Cd4 H44 C24 N4 Cl8 O8"
_cell_length_a       6.8672713990053875
_cell_length_b       9.789666282010462
_cell_length_c       13.497816006006284
_cell_angle_alpha    89.99989981255146
_cell_angle_beta     90.00004519084325
_cell_angle_gamma    89.99986448253433

_space_group_name_H-M_alt    "P 1"
_space_group_IT_number       1

loop_
  _space_group_symop_operation_xyz
  'x, y, z'

loop_
  _atom_site_type_symbol
  _atom_site_label
  _atom_site_symmetry_multiplicity
  _atom_site_fract_x
  _atom_site_fract_y
  _atom_site_fract_z
  _atom_site_occupancy
  Cd  Cd1       1.0  0.16085244332398216  0.23838896414726204  0.0237111252086493  1.0000
  Cd  Cd2       1.0  0.660850860525727  0.2616108594124709  0.9762867969863365  1.0000
  Cd  Cd3       1.0  0.8391461056972531  0.7383885498232201  0.47628712499344056  1.0000
  Cd  Cd4       1.0  0.3391483898686544  0.761611355928302  0.5237124607044308  1.0000
  H   H1        1.0  0.9788574604228159  0.12871317889270978  0.2472230722804056  1.0000
  H   H2        1.0  0.47885827780580564  0.3712861138777867  0.7527771994370482  1.0000
  H   H3        1.0  0.021141456182590397  0.6287136505728909  0.252777538749335  1.0000
  H   H4        1.0  0.5211435173698716  0.8712878074471248  0.7472226608683882  1.0000
  H   H5        1.0  0.7934910731687309  0.21920064185958663  0.20083991897060116  1.0000
  H   H6        1.0  0.2934908099240019  0.2807999817935069  0.7991602787520478  1.0000
  H   H7        1.0  0.20651045253067218  0.7191996701482707  0.2991605780011072  1.0000
  H   H8        1.0  0.7065098323401173  0.7808004569879329  0.7008396956117195  1.0000
  H   H9        1.0  0.3939077194396602  0.04720925779145799  0.3286932239709087  1.0000
  H   H10       1.0  0.8939079329732917  0.45279119825416797  0.6713077546964215  1.0000
  H   H11       1.0  0.6060900141479665  0.5472089507461673  0.1713060080736142  1.0000
  H   H12       1.0  0.10609213285813719  0.9527893010314865  0.8286927437343508  1.0000
  H   H13       1.0  0.5340200033477912  0.18514729732266488  0.4534029698494492  1.0000
  H   H14       1.0  0.034020688561348295  0.31485171644327176  0.5465978651604502  1.0000
  H   H15       1.0  0.46597872411280145  0.6851495696062243  0.0465975700439003  1.0000
  H   H16       1.0  0.9659798395784163  0.8148511459342913  0.9534020662817255  1.0000
  H   H17       1.0  0.36559625958915365  0.2913983268163562  0.3906690166503068  1.0000
  H   H18       1.0  0.8655971949498349  0.20860319796791768  0.6093326915758368  1.0000
  H   H19       1.0  0.6344021117716137  0.7913971013586332  0.10933138931573438  1.0000
  H   H20       1.0  0.13440368929033036  0.7086011031626426  0.8906681146542468  1.0000
  H   H21       1.0  0.6843456840939267  0.41171059674532967  0.4263451464034773  1.0000
  H   H22       1.0  0.18434571462670846  0.08829020908289918  0.5736550077509291  1.0000
  H   H23       1.0  0.3156522840297313  0.911712032822258  0.0736551079071646  1.0000
  H   H24       1.0  0.815654116664703  0.588288933626842  0.9263459501329833  1.0000
  H   H25       1.0  0.6369352104685503  0.4032712805634516  0.29802141942715105  1.0000
  H   H26       1.0  0.13693686888277765  0.09672756142602877  0.7019787158037047  1.0000
  H   H27       1.0  0.3630642421207069  0.9032733477276975  0.2019781046605473  1.0000
  H   H28       1.0  0.8630643903118906  0.596726518103672  0.7980214905844677  1.0000
  H   H29       1.0  0.9783271141468216  0.3417142162804082  0.3256015437383936  1.0000
  H   H30       1.0  0.47832852326609293  0.15828609886008135  0.6743987277668353  1.0000
  H   H31       1.0  0.021672544757556998  0.8417148771904973  0.1743995396641154  1.0000
  H   H32       1.0  0.5216725296094751  0.6582865799439116  0.8256014010257857  1.0000
  H   H33       1.0  0.9110474018571962  0.21183844344171376  0.4118377854447743  1.0000
  H   H34       1.0  0.4110453289351951  0.28816198399874776  0.5881624592032608  1.0000
  H   H35       1.0  0.08895269233165241  0.7118392012313632  0.08816272080561299  1.0000
  H   H36       1.0  0.5889552886570399  0.7881611221186869  0.911837505881536  1.0000
  H   H37       1.0  0.7397919065576486  0.007795951185173098  0.35336027136234793  1.0000
  H   H38       1.0  0.23979360945393313  0.49220578358123374  0.6466399049245837  1.0000
  H   H39       1.0  0.26020450294387837  0.5077952598062082  0.1466390103626267  1.0000
  H   H40       1.0  0.7602077804578896  0.992204777707407  0.8533598029632046  1.0000
  H   H41       1.0  0.6939029364799011  0.9910952426821352  0.2233030467141859  1.0000
  H   H42       1.0  0.19390500567770627  0.508905926981299  0.7766964810053096  1.0000
  H   H43       1.0  0.30609767795126425  0.49109377944840543  0.2766963666738533  1.0000
  H   H44       1.0  0.8060950916716293  0.008905801679567596  0.7233038360812357  1.0000
  C   C1        1.0  0.4133110237635691  0.18461652698194794  0.20499905626933668  1.0000
  C   C2        1.0  0.9133133467721704  0.3153838966766144  0.7950011892831625  1.0000
  C   C3        1.0  0.5866891616648288  0.6846139093164323  0.2949992617146435  1.0000
  C   C4        1.0  0.0866915481300978  0.8153843748431057  0.7049994823490096  1.0000
  C   C5        1.0  0.49331385868732264  0.12726198685660955  0.3021911281467098  1.0000
  C   C6        1.0  0.9933129256382355  0.3727383032740404  0.6978069267586307  1.0000
  C   C7        1.0  0.5066850627800789  0.6272617814486379  0.1978057804097162  1.0000
  C   C8        1.0  0.006687408491835399  0.8727376577316474  0.8021929317175065  1.0000
  C   C9        1.0  0.5062286172692864  0.23854452730556358  0.3830871106987317  1.0000
  C   C10       1.0  0.006229591018900699  0.2614586187898524  0.6169122314937923  1.0000
  C   C11       1.0  0.49376847505141075  0.7385424967049797  0.1169118801686011  1.0000
  C   C12       1.0  0.9937696598895939  0.7614571509661228  0.8830877672507143  1.0000
  C   C13       1.0  0.6696528728279386  0.34106169867435193  0.3636268934508493  1.0000
  C   C14       1.0  0.16965276431963613  0.15893811019259366  0.6363732548391354  1.0000
  C   C15       1.0  0.33034678826180647  0.8410629580952995  0.1363734499131866  1.0000
  C   C16       1.0  0.8303482863734215  0.6589369623429844  0.8636268731326453  1.0000
  C   C17       1.0  0.8632597148655277  0.2698017231479922  0.3466049639688933  1.0000
  C   C18       1.0  0.36326085023429744  0.23019878405257532  0.6533952616040466  1.0000
  C   C19       1.0  0.1367387288744268  0.7698022429463832  0.15339546921858022  1.0000
  C   C20       1.0  0.6367385054402489  0.7301990221312734  0.8466047765424278  1.0000
  C   C21       1.0  0.6937632931201562  0.06181119106736329  0.2862723377954524  1.0000
  C   C22       1.0  0.19376382542058923  0.43818959904144333  0.7137278201183435  1.0000
  C   C23       1.0  0.3062358477118393  0.5618102601297533  0.21372687584399588  1.0000
  C   C24       1.0  0.8062362893454844  0.9381897005540619  0.7862726967165016  1.0000
  N   N1        1.0  0.8430276209240115  0.1688862448419073  0.2641153822823199  1.0000
  N   N2        1.0  0.3430285466212267  0.33111429612927157  0.7358840943538071  1.0000
  N   N3        1.0  0.15697261722321798  0.6688855092964444  0.23588443724969474  1.0000
  N   N4        1.0  0.6569719270114688  0.8311147005246861  0.7641150757281707  1.0000
  Cl  Cl1       1.0  0.38109751128762775  0.4442874076505845  0.9628770492460745  1.0000
  Cl  Cl2       1.0  0.8810995235105634  0.055715112746611305  0.03712318344619091  1.0000
  Cl  Cl3       1.0  0.6189025830437771  0.9442853617302374  0.5371219781826397  1.0000
  Cl  Cl4       1.0  0.11890109393682019  0.5557138901492635  0.46287751959904  1.0000
  Cl  Cl5       1.0  0.39981877212370154  0.07919328120095767  0.9213127811111547  1.0000
  Cl  Cl6       1.0  0.8998152569486491  0.42080512201283665  0.0786867181950797  1.0000
  Cl  Cl7       1.0  0.6001825458346557  0.5791942301626775  0.5786874473777317  1.0000
  Cl  Cl8       1.0  0.10018413687805607  0.9208050529599985  0.4213120429319517  1.0000
  O   O1        1.0  0.23016113406229977  0.17657250406989528  0.1878347665151736  1.0000
  O   O2        1.0  0.7301634568593299  0.32342822528551085  0.8121654059281483  1.0000
  O   O3        1.0  0.76983762214477  0.6765695390738811  0.3121643024688225  1.0000
  O   O4        1.0  0.26983704253222374  0.8234294608798575  0.6878337738416035  1.0000
  O   O5        1.0  0.5338638615333194  0.23931192722377395  0.1460043166632801  1.0000
  O   O6        1.0  0.033868119697508796  0.2606881082850804  0.8539965182843616  1.0000
  O   O7        1.0  0.46613468439817024  0.739310389159115  0.35399615495791176  1.0000
  O   O8        1.0  0.9661340461589346  0.760686240181428  0.6460034814322029  1.0000
