data_image0
_chemical_formula_structural       Hg4H36C32N4O8
_chemical_formula_sum              "Hg4 H36 C32 N4 O8"
_cell_length_a       4.894883663749451
_cell_length_b       12.928507330002885
_cell_length_c       13.480076065444367
_cell_angle_alpha    89.99995120680211
_cell_angle_beta     93.16060271205342
_cell_angle_gamma    89.99994389532688

_space_group_name_H-M_alt    "P 1"
_space_group_IT_number       1

loop_
  _space_group_symop_operation_xyz
  'x, y, z'

loop_
  _atom_site_type_symbol
  _atom_site_label
  _atom_site_symmetry_multiplicity
  _atom_site_fract_x
  _atom_site_fract_y
  _atom_site_fract_z
  _atom_site_occupancy
  Hg  Hg1       1.0  0.05488619697566581  0.15047956576788823  0.6458628100561867  1.0000
  Hg  Hg2       1.0  0.4451136388029442  0.650478344235658  0.8541368436336826  1.0000
  Hg  Hg3       1.0  0.9451193987748356  0.8495207859339043  0.3541384719379934  1.0000
  Hg  Hg4       1.0  0.5548837970223844  0.34952200746871404  0.1458620377777891  1.0000
  H   H1        1.0  0.8834544329239481  0.156015412073735  0.2593467825849558  1.0000
  H   H2        1.0  0.6165452053100966  0.6560151863187613  0.2406530665862476  1.0000
  H   H3        1.0  0.11654504894711688  0.8439849396302391  0.7406521427212738  1.0000
  H   H4        1.0  0.3834562983489391  0.34398516538382756  0.7593481276184306  1.0000
  H   H5        1.0  0.9790322153192366  0.27389982631797943  0.3042912181002677  1.0000
  H   H6        1.0  0.5209691482503942  0.7738996757996331  0.1957085720635305  1.0000
  H   H7        1.0  0.020967266551835503  0.7261005253859949  0.6957077072059619  1.0000
  H   H8        1.0  0.4790344014543777  0.22610067590256475  0.8042926660358986  1.0000
  H   H9        1.0  0.6954022934328635  0.0611681511427804  0.9504363623358429  1.0000
  H   H10       1.0  0.8045991341321896  0.5611672515550268  0.5495635431327202  1.0000
  H   H11       1.0  0.3045971722663552  0.938832200560533  0.0495640463061804  1.0000
  H   H12       1.0  0.19540238569974383  0.43883232666372146  0.4504361677364983  1.0000
  H   H13       1.0  0.7041435502346972  0.9282891494118742  0.9149869636347674  1.0000
  H   H14       1.0  0.7958589165185685  0.4282895620991312  0.585013406933399  1.0000
  H   H15       1.0  0.29586001564086223  0.0717119757754716  0.085012791128527  1.0000
  H   H16       1.0  0.2041425952253348  0.5717115630882859  0.4149870456030413  1.0000
  H   H17       1.0  0.4409024755953439  0.0112475473767546  0.8633613202078223  1.0000
  H   H18       1.0  0.05910183105937962  0.5112482085575393  0.6366385428073258  1.0000
  H   H19       1.0  0.5591031363270106  0.9887528043256919  0.136638478450557  1.0000
  H   H20       1.0  0.9408955885930511  0.48875291663067344  0.3633618219396126  1.0000
  H   H21       1.0  0.45112381328052475  0.3238522030802499  0.5827860991107485  1.0000
  H   H22       1.0  0.048875550827510494  0.8238526194303262  0.9172134032402255  1.0000
  H   H23       1.0  0.5488777065524603  0.676146601653997  0.41721361175880384  1.0000
  H   H24       1.0  0.9511218769118983  0.1761477322737193  0.08278621983915  1.0000
  H   H25       1.0  0.7566976892921957  0.3507269263618652  0.4450787799262983  1.0000
  H   H26       1.0  0.7433055032265301  0.850726044736028  0.0549217287375541  1.0000
  H   H27       1.0  0.2433017764070229  0.6492734253414484  0.554921628715725  1.0000
  H   H28       1.0  0.25669396247374726  0.1492735334827913  0.9450786799048103  1.0000
  H   H29       1.0  0.5206516505951413  0.055104343579152684  0.3217809615096101  1.0000
  H   H30       1.0  0.9793503082180166  0.5551040387287642  0.1782190196423556  1.0000
  H   H31       1.0  0.4793498773248217  0.944893687670927  0.6782180076923865  1.0000
  H   H32       1.0  0.020649173654099705  0.44489553949070876  0.821779905664215  1.0000
  H   H33       1.0  0.2072890298992007  0.028716145166193  0.455703966490816  1.0000
  H   H34       1.0  0.2927116518940807  0.5287152546502724  0.04429586387756499  1.0000
  H   H35       1.0  0.7927124818478646  0.9712826595677339  0.5442964860466333  1.0000
  H   H36       1.0  0.7072878218921164  0.47128432356887356  0.9557038030969025  1.0000
  C   C1        1.0  0.6572501708895617  0.006545483783042998  0.8887601911270054  1.0000
  C   C2        1.0  0.842753451324839  0.5065445154080166  0.6112398059168456  1.0000
  C   C3        1.0  0.3427574789904995  0.9934564148876744  0.1112403930933539  1.0000
  C   C4        1.0  0.15724602246030636  0.49345583629562373  0.3887598610572809  1.0000
  C   C5        1.0  0.8381701451338515  0.0354769008979758  0.8064380871247394  1.0000
  C   C6        1.0  0.6618313523255426  0.5354759266081216  0.6935618407699238  1.0000
  C   C7        1.0  0.1618334045688101  0.9645249977732177  0.1935631509740077  1.0000
  C   C8        1.0  0.3381660834987343  0.46452519858074487  0.3064370406412138  1.0000
  C   C9        1.0  0.30456926944209783  0.1742889708479325  0.5295759264558129  1.0000
  C   C10       1.0  0.1954264094715157  0.6742869652971208  0.9704236186615063  1.0000
  C   C11       1.0  0.6954322423039159  0.8257106073704888  0.4704245260813025  1.0000
  C   C12       1.0  0.8045689722242599  0.3257118394383269  0.029575960523800404  1.0000
  C   C13       1.0  0.4624773882850519  0.26456386615669186  0.5254027172433382  1.0000
  C   C14       1.0  0.037522145206708005  0.7645634623813962  0.9745960951932985  1.0000
  C   C15       1.0  0.5375241234609618  0.7354357120617365  0.4745977352937771  1.0000
  C   C16       1.0  0.9624752825348041  0.23543534235365365  0.025403527886751903  1.0000
  C   C17       1.0  0.635770102515167  0.2800838348189103  0.4479503813127792  1.0000
  C   C18       1.0  0.8642291900978663  0.780084457903783  0.0520501012257668  1.0000
  C   C19       1.0  0.3642314092318983  0.7199149699150098  0.5520500712246772  1.0000
  C   C20       1.0  0.13576822147074807  0.21991512031511457  0.9479510051897505  1.0000
  C   C21       1.0  0.6589027383186024  0.20546890817559668  0.3729910336086988  1.0000
  C   C22       1.0  0.8410967653769819  0.7054671529560892  0.1270087723948663  1.0000
  C   C23       1.0  0.34109469750673344  0.7945314435287756  0.6270078478027797  1.0000
  C   C24       1.0  0.1589027003243402  0.2945316517782358  0.8729916362478319  1.0000
  C   C25       1.0  0.5016498090076527  0.11479025343400201  0.37807518528085643  1.0000
  C   C26       1.0  0.9983499413824648  0.6147892179419329  0.12192469987643048  1.0000
  C   C27       1.0  0.49834964860459513  0.8852108717534861  0.6219259650287299  1.0000
  C   C28       1.0  0.0016495324047838037  0.38520958679271894  0.8780749670983709  1.0000
  C   C29       1.0  0.32592300959058923  0.1000747094851278  0.45465927583915533  1.0000
  C   C30       1.0  0.17407339406172181  0.6000746354829687  0.04533966278208369  1.0000
  C   C31       1.0  0.6740764803706085  0.8999225482811822  0.5453389078005273  1.0000
  C   C32       1.0  0.8259240417657097  0.39992416925240803  0.95465921863007  1.0000
  N   N1        1.0  0.8216698356783995  0.2224074504240647  0.2931296470971674  1.0000
  N   N2        1.0  0.6783296219319512  0.7224080051976429  0.20687014411961968  1.0000
  N   N3        1.0  0.17832963810780464  0.7775921277950814  0.7068700198773001  1.0000
  N   N4        1.0  0.3216698437672748  0.2775923465056779  0.7931302645224036  1.0000
  O   O1        1.0  0.7659889938091311  0.11922597005809614  0.757268494865407  1.0000
  O   O2        1.0  0.7340143137658686  0.6192256989396796  0.7427321454864568  1.0000
  O   O3        1.0  0.23402272390252685  0.8807774755798476  0.2427344021474767  1.0000
  O   O4        1.0  0.26597699200502223  0.3807769732197101  0.257265862571856  1.0000
  O   O5        1.0  0.044061690750723415  0.9830520305289953  0.787710674376612  1.0000
  O   O6        1.0  0.45594337029933035  0.4830514976411422  0.7122895623602972  1.0000
  O   O7        1.0  0.9559418832118212  0.0169483211741834  0.2122883387191195  1.0000
  O   O8        1.0  0.5440581252758889  0.5169473070921242  0.287712373512953  1.0000
