data_image0
_chemical_formula_structural       Mn6H60C48N24
_chemical_formula_sum              "Mn6 H60 C48 N24"
_cell_length_a       15.118529267458753
_cell_length_b       15.11858977720862
_cell_length_c       15.118599158634398
_cell_angle_alpha    109.47140477082671
_cell_angle_beta     109.47088064202383
_cell_angle_gamma    109.47150527336224

_space_group_name_H-M_alt    "P 1"
_space_group_IT_number       1

loop_
  _space_group_symop_operation_xyz
  'x, y, z'

loop_
  _atom_site_type_symbol
  _atom_site_label
  _atom_site_symmetry_multiplicity
  _atom_site_fract_x
  _atom_site_fract_y
  _atom_site_fract_z
  _atom_site_occupancy
  Mn  Mn1       1.0  0.7500034333739266  0.5001084412792025  0.24988151327971755  1.0000
  Mn  Mn2       1.0  0.500099938168546  0.7500002422631197  0.24987422934178485  1.0000
  Mn  Mn3       1.0  0.24978267488827313  0.7497796216439169  0.5000019502372054  1.0000
  Mn  Mn4       1.0  0.7497783817790095  0.249781310276866  0.5000028207640739  1.0000
  Mn  Mn5       1.0  0.2502244879623206  0.500122588188013  0.7501217451503308  1.0000
  Mn  Mn6       1.0  0.5001245055305432  0.2502240692262773  0.7501253344355661  1.0000
  H   H1        1.0  0.887500321660042  0.4759457786286418  0.12618449118534855  1.0000
  H   H2        1.0  0.761315211726533  0.8737730883619861  0.34959868083770124  1.0000
  H   H3        1.0  0.41157204365700306  0.6501715179081701  0.5239614266137593  1.0000
  H   H4        1.0  0.8876018481312613  0.12620719751905815  0.4760318985147762  1.0000
  H   H5        1.0  0.41170960897173364  0.5241575473708053  0.6503972518538318  1.0000
  H   H6        1.0  0.7613176596281904  0.34975822268468454  0.8738224618568324  1.0000
  H   H7        1.0  0.11249034122948126  0.23869238164481021  0.5884805914850233  1.0000
  H   H8        1.0  0.23883341253131354  0.5884427761969774  0.11244633976253475  1.0000
  H   H9        1.0  0.5882231853033701  0.11240456531766085  0.23872869439749406  1.0000
  H   H10       1.0  0.11240628780515759  0.5882175613288965  0.23872394050194157  1.0000
  H   H11       1.0  0.588445554363247  0.23884894508201168  0.11245301594338741  1.0000
  H   H12       1.0  0.23869409995246849  0.11249328214848493  0.5884853971009322  1.0000
  H   H13       1.0  0.3497663700513911  0.7613100278083421  0.8738180008748059  1.0000
  H   H14       1.0  0.5241659261753854  0.41170391556700286  0.6504003285545323  1.0000
  H   H15       1.0  0.12620629871610597  0.8876059609788668  0.47603547454258427  1.0000
  H   H16       1.0  0.6501700769336693  0.41156853669193794  0.5239617593994552  1.0000
  H   H17       1.0  0.8737704399043904  0.7613183675305633  0.3495999669582373  1.0000
  H   H18       1.0  0.4759428593385381  0.8875003220989297  0.12618743328017248  1.0000
  H   H19       1.0  0.6502080702285228  0.5240061249245686  0.4115138823991131  1.0000
  H   H20       1.0  0.47599641666713677  0.12639416448572405  0.8875584934120724  1.0000
  H   H21       1.0  0.8736818720831964  0.34950028965838004  0.7612793640630996  1.0000
  H   H22       1.0  0.3495074643120051  0.873682404727731  0.7612837800204487  1.0000
  H   H23       1.0  0.12638205018701856  0.4759922516318653  0.8875458173080659  1.0000
  H   H24       1.0  0.5240091536737311  0.6502052060332275  0.41151219022624724  1.0000
  H   H25       1.0  0.07210055999532036  0.7566013777692575  0.5467185316301766  1.0000
  H   H26       1.0  0.5254745588535457  0.4532388525816913  0.20980473843045638  1.0000
  H   H27       1.0  0.3156391904849373  0.7902322854650803  0.24345334216496875  1.0000
  H   H28       1.0  0.07218046384956282  0.5467794844458639  0.7565422845118235  1.0000
  H   H29       1.0  0.31566243643069214  0.2434255147232847  0.7901938517365749  1.0000
  H   H30       1.0  0.5253818250136603  0.20988031579723543  0.45328561156943437  1.0000
  H   H31       1.0  0.9277183659421624  0.4745073580677187  0.6843126267839708  1.0000
  H   H32       1.0  0.47467569123299597  0.6844903410195401  0.9277480213658224  1.0000
  H   H33       1.0  0.6843329553767036  0.9276193984236656  0.474469253267422  1.0000
  H   H34       1.0  0.9276208275196963  0.6843342992941572  0.4744657431358517  1.0000
  H   H35       1.0  0.6844862003166555  0.474672278438618  0.9277455635596397  1.0000
  H   H36       1.0  0.4745119578487479  0.9277228379177841  0.6843123213023644  1.0000
  H   H37       1.0  0.20987942550645028  0.5253814164086988  0.45327912286978733  1.0000
  H   H38       1.0  0.24342329882283323  0.31565903086688973  0.790192933151765  1.0000
  H   H39       1.0  0.5467810964460967  0.07218698082562736  0.7565428345153506  1.0000
  H   H40       1.0  0.7902375464165559  0.31564236576005555  0.24345755358513785  1.0000
  H   H41       1.0  0.45323619044216923  0.5254755681917019  0.20980580416175335  1.0000
  H   H42       1.0  0.7566024821168185  0.07209932131959115  0.5467232847932734  1.0000
  H   H43       1.0  0.7901973367047361  0.24340689781364935  0.31568438174598157  1.0000
  H   H44       1.0  0.7567397686559332  0.546929690661585  0.07224587577116619  1.0000
  H   H45       1.0  0.453154838618005  0.20986186708104532  0.5255371703048297  1.0000
  H   H46       1.0  0.2098622840781062  0.4531511947408903  0.525529228532811  1.0000
  H   H47       1.0  0.5469255304856661  0.7567415939343434  0.07224830033220535  1.0000
  H   H48       1.0  0.24340886176327106  0.790192672397282  0.315687736741026  1.0000
  H   H49       1.0  0.9998875817233498  0.6246908191210849  0.5243668570693102  1.0000
  H   H50       1.0  0.475613653272653  0.47561478632072607  0.100267729924674  1.0000
  H   H51       1.0  0.3753444075367086  0.8996877804711687  0.37541718159414456  1.0000
  H   H52       1.0  0.9999255465535698  0.5242754554151788  0.6245818223114838  1.0000
  H   H53       1.0  0.375341690176043  0.375339664788818  0.8997313336312089  1.0000
  H   H54       1.0  0.47552269169185724  0.10032250414593587  0.4756406347777968  1.0000
  H   H55       1.0  0.5245107083875241  0.6248007021584527  0.9999981032894992  1.0000
  H   H56       1.0  0.6246900904559923  0.9998857867715216  0.5243687006457307  1.0000
  H   H57       1.0  0.6247994168555949  0.5245186818164385  0.9999954283744328  1.0000
  H   H58       1.0  0.5242745271895688  0.9999278623935552  0.6245797134312312  1.0000
  H   H59       1.0  0.10032015806606874  0.475523770649886  0.475633284742635  1.0000
  H   H60       1.0  0.8996967163589107  0.37534737811130015  0.3754169604742613  1.0000
  C   C1        1.0  0.9998904527771587  0.6298868715384955  0.38358218316370335  1.0000
  C   C2        1.0  0.6163836513367472  0.6163892113144982  0.24625660830131585  1.0000
  C   C3        1.0  0.37004379949340216  0.753636886930927  0.37003558293450567  1.0000
  C   C4        1.0  0.9999847808933991  0.3835864712881046  0.629948778760564  1.0000
  C   C5        1.0  0.3701160139400486  0.37012100645296897  0.7537426047030351  1.0000
  C   C6        1.0  0.6163203976854703  0.24630672681700358  0.6164139233143544  1.0000
  C   C7        1.0  0.38375909622371296  0.6300708700399651  9.079105893936366e-07  1.0000
  C   C8        1.0  0.6298956834788784  0.9999016093270113  0.38359318332280873  1.0000
  C   C9        1.0  0.630068067835893  0.3837741137655969  7.740267903928337e-06  1.0000
  C   C10       1.0  0.38358944767034603  0.999993891615425  0.6299525761282962  1.0000
  C   C11       1.0  0.24630729404658766  0.6163071808686522  0.6164198394839387  1.0000
  C   C12       1.0  0.7536369157691496  0.37003704224255773  0.3700487817651704  1.0000
  C   C13       1.0  0.9442918822158434  0.5325453828827946  0.21186398397772876  1.0000
  C   C14       1.0  0.7324641502961812  0.7881098643534656  0.32058255356295  1.0000
  C   C15       1.0  0.41173343493471737  0.6792404433542598  0.46735409390065286  1.0000
  C   C16       1.0  0.9443699258370303  0.21188792177855476  0.5326423419997325  1.0000
  C   C17       1.0  0.41187293569664263  0.4675112708760381  0.6794124367362357  1.0000
  C   C18       1.0  0.7324323211090445  0.3206805466430255  0.7881389500903566  1.0000
  C   C19       1.0  0.05568975725530125  0.26756487373059196  0.5883035575735461  1.0000
  C   C20       1.0  0.2676851288930849  0.5883023079827793  0.055639192073933044  1.0000
  C   C21       1.0  0.5881038356734437  0.055579305404627695  0.26755865200271967  1.0000
  C   C22       1.0  0.05557559525733784  0.5880987276029543  0.2675519744553227  1.0000
  C   C23       1.0  0.5883042925855052  0.2676954180122451  0.05565048163371232  1.0000
  C   C24       1.0  0.2675662234061633  0.055691019055629405  0.5883047851679564  1.0000
  C   C25       1.0  0.32068582900904374  0.7324259935533133  0.7881400222117775  1.0000
  C   C26       1.0  0.467513260220116  0.4118700394678143  0.6794142516943893  1.0000
  C   C27       1.0  0.21188743648357933  0.9443737435832206  0.532643256064816  1.0000
  C   C28       1.0  0.6792420754737449  0.411726118140514  0.46735063558942613  1.0000
  C   C29       1.0  0.7881082906350442  0.7324683982825988  0.32058475597300856  1.0000
  C   C30       1.0  0.5325446877842169  0.9442941779180245  0.21186637898201605  1.0000
  C   C31       1.0  0.6792583816850525  0.46738529099614823  0.41169197575624134  1.0000
  C   C32       1.0  0.5326619760719994  0.21205338188681114  0.9443643970521903  1.0000
  C   C33       1.0  0.7880278956139507  0.3205507529334994  0.7324527771782954  1.0000
  C   C34       1.0  0.3205513497152738  0.7880178213718239  0.7324494692209882  1.0000
  C   C35       1.0  0.2120451616162457  0.5326618110117068  0.944357156357313  1.0000
  C   C36       1.0  0.467385960258241  0.6792575197017781  0.41168634506109913  1.0000
  C   C37       1.0  0.9998760630302002  0.6764168812248028  0.4874462141154296  1.0000
  C   C38       1.0  0.5125089795128304  0.5125087726301132  0.1889085248831249  1.0000
  C   C39       1.0  0.32356045547162904  0.8110604053423387  0.32361109839362706  1.0000
  C   C40       1.0  0.9999548992561956  0.48745756505829974  0.6763949214465368  1.0000
  C   C41       1.0  0.32359348535057114  0.32358729546576365  0.8110905269812818  1.0000
  C   C42       1.0  0.5124208303073843  0.18896486864306894  0.5125628665247177  1.0000
  C   C43       1.0  0.4876269306552388  0.676557940239256  0.9999960192731762  1.0000
  C   C44       1.0  0.6764144704028254  0.9998698097919528  0.4874472444055086  1.0000
  C   C45       1.0  0.6765561480827603  0.4876326106365454  0.9999964143962928  1.0000
  C   C46       1.0  0.487454185005831  0.9999527447556745  0.6763885415263928  1.0000
  C   C47       1.0  0.18896889843139777  0.5124315082022335  0.5125524311343027  1.0000
  C   C48       1.0  0.8110641534839047  0.3235622395706201  0.32360407396776475  1.0000
  N   N1        1.0  0.909185711799424  0.5592741725293138  0.28544033709105326  1.0000
  N   N2        1.0  0.6237849094920592  0.714502598431217  0.2736843659052681  1.0000
  N   N3        1.0  0.34999178492608257  0.7261474243922592  0.44072161918276004  1.0000
  N   N4        1.0  0.9092777458073441  0.2854339600095343  0.5592830824523174  1.0000
  N   N5        1.0  0.35009227431066864  0.4408044131614873  0.7263085355146259  1.0000
  N   N6        1.0  0.6237423591556706  0.27383250839707773  0.7145740668251221  1.0000
  N   N7        1.0  0.09075500476019031  0.3762193857298258  0.6500309750310082  1.0000
  N   N8        1.0  0.37636193276933483  0.6501008268869127  0.0907211978919803  1.0000
  N   N9        1.0  0.6498501431710367  0.09062285176858619  0.3762285525632763  1.0000
  N   N10       1.0  0.0906308258075511  0.6498492346903004  0.3762283351774725  1.0000
  N   N11       1.0  0.6501014658327832  0.37637761826731964  0.09072735925649056  1.0000
  N   N12       1.0  0.37622020942824724  0.09074861707510713  0.6500290330187113  1.0000
  N   N13       1.0  0.27383522375362906  0.6237397250024443  0.7145569419774206  1.0000
  N   N14       1.0  0.4408131465117507  0.35008569410093326  0.7263105805734753  1.0000
  N   N15       1.0  0.28543239560007555  0.9092788505997902  0.5592817185954573  1.0000
  N   N16       1.0  0.7261464056644655  0.34999290801327015  0.4407122547653869  1.0000
  N   N17       1.0  0.7145038867730237  0.6237892752799681  0.27368886299751677  1.0000
  N   N18       1.0  0.5592699630245975  0.9091768264151554  0.2854383725874499  1.0000
  N   N19       1.0  0.7261892255291756  0.4407219024974226  0.34996777643385  1.0000
  N   N20       1.0  0.5593715898035259  0.28564300605816584  0.9092727178201442  1.0000
  N   N21       1.0  0.7143921830165284  0.273621984908367  0.6237793569677521  1.0000
  N   N22       1.0  0.2736272883729353  0.7144034768482822  0.6237772383514081  1.0000
  N   N23       1.0  0.2856354258651663  0.5593744443091068  0.9092688479927915  1.0000
  N   N24       1.0  0.4407199727026949  0.726184572602527  0.34996995917325785  1.0000
