data_image0
_chemical_formula_structural       Hg2H28C26I4N4
_chemical_formula_sum              "Hg2 H28 C26 I4 N4"
_cell_length_a       5.0107951904715575
_cell_length_b       11.849914790711487
_cell_length_c       13.403106067001978
_cell_angle_alpha    89.99994675498225
_cell_angle_beta     90.00003396521275
_cell_angle_gamma    90.68567296366827

_space_group_name_H-M_alt    "P 1"
_space_group_IT_number       1

loop_
  _space_group_symop_operation_xyz
  'x, y, z'

loop_
  _atom_site_type_symbol
  _atom_site_label
  _atom_site_symmetry_multiplicity
  _atom_site_fract_x
  _atom_site_fract_y
  _atom_site_fract_z
  _atom_site_occupancy
  Hg  Hg1       1.0  0.0180521645632226  0.7769442368667399  0.4941866216138636  1.0000
  Hg  Hg2       1.0  0.9819485819342545  0.223055367018418  0.9941867325386939  1.0000
  H   H1        1.0  0.897493113503174  0.6023323240792992  0.6723298275965703  1.0000
  H   H2        1.0  0.1025071350656646  0.3976676122166367  0.17233005022641384  1.0000
  H   H3        1.0  0.612798866805015  0.5680205084720669  0.8231493283428792  1.0000
  H   H4        1.0  0.38719961931607116  0.4319792685872983  0.32314883987253046  1.0000
  H   H5        1.0  0.2584817154647681  0.893233424146253  0.7710836105629539  1.0000
  H   H6        1.0  0.7415206973267487  0.10676725757134164  0.2710827248502454  1.0000
  H   H7        1.0  0.5648842156789372  0.9156677807468584  0.6245474526623768  1.0000
  H   H8        1.0  0.43511797041428213  0.08433305231162082  0.12454726335413821  1.0000
  H   H9        1.0  0.0625632796545972  0.7647222591999355  0.8968880631666708  1.0000
  H   H10       1.0  0.9374393120900207  0.23527744864598793  0.396888606683028  1.0000
  H   H11       1.0  0.16569617672565332  0.6220565742302215  0.9029673217383092  1.0000
  H   H12       1.0  0.8343044443244523  0.37794396780687123  0.4029669777815387  1.0000
  H   H13       1.0  0.5749295116472481  0.6828416084858733  0.9985056444948416  1.0000
  H   H14       1.0  0.4250712572048627  0.3171588348804947  0.4985045136505236  1.0000
  H   H15       1.0  0.4639027356321108  0.8239567917904298  0.9962172980128943  1.0000
  H   H16       1.0  0.5360980296799198  0.17604365393924584  0.4962163090186139  1.0000
  H   H17       1.0  0.05887539653354419  0.7708911782649891  0.09293262284186452  1.0000
  H   H18       1.0  0.9411247448775627  0.22910968397296472  0.59293271964237  1.0000
  H   H19       1.0  0.1469921751303431  0.6261621682573592  0.088053972834274  1.0000
  H   H20       1.0  0.8530079587331372  0.37383869901928796  0.5880539298933627  1.0000
  H   H21       1.0  0.5867707312365482  0.9184503996565427  0.361126424348008  1.0000
  H   H22       1.0  0.4132297937362209  0.08154849771079142  0.86112652590964  1.0000
  H   H23       1.0  0.27865282698218863  0.8997306515374677  0.2146603480210416  1.0000
  H   H24       1.0  0.7213474870740555  0.1002692410399249  0.7146605027382193  1.0000
  H   H25       1.0  0.5672231519644981  0.5605404334215578  0.1760970717136416  1.0000
  H   H26       1.0  0.4327751066601238  0.4394594955115352  0.676097626731682  1.0000
  H   H27       1.0  0.8557944870581338  0.5920148477363443  0.3265301314848089  1.0000
  H   H28       1.0  0.14420598439217258  0.40798408536191033  0.8265299021933219  1.0000
  C   C1        1.0  0.7540593363355726  0.6648581726520534  0.6978544661612106  1.0000
  C   C2        1.0  0.24594095172123784  0.33514173728222124  0.19785477265167375  1.0000
  C   C3        1.0  0.5939999848857269  0.6462878513089054  0.7809083387916476  1.0000
  C   C4        1.0  0.4059984358870423  0.35371196937616406  0.2809086655547262  1.0000
  C   C5        1.0  0.4091802295755542  0.7279955987403142  0.8097874111176893  1.0000
  C   C6        1.0  0.590822243093143  0.272005043004043  0.3097871007893717  1.0000
  C   C7        1.0  0.3994720235280909  0.8269073962373386  0.7526483747835544  1.0000
  C   C8        1.0  0.6005303607442799  0.1730933045192842  0.25264889479296937  1.0000
  C   C9        1.0  0.5688809315885236  0.8398718269152283  0.6708986808304476  1.0000
  C   C10       1.0  0.4311213105384938  0.16012811433093085  0.17089842773552996  1.0000
  C   C11       1.0  0.23824963932905519  0.7101439422809578  0.9005894862351342  1.0000
  C   C12       1.0  0.7617509780430395  0.28985660221152904  0.4005899452950602  1.0000
  C   C13       1.0  0.3950267958227939  0.7354091378803177  0.9965903749316213  1.0000
  C   C14       1.0  0.6049739700669363  0.2645913074636965  0.4965900739102765  1.0000
  C   C15       1.0  0.2284601671818152  0.7128362952356465  0.09090925425389432  1.0000
  C   C16       1.0  0.7715419511977187  0.287163728622751  0.5909092650744725  1.0000
  C   C17       1.0  0.5752376854679824  0.8404468026070478  0.31783425158209866  1.0000
  C   C18       1.0  0.4247627882034095  0.15955298341330607  0.8178342909864755  1.0000
  C   C19       1.0  0.40509316756882896  0.8294669063745702  0.23616212366901124  1.0000
  C   C20       1.0  0.5949071797516794  0.17053296399602402  0.7361621918930299  1.0000
  C   C21       1.0  0.3966042768703204  0.7278609614732404  0.18271037568832335  1.0000
  C   C22       1.0  0.6033939919843974  0.2721389606303717  0.6827096153954387  1.0000
  C   C23       1.0  0.5633677646920106  0.6411485860969038  0.21540956714150644  1.0000
  C   C24       1.0  0.43663256619694124  0.3588521496480581  0.7154094438124903  1.0000
  C   C25       1.0  0.7256302790766681  0.6580947442687588  0.2981620382954446  1.0000
  C   C26       1.0  0.27436815271423143  0.3419042146558695  0.7981618928552694  1.0000
  I   I1        1.0  0.0836282003638686  0.005032333448660602  0.49072581117221153  1.0000
  I   I2        1.0  0.9163725564534816  0.994968117951963  0.9907260130349089  1.0000
  I   I3        1.0  0.2481002331821074  0.5699179791850497  0.49807986059175857  1.0000
  I   I4        1.0  0.7518985235650603  0.43008161720781163  0.9980790023432817  1.0000
  N   N1        1.0  0.7421006523566477  0.7599380599322745  0.6437162281305433  1.0000
  N   N2        1.0  0.2578995519450586  0.24006190591583734  0.1437158700892667  1.0000
  N   N3        1.0  0.7322047657648411  0.7561267605994574  0.3483399195495593  1.0000
  N   N4        1.0  0.2677957551008631  0.24387299391458583  0.848340600087049  1.0000
