data_image0
_chemical_formula_structural       Zr6H24C44N4O32
_chemical_formula_sum              "Zr6 H24 C44 N4 O32"
_cell_length_a       13.12055701867427
_cell_length_b       17.194475628335145
_cell_length_c       17.2909321315026
_cell_angle_alpha    83.57727910408687
_cell_angle_beta     69.19664628677891
_cell_angle_gamma    68.97135187705344

_space_group_name_H-M_alt    "P 1"
_space_group_IT_number       1

loop_
  _space_group_symop_operation_xyz
  'x, y, z'

loop_
  _atom_site_type_symbol
  _atom_site_label
  _atom_site_symmetry_multiplicity
  _atom_site_fract_x
  _atom_site_fract_y
  _atom_site_fract_z
  _atom_site_occupancy
  Zr  Zr1       1.0  0.0005597891809827786  0.11281312799672351  0.9899633768288398  1.0000
  Zr  Zr2       1.0  0.005778592191454421  0.9485424823324635  0.13510538068942426  1.0000
  Zr  Zr3       1.0  0.125952890779665  0.9593792372222866  0.8277903531633727  1.0000
  Zr  Zr4       1.0  0.1355502543934861  0.797432387049561  0.974371658188197  1.0000
  Zr  Zr5       1.0  0.26491019465450466  0.9464522986204783  0.9749146243808084  1.0000
  Zr  Zr6       1.0  0.8684757813322079  0.9616241064038322  0.9897725966902586  1.0000
  H   H1        1.0  0.17739528870858837  0.4330068932699831  0.9775651596793509  1.0000
  H   H2        1.0  0.29024636262229825  0.5386636839058668  0.9776335414880748  1.0000
  H   H3        1.0  0.9394919036378724  0.47649192823775627  0.0129377829727702  1.0000
  H   H4        1.0  0.8304230522664755  0.3700614406614023  0.00795506210532434  1.0000
  H   H5        1.0  0.17273163631271868  0.9616843224229825  0.4599441963785795  1.0000
  H   H6        1.0  0.2884676240735684  0.9549845436488698  0.5655393730296866  1.0000
  H   H7        1.0  0.9569581716688875  0.9472696341705173  0.5070179409168175  1.0000
  H   H8        1.0  0.8500425695711581  0.936627297011704  0.40137535577483885  1.0000
  H   H9        1.0  0.8156973704455196  0.09032183507188313  0.11899732019336547  1.0000
  H   H10       1.0  0.2220750972401718  0.8216363182914748  0.09864329683743729  1.0000
  H   H11       1.0  0.012837752357128874  0.8343199887346701  0.8649506278716859  1.0000
  H   H12       1.0  0.21785234635436976  0.0746575287089115  0.8553806518726078  1.0000
  H   H13       1.0  0.9531332509654077  0.8356748477257128  0.2443012193312342  1.0000
  H   H14       1.0  0.07615545888937453  0.7658557545620965  0.14452000713455962  1.0000
  H   H15       1.0  0.28225776854653617  0.6887316567655972  0.8530069594053415  1.0000
  H   H16       1.0  0.21077336461095794  0.7882876217005192  0.791031664703091  1.0000
  H   H17       1.0  0.058942330518718215  0.0767889087114497  0.7265026846400034  1.0000
  H   H18       1.0  0.05210105840323112  0.14327122406771764  0.8204068631077632  1.0000
  H   H19       1.0  0.9597992391906801  0.2247670070870669  0.09519414129688636  1.0000
  H   H20       1.0  0.8510922518059729  0.0368099526298593  0.28718528797837456  1.0000
  H   H21       1.0  0.15473375110821044  0.8357131238848937  0.7206287003871878  1.0000
  H   H22       1.0  0.9364641950051085  0.21710145536821562  0.8739602848493321  1.0000
  H   H23       1.0  0.9817003842668369  0.03391274461105811  0.2666009172673612  1.0000
  H   H24       1.0  0.05252182134330497  0.7012754715789171  0.0964683162247013  1.0000
  C   C1        1.0  0.3388762484995241  0.3346351205409164  0.9792663653938831  1.0000
  C   C2        1.0  0.26501113950873634  0.41653498292395597  0.9781501999314914  1.0000
  C   C3        1.0  0.32347484603133836  0.4710754413237766  0.9776529213239017  1.0000
  C   C4        1.0  0.4346028982297412  0.4231827924124972  0.9783625086024161  1.0000
  C   C5        1.0  0.7870819401082659  0.5738880679462709  0.9954919868220888  1.0000
  C   C6        1.0  0.8563751181560165  0.49237419250188463  0.004482435728569085  1.0000
  C   C7        1.0  0.8003521723449933  0.4373351453207804  0.0014636397442302418  1.0000
  C   C8        1.0  0.6952316574717016  0.4845794314534331  0.990216130232753  1.0000
  C   C9        1.0  0.3369557073786638  0.9565498803865254  0.3625299685260402  1.0000
  C   C10       1.0  0.26197734513988996  0.9583323285848593  0.4438719856163048  1.0000
  C   C11       1.0  0.3214493763421584  0.954713334052812  0.498396555090821  1.0000
  C   C12       1.0  0.43440151294510804  0.9507809489050203  0.4510453886024877  1.0000
  C   C13       1.0  0.792820380832481  0.9510691374900591  0.6039327649005487  1.0000
  C   C14       1.0  0.8694283946792326  0.9469035703336177  0.5227947655520707  1.0000
  C   C15       1.0  0.813806330684976  0.9423221680535931  0.46831656425005264  1.0000
  C   C16       1.0  0.7015141393616346  0.9441139582349936  0.5153591243676061  1.0000
  C   C17       1.0  0.24111217231462223  0.13729139217188902  0.9843240909449591  1.0000
  C   C18       1.0  0.7358265548714157  0.953006532371873  0.1877079378612407  1.0000
  C   C19       1.0  0.23873754370885789  0.9539869715921725  0.16748398724620733  1.0000
  C   C20       1.0  0.7327014168667604  0.15570369883309348  0.9830690571317221  1.0000
  C   C21       1.0  0.8902070086028286  0.9666578968603974  0.7959213751639141  1.0000
  C   C22       1.0  0.40491082351469015  0.7473588584430717  0.9640803059749175  1.0000
  C   C23       1.0  0.8902812046557499  0.7678430576131704  0.9952206390003229  1.0000
  C   C24       1.0  0.3999527330128601  0.9412060278440677  0.7786421866511332  1.0000
  C   C25       1.0  0.8108577072937637  0.9574262772517063  0.6771333250067143  1.0000
  C   C26       1.0  0.8410886277154788  0.9635129114492217  0.7347215029859201  1.0000
  C   C27       1.0  0.5947194557237836  0.9462329106394236  0.662268625826421  1.0000
  C   C28       1.0  0.5059441783060521  0.9420974418660748  0.7145464649067962  1.0000
  C   C29       1.0  0.5394851745378729  0.95142650724965  0.303958316262488  1.0000
  C   C30       1.0  0.6300406168606328  0.9512893232092169  0.2509266303139768  1.0000
  C   C31       1.0  0.31641793170592075  0.957326038099751  0.2888504597619246  1.0000
  C   C32       1.0  0.28610859426209606  0.9575254546904262  0.2296481787591773  1.0000
  C   C33       1.0  0.5275513463853017  0.9468759775565658  0.4736653843533035  1.0000
  C   C34       1.0  0.6103325024352484  0.9441611532525372  0.49235955563548134  1.0000
  C   C35       1.0  0.8079599813355072  0.6475709110972193  0.9958143619495561  1.0000
  C   C36       1.0  0.839659748713153  0.7059333436024815  0.9974555906919989  1.0000
  C   C37       1.0  0.5099559268550423  0.6834469700255854  0.9672969504973778  1.0000
  C   C38       1.0  0.5966481215142921  0.6318146290607275  0.9765022411045411  1.0000
  C   C39       1.0  0.6274526081251608  0.21909747107642374  0.9796567128722274  1.0000
  C   C40       1.0  0.5384516382050748  0.27455645425920494  0.9795404468986462  1.0000
  C   C41       1.0  0.3194221669947764  0.26013975240405784  0.9808477006712624  1.0000
  C   C42       1.0  0.291041997305804  0.1994400177128952  0.9828571543437052  1.0000
  C   C43       1.0  0.5255810424822158  0.445159868604776  0.9804852579067287  1.0000
  C   C44       1.0  0.6065287897556927  0.46221190055706535  0.9843211475324694  1.0000
  N   N1        1.0  0.4441902345277455  0.33884520557670333  0.9789223947724182  1.0000
  N   N2        1.0  0.6868542486991347  0.5690627019883933  0.9863754826259665  1.0000
  N   N3        1.0  0.4440716924110502  0.9520281574014506  0.36703596432583663  1.0000
  N   N4        1.0  0.6890701835098196  0.9485167578425334  0.5992549359216924  1.0000
  O   O1        1.0  0.1337411809037476  0.16691535935484583  0.9917548676135723  1.0000
  O   O2        1.0  0.3051547990652351  0.060535095859897615  0.9775191969712723  1.0000
  O   O3        1.0  0.8185978473846374  0.9501003249366279  0.21236700012528337  1.0000
  O   O4        1.0  0.7372912133625673  0.9577971698241117  0.11361869412682087  1.0000
  O   O5        1.0  0.13057285987063233  0.9619958639742167  0.1957909712036709  1.0000
  O   O6        1.0  0.30467767502912574  0.9419099310823641  0.0923246240388025  1.0000
  O   O7        1.0  0.8178981497938552  0.17914414729032302  0.972978148708286  1.0000
  O   O8        1.0  0.7301577996307599  0.0816015594959154  0.9971771615286046  1.0000
  O   O9        1.0  0.9119761764905404  0.2022308626146767  0.07908620437904561  1.0000
  O   O10       1.0  0.016841068997706498  0.1860608967666266  0.8698932452624463  1.0000
  O   O11       1.0  0.9178784645890445  0.0461754998504631  0.24486029865681755  1.0000
  O   O12       1.0  0.026913013343303656  0.8375457250454094  0.20533888745283957  1.0000
  O   O13       1.0  0.0981740734992513  0.014770264238990204  0.04685341455888191  1.0000
  O   O14       1.0  0.883872939046242  0.049220803048491704  0.08238452437355902  1.0000
  O   O15       1.0  0.9958519188024086  0.9653311470208976  0.7660210924953008  1.0000
  O   O16       1.0  0.828876423349527  0.9689854773973678  0.8719174470946882  1.0000
  O   O17       1.0  0.32382861622887293  0.7238168685256527  0.9616919122878971  1.0000
  O   O18       1.0  0.40171515305029704  0.8221145793247546  0.9655598918346373  1.0000
  O   O19       1.0  0.9943761458417841  0.7391930947523875  0.9968704950400988  1.0000
  O   O20       1.0  0.8307579117429708  0.8442573522975536  0.9905768115316462  1.0000
  O   O21       1.0  0.317502604760776  0.9418519606895686  0.7559958634679377  1.0000
  O   O22       1.0  0.39953137946849193  0.9414091986523375  0.8526156833337453  1.0000
  O   O23       1.0  0.20553247742402891  0.8381603432631056  0.7491309189870705  1.0000
  O   O24       1.0  0.107482066233537  0.07070890555141321  0.7597539095738315  1.0000
  O   O25       1.0  0.20474017828749425  0.7289826184122745  0.8615272952399309  1.0000
  O   O26       1.0  0.11252709038183174  0.7231751021358904  0.09454759319820741  1.0000
  O   O27       1.0  0.028301447308869906  0.8696185428347151  0.8961872768803761  1.0000
  O   O28       1.0  0.20177871556802526  0.8880337081412507  0.9133051545650874  1.0000
  O   O29       1.0  0.9807213621918366  0.021825784609646303  0.924736909012296  1.0000
  O   O30       1.0  0.17968257501194543  0.8575898407500945  0.06456454759344867  1.0000
  O   O31       1.0  0.1743524376385395  0.04173365510245471  0.8920675814503839  1.0000
  O   O32       1.0  0.9844893967496233  0.8914951033884082  0.04782875212586644  1.0000
