data_image0
_chemical_formula_structural       Zn8C76N16O58F16
_chemical_formula_sum              "Zn8 C76 N16 O58 F16"
_cell_length_a       18.452693001581437
_cell_length_b       18.45246356891104
_cell_length_c       19.013287201325145
_cell_angle_alpha    119.03390016336337
_cell_angle_beta     119.03605260563879
_cell_angle_gamma    90.00850110817156

_space_group_name_H-M_alt    "P 1"
_space_group_IT_number       1

loop_
  _space_group_symop_operation_xyz
  'x, y, z'

loop_
  _atom_site_type_symbol
  _atom_site_label
  _atom_site_symmetry_multiplicity
  _atom_site_fract_x
  _atom_site_fract_y
  _atom_site_fract_z
  _atom_site_occupancy
  Zn  Zn1       1.0  0.8777008041017141  0.2843099229799932  0.5832891685724562  1.0000
  Zn  Zn2       1.0  0.12227479120241468  0.7010113538334151  0.4166654716457642  1.0000
  Zn  Zn3       1.0  0.29897403157288943  0.877746500578297  0.5833140390277904  1.0000
  Zn  Zn4       1.0  0.7156923216242318  0.12231561787886135  0.4166910240868232  1.0000
  Zn  Zn5       1.0  0.7056558851662441  0.29905839621648045  0.5833525762547891  1.0000
  Zn  Zn6       1.0  0.2943287021987544  0.715680666362452  0.4166339389937335  1.0000
  Zn  Zn7       1.0  0.28433175781692915  0.7056987719294767  0.5833511307232868  1.0000
  Zn  Zn8       1.0  0.7009648751787341  0.29437839275953354  0.4166473835371392  1.0000
  C   C1        1.0  0.9316043034787355  0.43161521800738706  0.8629210294522948  1.0000
  C   C2        1.0  0.06846130984234836  0.5683738131687973  0.13703391830975423  1.0000
  C   C3        1.0  0.4316118069363742  0.9315530536529621  0.8629482413169925  1.0000
  C   C4        1.0  0.5683305145697588  0.0684186751416931  0.1370642836011342  1.0000
  C   C5        1.0  0.9757520429837498  0.47571968232551143  0.951297437613043  1.0000
  C   C6        1.0  0.024310274358143154  0.5242434581376898  0.04863886038259591  1.0000
  C   C7        1.0  0.4757324803435524  0.9757273854462412  0.95134549236127  1.0000
  C   C8        1.0  0.5242393171384875  0.024290309699040204  0.04868617372558492  1.0000
  C   C9        1.0  0.6203169756099173  0.12035559055325971  0.24073536606260162  1.0000
  C   C10       1.0  0.379682837531753  0.8797015412882628  0.7592900640869259  1.0000
  C   C11       1.0  0.12030285293490552  0.6203022823276214  0.24069137638425528  1.0000
  C   C12       1.0  0.8796666376433679  0.379674400575702  0.7592493109479078  1.0000
  C   C13       1.0  0.8834389449770941  0.38337733297382215  0.5000283390844373  1.0000
  C   C14       1.0  0.1072747089074896  0.6072879696896223  0.5000101161605245  1.0000
  C   C15       1.0  0.11657057489023984  0.8834060335976089  0.500008153175834  1.0000
  C   C16       1.0  0.8927218485667724  0.10725239950221532  0.5000098388345364  1.0000
  C   C17       1.0  0.6166518103127744  0.11658622697527937  0.4999792601878497  1.0000
  C   C18       1.0  0.3927454584424911  0.8927682402481381  0.5000131307003175  1.0000
  C   C19       1.0  0.38334700700297475  0.6166379091519686  0.4999839973785  1.0000
  C   C20       1.0  0.6072280814776579  0.3927534303493731  0.5000002038683179  1.0000
  C   C21       1.0  0.8290991270289964  0.9152809101547915  0.418138547974273  1.0000
  C   C22       1.0  0.18029905854438508  0.07843413687275101  0.6564414266798834  1.0000
  C   C23       1.0  0.5025639428135379  0.8291190684194446  0.41790163116710494  1.0000
  C   C24       1.0  0.578243370604099  0.18032554258844877  0.6564866692387951  1.0000
  C   C25       1.0  0.5889176009376624  0.5027379482843413  0.4181054109440863  1.0000
  C   C26       1.0  0.4760146121760158  0.5780056355887169  0.6563670828322543  1.0000
  C   C27       1.0  0.9154153851102012  0.5891129909916162  0.4183232093478043  1.0000
  C   C28       1.0  0.07847639881975967  0.4759384407178756  0.6563307533684578  1.0000
  C   C29       1.0  0.41125692639938893  0.0847581257703994  0.5821349217421455  1.0000
  C   C30       1.0  0.5238062922584846  0.9216479553104546  0.34348450383579626  1.0000
  C   C31       1.0  0.08467329454998661  0.1708454471506328  0.5818820802913007  1.0000
  C   C32       1.0  0.9215277998530808  0.819634935251905  0.343616119040668  1.0000
  C   C33       1.0  0.17087331067553893  0.4972370318782425  0.58179913119033  1.0000
  C   C34       1.0  0.8196476788937873  0.4221145286272261  0.34376227181185476  1.0000
  C   C35       1.0  0.49726596263379713  0.4110969891859001  0.5819350081604852  1.0000
  C   C36       1.0  0.4219869945263994  0.5239216698606839  0.34360437151935497  1.0000
  C   C37       1.0  0.7898851217303857  0.8286775836166667  0.3430067895416755  1.0000
  C   C38       1.0  0.21636806125251698  0.16578952418932863  0.70066843558196  1.0000
  C   C39       1.0  0.5139894056877381  0.7899401039680213  0.342770274050622  1.0000
  C   C40       1.0  0.5351968528316532  0.21641797044816968  0.700796100147997  1.0000
  C   C41       1.0  0.5529744732864331  0.5140523252308283  0.3428971462308894  1.0000
  C   C42       1.0  0.48425932856650195  0.5348980589769213  0.7006235791084593  1.0000
  C   C43       1.0  0.8287966446795565  0.5532104537480932  0.3432243732999963  1.0000
  C   C44       1.0  0.16580551940255367  0.4840043853722945  0.7004104740531928  1.0000
  C   C45       1.0  0.44729874123267155  0.1713430337338336  0.6573159798947897  1.0000
  C   C46       1.0  0.5156354796575898  0.8342993007778432  0.2992668798577185  1.0000
  C   C47       1.0  0.17125762232657854  0.21008030526139268  0.657053785352879  1.0000
  C   C48       1.0  0.8341767597277109  0.7835552682205458  0.2994186220924957  1.0000
  C   C49       1.0  0.2100964642910057  0.48571584179199323  0.6568676267671234  1.0000
  C   C50       1.0  0.7836089011070442  0.4653320719646032  0.29965370265200875  1.0000
  C   C51       1.0  0.48590645432264506  0.4470319398658731  0.6571081935923287  1.0000
  C   C52       1.0  0.4650819982861095  0.5156355339801805  0.2993321831825498  1.0000
  C   C53       1.0  0.9676508422253391  0.9054012842362269  0.4314801581059981  1.0000
  C   C54       1.0  0.040951592658600953  0.084941641230266  0.5481992005172173  1.0000
  C   C55       1.0  0.5259163134645066  0.9677123550263786  0.43134650512384115  1.0000
  C   C56       1.0  0.46335118794743113  0.04102849695598109  0.5482989459000506  1.0000
  C   C57       1.0  0.4637269878968766  0.5260664033672882  0.4314838141059809  1.0000
  C   C58       1.0  0.5071855428130335  0.4632869772381271  0.5481935305317337  1.0000
  C   C59       1.0  0.905449824183606  0.46382617153898315  0.4315644545638194  1.0000
  C   C60       1.0  0.08497828800976488  0.507249136747987  0.5481953440167473  1.0000
  C   C61       1.0  0.5363596883071935  0.09458202049452065  0.5685874868393412  1.0000
  C   C62       1.0  0.49265256925271234  0.9150550467067119  0.4516847591795994  1.0000
  C   C63       1.0  0.09454695727924899  0.03230270820258597  0.5685475342501219  1.0000
  C   C64       1.0  0.9150046434893684  0.9589923512877333  0.4518402833594521  1.0000
  C   C65       1.0  0.032356589484479135  0.47396297836237977  0.5685484516347827  1.0000
  C   C66       1.0  0.9590586545690768  0.5368490062429458  0.45192600296610413  1.0000
  C   C67       1.0  0.4739097783723664  0.5362701145339627  0.5685133359026365  1.0000
  C   C68       1.0  0.5367031716159187  0.492791484292418  0.4518133113688591  1.0000
  C   C69       1.0  0.05887352888082392  0.9410807758054672  0.5000116695811913  1.0000
  C   C70       1.0  0.9504293923117971  0.04951950350908872  0.5000179757673848  1.0000
  C   C71       1.0  0.5589249613297794  0.05891181027222106  0.49996926644967477  1.0000
  C   C72       1.0  0.45046259089763657  0.9504903893387747  0.5000095418154942  1.0000
  C   C73       1.0  0.441040731003838  0.5589524254256587  0.49999710120128055  1.0000
  C   C74       1.0  0.5494968138421258  0.4504805635052307  0.5000038900352379  1.0000
  C   C75       1.0  0.9411362153097895  0.44109632567714396  0.5000456777293395  1.0000
  C   C76       1.0  0.04956100757620162  0.5495778677226539  0.5000309182727776  1.0000
  N   N1        1.0  0.7912841656087795  0.9565175533489026  0.47490436525892227  1.0000
  N   N2        1.0  0.22544231280041055  0.03816115679204297  0.7093375620565678  1.0000
  N   N3        1.0  0.518218934986848  0.7913173244881833  0.47470924758446387  1.0000
  N   N4        1.0  0.6714249468115057  0.22539255979563663  0.7092923631478382  1.0000
  N   N5        1.0  0.6835243766299827  0.5183603322979023  0.4750042172132609  1.0000
  N   N6        1.0  0.48374731859147596  0.6711775959942797  0.7092474101226003  1.0000
  N   N7        1.0  0.956751424306461  0.6837039390775245  0.4751301394467475  1.0000
  N   N8        1.0  0.03828297367262926  0.48366478417235476  0.7092892867553146  1.0000
  N   N9        1.0  0.31664432377996116  0.04357157161750539  0.5254291025755364  1.0000
  N   N10       1.0  0.516118010777035  0.961953450924966  0.29064494821443543  1.0000
  N   N11       1.0  0.043448114214221796  0.20858056041379314  0.5250183939507663  1.0000
  N   N12       1.0  0.9617768435060654  0.7744688080429112  0.29070612196044  1.0000
  N   N13       1.0  0.20855756331717154  0.4815966628984115  0.5248866406129764  1.0000
  N   N14       1.0  0.7744414520380258  0.32893342061455383  0.29078879789445  1.0000
  N   N15       1.0  0.4817258335123427  0.3165009685928553  0.5251295944187575  1.0000
  N   N16       1.0  0.3288041641891796  0.516173849840264  0.2907184328880276  1.0000
  O   O1        1.0  0.7499877507899129  0.2500307397279471  0.49999404284562843  1.0000
  O   O2        1.0  0.24999529838063955  0.7500281288530813  0.49998887474283277  1.0000
  O   O3        1.0  0.6611100814309127  0.08229807285476202  0.28166749794486634  1.0000
  O   O4        1.0  0.3793804475808005  0.9178242753930164  0.7183677363585517  1.0000
  O   O5        1.0  0.19933090652636315  0.6609756540720255  0.2815500133106639  1.0000
  O   O6        1.0  0.8006448741123223  0.3794705306109379  0.7184224394661385  1.0000
  O   O7        1.0  0.6205508690404713  0.19938056927619388  0.2815731649625164  1.0000
  O   O8        1.0  0.3390215293254855  0.8006712990806617  0.7184365050397971  1.0000
  O   O9        1.0  0.08218038984772852  0.6206048766728997  0.2816078942263971  1.0000
  O   O10       1.0  0.9177153288097485  0.33890010442469526  0.7183053410075786  1.0000
  O   O11       1.0  0.8028056630545848  0.37636199576102314  0.4560933986268765  1.0000
  O   O12       1.0  0.18758677305999788  0.6389307453290131  0.5679402958178558  1.0000
  O   O13       1.0  0.07963316515776614  0.8027536286300148  0.45601454539215075  1.0000
  O   O14       1.0  0.9290619044481188  0.1875721768713703  0.5678738115366853  1.0000
  O   O15       1.0  0.6532847898080406  0.07962960676822223  0.45598803413007266  1.0000
  O   O16       1.0  0.3804050805615802  0.929067244499599  0.5679561998432661  1.0000
  O   O17       1.0  0.37631537234529583  0.6533013203769826  0.45601493836077367  1.0000
  O   O18       1.0  0.6389096169038098  0.3804345220984117  0.5679753360954861  1.0000
  O   O19       1.0  0.3466740481743571  0.6236772846877727  0.5439432487224422  1.0000
  O   O20       1.0  0.6195522253153954  0.36107379639119597  0.4320471858568169  1.0000
  O   O21       1.0  0.6237304238998788  0.19723348442101946  0.5439878306121244  1.0000
  O   O22       1.0  0.3610849222783584  0.8124635542295306  0.4320627123288217  1.0000
  O   O23       1.0  0.19721771985569342  0.9203741271858873  0.5440046091366283  1.0000
  O   O24       1.0  0.8123916987445341  0.07091418971806011  0.4321270022277729  1.0000
  O   O25       1.0  0.9203747561274298  0.34666846585964356  0.5439398038432515  1.0000
  O   O26       1.0  0.07095039364772049  0.6196234051672391  0.4320612053480629  1.0000
  O   O27       1.0  0.8422592021573719  0.017461089462493237  0.5605251975943302  1.0000
  O   O28       1.0  0.7124990392411024  0.9252146947822909  0.43549099220312126  1.0000
  O   O29       1.0  0.17840228328806523  0.9868362706754821  0.7058520626104183  1.0000
  O   O30       1.0  0.30568924682398085  0.06028461536580225  0.7553812952418326  1.0000
  O   O31       1.0  0.5430350329549328  0.8422936399293234  0.5603668539921715  1.0000
  O   O32       1.0  0.5100883160884494  0.7125360116029071  0.4352802545064805  1.0000
  O   O33       1.0  0.7191632226434593  0.1782803996642528  0.705607813698947  1.0000
  O   O34       1.0  0.6954839467585001  0.3056419847830724  0.7554562501349196  1.0000
  O   O35       1.0  0.7180928622595603  0.5429368572584039  0.5605788723518613  1.0000
  O   O36       1.0  0.7230019663164811  0.5104046478940559  0.4357492731314636  1.0000
  O   O37       1.0  0.5273229812166988  0.7190021296081639  0.7057688441282578  1.0000
  O   O38       1.0  0.4495371446593239  0.6951303118574899  0.7552644059968471  1.0000
  O   O39       1.0  0.01782455955711277  0.7183083869848801  0.5606915141157885  1.0000
  O   O40       1.0  0.9254167890473968  0.7231320635781486  0.43581729679360154  1.0000
  O   O41       1.0  0.9869744925478086  0.5272265310022844  0.7058875769759396  1.0000
  O   O42       1.0  0.06042028779459942  0.4494406078616393  0.7552999808263648  1.0000
  O   O43       1.0  0.28188010562899996  0.9827012900071849  0.43976161079249476  1.0000
  O   O44       1.0  0.27737642300147775  0.0748459010523987  0.5649555767241806  1.0000
  O   O45       1.0  0.47265562009685164  0.0133492923422409  0.29421330363249604  1.0000
  O   O46       1.0  0.5502814969103511  0.9398180668751762  0.24457530685457846  1.0000
  O   O47       1.0  0.9824651215953824  0.15757703577686055  0.4394252708417029  1.0000
  O   O48       1.0  0.07480426548480781  0.28733444268828384  0.5643251110627433  1.0000
  O   O49       1.0  0.013041272937883335  0.8214845798855778  0.2940996999143551  1.0000
  O   O50       1.0  0.9396973737622218  0.6942258500920315  0.24473607090484256  1.0000
  O   O51       1.0  0.1575210218451063  0.4570375179712158  0.43932210998966786  1.0000
  O   O52       1.0  0.2872829276046859  0.48946291450628365  0.5641100006405964  1.0000
  O   O53       1.0  0.8214289515791291  0.28106080508013054  0.29422942914767686  1.0000
  O   O54       1.0  0.6941908773964299  0.30501133083210863  0.24472786281283723  1.0000
  O   O55       1.0  0.45699790362246523  0.281858751023428  0.43950338212940904  1.0000
  O   O56       1.0  0.48990364933598585  0.2771158494230407  0.5645255835691358  1.0000
  O   O57       1.0  0.28100372988610905  0.4726500542681221  0.29427153601923095  1.0000
  O   O58       1.0  0.30481939555691895  0.5503215912104267  0.244634149397946  1.0000
  F   F1        1.0  0.2186601813090334  0.28836353404814474  0.6929498644171445  1.0000
  F   F2        1.0  0.7864921626869761  0.7057194468696082  0.21634673879563598  1.0000
  F   F3        1.0  0.4049989534979091  0.21873993217744211  0.6933232533462785  1.0000
  F   F4        1.0  0.5104184369349698  0.7866291683440849  0.21621901686857842  1.0000
  F   F5        1.0  0.4744371514159694  0.4046221108141664  0.6929927844144926  1.0000
  F   F6        1.0  0.4296577319419583  0.5103262467274873  0.2162245737148609  1.0000
  F   F7        1.0  0.28837580735697094  0.47421806392211596  0.6927063499510168  1.0000
  F   F8        1.0  0.7057345562562676  0.43000683709169607  0.21663294113564993  1.0000
  F   F9        1.0  0.5254654134895917  0.7116583177548038  0.3068491072477715  1.0000
  F   F10       1.0  0.5707045604190101  0.2942408740009341  0.7839090795997806  1.0000
  F   F11       1.0  0.7115944604999743  0.7812868796232733  0.3071088338968338  1.0000
  F   F12       1.0  0.29417380060876047  0.21350091717766875  0.7837836368406171  1.0000
  F   F13       1.0  0.7814577839483975  0.595626410529114  0.30736135526087344  1.0000
  F   F14       1.0  0.2135232032669663  0.4891054526030416  0.783388646675327  1.0000
  F   F15       1.0  0.5953830533526344  0.5255117734834513  0.30701141748903643  1.0000
  F   F16       1.0  0.4894928268216248  0.5703032883801952  0.783682899630115  1.0000
