data_image0
_chemical_formula_structural       Zn2H13C22N2ClO13
_chemical_formula_sum              "Zn2 H13 C22 N2 Cl1 O13"
_cell_length_a       9.90582424146841
_cell_length_b       11.153725630951783
_cell_length_c       16.016909927754305
_cell_angle_alpha    90.75179718796058
_cell_angle_beta     93.56045442672323
_cell_angle_gamma    89.50525856442886

_space_group_name_H-M_alt    "P 1"
_space_group_IT_number       1

loop_
  _space_group_symop_operation_xyz
  'x, y, z'

loop_
  _atom_site_type_symbol
  _atom_site_label
  _atom_site_symmetry_multiplicity
  _atom_site_fract_x
  _atom_site_fract_y
  _atom_site_fract_z
  _atom_site_occupancy
  Zn  Zn1       1.0  0.6329717330432982  0.48466156488863293  0.5203394762306104  1.0000
  Zn  Zn2       1.0  0.34856591299473644  0.479768590886131  0.4864565721653946  1.0000
  H   H1        1.0  0.4192428795862496  0.6904766622851994  0.07083461252241821  1.0000
  H   H2        1.0  0.14892639858717868  0.49037786533377664  0.6089001263179912  1.0000
  H   H3        1.0  0.07757698421665539  0.47666170587893936  0.4296756347648341  1.0000
  H   H4        1.0  0.6253348071640944  0.687493131898691  0.9557164943582279  1.0000
  H   H5        1.0  0.26373540912738486  0.5324974602788259  0.9640075730497061  1.0000
  H   H6        1.0  0.38828899022298197  0.3342881004436293  0.049246748832089814  1.0000
  H   H7        1.0  0.5935794689734167  0.3313191205522302  0.9333582311820338  1.0000
  H   H8        1.0  0.7494488754248678  0.4889040034085568  0.0405164862952105  1.0000
  H   H9        1.0  0.6765263724612112  0.8187071656232804  0.4600675350556856  1.0000
  H   H10       1.0  0.9737585332457285  0.5003934893847629  0.6808628716540781  1.0000
  H   H11       1.0  0.783107097870939  0.4598940144377293  0.39142671957820613  1.0000
  H   H12       1.0  0.20730873732412644  0.0251859644645691  0.4812614842234453  1.0000
  H   H13       1.0  0.2830692098836565  0.7818683092145234  0.5156222687612628  1.0000
  C   C1        1.0  0.49092896436232536  0.7161592777313998  0.48862467562887707  1.0000
  C   C2        1.0  0.5266195929718833  0.5007575254001466  0.0876209939026751  1.0000
  C   C3        1.0  0.555537391491782  0.41083042927019886  0.9651923023851054  1.0000
  C   C4        1.0  0.4864495120699317  0.5210231011523377  0.9168992474789663  1.0000
  C   C5        1.0  0.4400318347851879  0.41285984021553884  0.027155567084960797  1.0000
  C   C6        1.0  0.3716917396501742  0.5226525287431016  0.9814818183905204  1.0000
  C   C7        1.0  0.5373611573472843  0.4893052069744571  0.1755965030749422  1.0000
  C   C8        1.0  0.4711607068380701  0.5264923368372507  0.8286540323046125  1.0000
  C   C9        1.0  0.3901343433446058  0.051012930619585006  0.5145000980433707  1.0000
  C   C10       1.0  0.49428624304627505  0.1265580668307038  0.5400003957469863  1.0000
  C   C11       1.0  0.39552446225180654  0.9197211847110226  0.5131263435781366  1.0000
  C   C12       1.0  0.5205034203251913  0.471292980755024  0.33982751593674015  1.0000
  C   C13       1.0  0.500667747599671  0.847741182714664  0.49027030264331023  1.0000
  C   C14       1.0  0.937181895883377  0.48785200147692354  0.5618689109618701  1.0000
  C   C15       1.0  0.08272732079317542  0.4864278852986033  0.5511282245942868  1.0000
  C   C16       1.0  0.49419404841694353  0.2571722010575286  0.5252697526858159  1.0000
  C   C17       1.0  0.4697972472354549  0.5191209153869424  0.6626267248538512  1.0000
  C   C18       1.0  0.5731360773605871  0.6087315760115644  0.9771914831439477  1.0000
  C   C19       1.0  0.45762387854356484  0.6107979703819595  0.039341546808593406  1.0000
  C   C20       1.0  0.5351231439688746  0.47944706915208707  0.2512827861424682  1.0000
  C   C21       1.0  0.464451294487958  0.527048421547299  0.752364011809405  1.0000
  C   C22       1.0  0.641507612153326  0.4989133498204623  0.023072482647855  1.0000
  N   N1        1.0  0.8393762703460793  0.4817807988410507  0.5041184733007072  1.0000
  N   N2        1.0  0.1421999043548681  0.4815446748316885  0.48218239402188356  1.0000
  Cl  Cl1       1.0  0.6340054285594333  0.070699462254538  0.5965658401142876  1.0000
  O   O1        1.0  0.6002581782529645  0.6591117731418521  0.4758756193759056  1.0000
  O   O2        1.0  0.3760357899525246  0.6668108485100674  0.499368537813254  1.0000
  O   O3        1.0  0.6246166624756526  0.4420198577459686  0.3873990186345822  1.0000
  O   O4        1.0  0.4038474776728691  0.4939261973160356  0.3649188088631163  1.0000
  O   O5        1.0  0.6015317292664122  0.3144086267160304  0.5491255571375151  1.0000
  O   O6        1.0  0.3885999939386338  0.3038436497372032  0.4886833096534886  1.0000
  O   O7        1.0  0.5830241492339424  0.545591114960068  0.6340218032434208  1.0000
  O   O8        1.0  0.36379755659462637  0.4851601079492411  0.6198374358098421  1.0000
  O   O9        1.0  0.6203287885067468  0.8911522992998042  0.4667669009684303  1.0000
  O   O10       1.0  0.895827871179037  0.49752726660130253  0.6407428475847683  1.0000
  O   O11       1.0  0.8753079630493515  0.4721917245300701  0.42295544892915876  1.0000
  O   O12       1.0  0.26629888168526616  0.09543866636273887  0.4885594832736474  1.0000
  O   O13       1.0  0.27149952977211467  0.8710640349843286  0.5253221486622621  1.0000
