data_image0
_chemical_formula_structural       Cu2H18C30N6O12
_chemical_formula_sum              "Cu2 H18 C30 N6 O12"
_cell_length_a       9.03779889863146
_cell_length_b       10.400776170014101
_cell_length_c       10.484780647200367
_cell_angle_alpha    101.72879239038909
_cell_angle_beta     93.33942874997585
_cell_angle_gamma    125.76531997449254

_space_group_name_H-M_alt    "P 1"
_space_group_IT_number       1

loop_
  _space_group_symop_operation_xyz
  'x, y, z'

loop_
  _atom_site_type_symbol
  _atom_site_label
  _atom_site_symmetry_multiplicity
  _atom_site_fract_x
  _atom_site_fract_y
  _atom_site_fract_z
  _atom_site_occupancy
  Cu  Cu1       1.0  0.5607074321730963  0.8440493805910665  0.6583491146015776  1.0000
  Cu  Cu2       1.0  0.439293350075296  0.15595538721913024  0.3416515995438162  1.0000
  H   H1        1.0  0.18882984609226847  0.6060802108878394  0.4544210280562098  1.0000
  H   H2        1.0  0.8111832502672058  0.3939259620526344  0.5455775852534971  1.0000
  H   H3        1.0  0.9402325419535986  0.296114033538501  0.3825848559418077  1.0000
  H   H4        1.0  0.05976976275831436  0.703890956214046  0.6174132084225121  1.0000
  H   H5        1.0  0.9950618198551526  0.12474654917491536  0.48198700744608663  1.0000
  H   H6        1.0  0.004923610090358546  0.8752551400499373  0.5180247246237074  1.0000
  H   H7        1.0  0.30274389634751503  0.26337310629907773  0.6366373215217183  1.0000
  H   H8        1.0  0.6972390483871395  0.7366282956359244  0.3633750183842467  1.0000
  H   H9        1.0  0.5623963280358666  0.40970547921931916  0.7855026845878542  1.0000
  H   H10       1.0  0.4376053789266052  0.5902868173233105  0.2144902440717261  1.0000
  H   H11       1.0  0.8847005938571044  0.5963797495281826  0.9256607116123733  1.0000
  H   H12       1.0  0.1153021475354237  0.40360791060361123  0.07433824204662905  1.0000
  H   H13       1.0  0.0889009933093661  0.8991777676402822  0.9363106862336114  1.0000
  H   H14       1.0  0.9111008883165612  0.10081889157114433  0.06369641843919287  1.0000
  H   H15       1.0  0.9515062654398464  0.0018822548539887075  0.8123394273047567  1.0000
  H   H16       1.0  0.04848698513615796  0.9981076683779907  0.18766738749666  1.0000
  H   H17       1.0  0.9749545892982711  0.5447536486964923  0.16900252606713206  1.0000
  H   H18       1.0  0.025052294020675037  0.4552462607586209  0.8309856408285513  1.0000
  C   C1        1.0  0.7637439217094623  0.17239371953610322  0.8442736483301446  1.0000
  C   C2        1.0  0.2362595226405021  0.8276078946949712  0.15572588516185712  1.0000
  C   C3        1.0  0.624459271079239  0.08301567889387944  0.9273396683588118  1.0000
  C   C4        1.0  0.3755442605270148  0.9169941719214096  0.07265363986029882  1.0000
  C   C5        1.0  0.6053348971647666  0.16717824816078067  0.040704006794221946  1.0000
  C   C6        1.0  0.39465973473657806  0.8328134969924221  0.9592774432866307  1.0000
  C   C7        1.0  0.715308749248386  0.3529919135570125  0.08806417354805522  1.0000
  C   C8        1.0  0.2846816891253853  0.6470117963411398  0.9119322382711701  1.0000
  C   C9        1.0  0.20622801541148317  0.5251110229878224  0.49322717722410664  1.0000
  C   C10       1.0  0.7937785231152789  0.47489782561854826  0.5067749360110626  1.0000
  C   C11       1.0  0.06945601150555093  0.3537900909043474  0.4543579259067202  1.0000
  C   C12       1.0  0.9305514897685538  0.6462188230495299  0.5456462292733448  1.0000
  C   C13       1.0  0.10177516580483824  0.2587834819638672  0.5094482443839112  1.0000
  C   C14       1.0  0.8982254597585565  0.7412210380041487  0.49056389515834564  1.0000
  C   C15       1.0  0.27120708484794426  0.336465004471883  0.5981443972701115  1.0000
  C   C16       1.0  0.7287878426493323  0.6635331920824045  0.4018630911838131  1.0000
  C   C17       1.0  0.40209020668613965  0.5088094357332268  0.632971602918481  1.0000
  C   C18       1.0  0.5979045416664304  0.49118891470633486  0.36702727517416633  1.0000
  C   C19       1.0  0.5877399348598971  0.6063224981180398  0.7225409704436885  1.0000
  C   C20       1.0  0.4122583801293517  0.3936750067074614  0.27746202093903355  1.0000
  C   C21       1.0  0.6522631626977783  0.5406639994941999  0.7916288373572301  1.0000
  C   C22       1.0  0.34773741809710407  0.459329213429129  0.20836985722775844  1.0000
  C   C23       1.0  0.8331066240327303  0.6456811256130592  0.8707860325470237  1.0000
  C   C24       1.0  0.16689559116890954  0.3543123405715818  0.12920907391169584  1.0000
  C   C25       1.0  0.9455711688110641  0.8132388767932143  0.8777764952748728  1.0000
  C   C26       1.0  0.0544218914037629  0.18675694644851154  0.12222365729067525  1.0000
  C   C27       1.0  0.8719023406794407  0.871780804977128  0.808780224221394  1.0000
  C   C28       1.0  0.12809710273138114  0.12821907045136535  0.19122618441441122  1.0000
  C   C29       1.0  0.5666820392987261  0.0034088801042457977  0.45400966488661954  1.0000
  C   C30       1.0  0.43331818771473973  0.9965912145570288  0.5459901753328112  1.0000
  N   N1        1.0  0.5194296137059807  0.9177284665738341  0.8893150288200148  1.0000
  N   N2        1.0  0.4805642233762413  0.08226880547106673  0.11067493780261374  1.0000
  N   N3        1.0  0.3662948663412634  0.6002517132180074  0.5818040833272066  1.0000
  N   N4        1.0  0.6337078996140589  0.39975094266964123  0.41819746270942204  1.0000
  N   N5        1.0  0.6971135130640461  0.7706662562237981  0.7339776070068498  1.0000
  N   N6        1.0  0.3028957010347568  0.22933697966266922  0.2660305606280104  1.0000
  O   O1        1.0  0.7727695323958842  0.08787022530243863  0.7430795676637986  1.0000
  O   O2        1.0  0.22722911842306798  0.9121273734799618  0.2569206086833376  1.0000
  O   O3        1.0  0.8657014642774357  0.32849804349433503  0.8846339358412152  1.0000
  O   O4        1.0  0.13431136119981352  0.6715045633012837  0.11536785803205882  1.0000
  O   O5        1.0  0.8740625030884104  0.426199072383085  0.17532842331176116  1.0000
  O   O6        1.0  0.12594381377912361  0.5738019100475712  0.8246608177833539  1.0000
  O   O7        1.0  0.6524039476679205  0.4195657478745148  0.05074873037193581  1.0000
  O   O8        1.0  0.34759740551312757  0.5804334304060605  0.9492453439220797  1.0000
  O   O9        1.0  0.6248248303251459  0.9205235648712391  0.4599242350804858  1.0000
  O   O10       1.0  0.375175342957327  0.07947425585351202  0.5400732914855695  1.0000
  O   O11       1.0  0.6089840554981407  0.09663230362613011  0.3775863947625098  1.0000
  O   O12       1.0  0.3910204523259325  0.9033751533958851  0.622416190454594  1.0000
