data_image0
_chemical_formula_structural       NiH32C34S2N6O6
_chemical_formula_sum              "Ni1 H32 C34 S2 N6 O6"
_cell_length_a       6.962146535726505
_cell_length_b       9.459301167035015
_cell_length_c       12.781323974550652
_cell_angle_alpha    73.97963334217872
_cell_angle_beta     86.07698601316325
_cell_angle_gamma    83.4647182984716

_space_group_name_H-M_alt    "P 1"
_space_group_IT_number       1

loop_
  _space_group_symop_operation_xyz
  'x, y, z'

loop_
  _atom_site_type_symbol
  _atom_site_label
  _atom_site_symmetry_multiplicity
  _atom_site_fract_x
  _atom_site_fract_y
  _atom_site_fract_z
  _atom_site_occupancy
  Ni  Ni1       1.0  0.49999901036080274  0.499999567605826  0.999999362139292  1.0000
  H   H1        1.0  0.8738469955647903  0.416058189995681  0.9376072219494844  1.0000
  H   H2        1.0  0.1261502359607007  0.5839394167649486  0.06239239864029866  1.0000
  H   H3        1.0  0.8460212108411441  0.4203796599241087  0.06069442537293676  1.0000
  H   H4        1.0  0.15397456481657912  0.5796179451443777  0.9393060232078485  1.0000
  H   H5        1.0  0.5616453714227065  0.8811333203948236  0.05307336451278393  1.0000
  H   H6        1.0  0.4383505169793623  0.11886317984845356  0.9469288703912397  1.0000
  H   H7        1.0  0.6472790325500384  0.13726407808773894  0.054551432441385835  1.0000
  H   H8        1.0  0.35271834472468566  0.8627324233688538  0.9454484086587629  1.0000
  H   H9        1.0  0.9263934023464345  0.14688199075374084  0.16049214550589141  1.0000
  H   H10       1.0  0.07360395842584212  0.8531145109422622  0.8395084785006901  1.0000
  H   H11       1.0  0.37174645604129364  0.7849149330610813  0.27170765163849353  1.0000
  H   H12       1.0  0.6282553713489778  0.21508157227488306  0.7282857909564485  1.0000
  H   H13       1.0  0.18664340823454484  0.8016288648215663  0.37190124714478406  1.0000
  H   H14       1.0  0.8133676850791433  0.198362127020026  0.6280977249331201  1.0000
  H   H15       1.0  0.156840448106813  0.5754816721043737  0.5431415921108425  1.0000
  H   H16       1.0  0.8431755776800574  0.42451595856939406  0.4568535278472652  1.0000
  H   H17       1.0  0.6510076389083324  0.6106542295250108  0.3193074622937857  1.0000
  H   H18       1.0  0.34900725551414524  0.3893411883697269  0.680687360863196  1.0000
  H   H19       1.0  0.18336704514799612  0.272380725625112  0.06586012027319303  1.0000
  H   H20       1.0  0.8166346502226887  0.7276157816261416  0.9341395855732204  1.0000
  H   H21       1.0  0.1903157422505402  0.05777424553092909  0.262551481338221  1.0000
  H   H22       1.0  0.8096792386511924  0.9422288870153606  0.7374509963164899  1.0000
  H   H23       1.0  0.6279234331232146  0.34159021423068475  0.24986730687916045  1.0000
  H   H24       1.0  0.3720746382681811  0.6584118159170342  0.7501321694910176  1.0000
  H   H25       1.0  0.0295874740057727  0.16431243322710995  0.4415683167209823  1.0000
  H   H26       1.0  0.9704044120088612  0.8357017533008885  0.558441395791867  1.0000
  H   H27       1.0  0.17670249293607304  0.3123248017934017  0.4026585337241855  1.0000
  H   H28       1.0  0.8232957830441379  0.6876849705264547  0.5973495317725154  1.0000
  H   H29       1.0  0.1083196159456321  0.24036353220206053  0.5421910532812079  1.0000
  H   H30       1.0  0.8916860026104134  0.759645144471527  0.4578170073029639  1.0000
  H   H31       1.0  0.2733699699415908  0.015254252018728199  0.6553597878701396  1.0000
  H   H32       1.0  0.7266192534988676  0.9847488728013475  0.3446428701228755  1.0000
  C   C1        1.0  0.7575800485417405  0.624705476673604  0.13107419711671758  1.0000
  C   C2        1.0  0.24241878460075847  0.375291026475132  0.868924815992415  1.0000
  C   C3        1.0  0.8027682773044306  0.7689053705594374  0.14598688779546623  1.0000
  C   C4        1.0  0.1972290999703006  0.23109113089715544  0.8540129533046824  1.0000
  C   C5        1.0  0.6856606592966302  0.8960622815264184  0.09488331438656426  1.0000
  C   C6        1.0  0.31433640997716594  0.10393643077765087  0.9051168685992863  1.0000
  C   C7        1.0  0.7293904522193912  0.0350085894379788  0.0967791626775423  1.0000
  C   C8        1.0  0.27060821867141277  0.9649890192542041  0.9032204128276577  1.0000
  C   C9        1.0  0.8880834723201547  0.04033065906709509  0.1553918128598184  1.0000
  C   C10       1.0  0.11191532781744234  0.9596658445604617  0.84460876606218  1.0000
  C   C11       1.0  0.9624519644546013  0.7864549212191247  0.2033695570535628  1.0000
  C   C12       1.0  0.03754670643620982  0.2135426874730513  0.7966300184516442  1.0000
  C   C13       1.0  0.27664030366017306  0.7229320570025803  0.33588780905270726  1.0000
  C   C14       1.0  0.7233688167985832  0.277063353405353  0.664107977349012  1.0000
  C   C15       1.0  0.390653292225693  0.6075808474711906  0.420468892703255  1.0000
  C   C16       1.0  0.609359031467072  0.39241235571296323  0.5795256787371701  1.0000
  C   C17       1.0  0.3076617578264731  0.5438849179668279  0.5233815390663281  1.0000
  C   C18       1.0  0.6923517632404741  0.4561104970387076  0.47661019754949774  1.0000
  C   C19       1.0  0.5840538425221453  0.5616220441548093  0.39853477379021746  1.0000
  C   C20       1.0  0.4159610849052272  0.43837337326110043  0.6014584835538983  1.0000
  C   C21       1.0  0.27692880304280015  0.2560445052449366  0.13307900769098785  1.0000
  C   C22       1.0  0.723069381092941  0.7439564200775733  0.8669222550024287  1.0000
  C   C23       1.0  0.27474234649024964  0.15131235287664418  0.23139505152432355  1.0000
  C   C24       1.0  0.7252512445535048  0.8486907770198542  0.7686051224956573  1.0000
  C   C25       1.0  0.5084042079756799  0.295668307100243  0.22515227171805213  1.0000
  C   C26       1.0  0.4915908224333947  0.704334824727809  0.7748478572173526  1.0000
  C   C27       1.0  0.46355211690521975  0.09116485458705627  0.3974499768736166  1.0000
  C   C28       1.0  0.5364413283893017  0.9088393806134787  0.6025499766360058  1.0000
  C   C29       1.0  0.3294669560865843  0.1022159437996635  0.4827998389675373  1.0000
  C   C30       1.0  0.670527604069875  0.8977905044193121  0.5172011942496441  1.0000
  C   C31       1.0  0.1518408180978454  0.2106073066968221  0.46630326906560543  1.0000
  C   C32       1.0  0.8481576366365006  0.789401359840177  0.5337034511285951  1.0000
  C   C33       1.0  0.3703798710052553  0.008326374697446697  0.5859712551469016  1.0000
  C   C34       1.0  0.629613395535124  0.9916789662859383  0.41403004366522117  1.0000
  S   S1        1.0  0.11584061437822164  0.6326653901995767  0.27267806323171584  1.0000
  S   S2        1.0  0.8841599991354203  0.36732890355440867  0.7273189970942653  1.0000
  N   N1        1.0  0.42296509983673064  0.34455644122142093  0.1297955451871786  1.0000
  N   N2        1.0  0.5770332795555999  0.6554433780788215  0.8702035892972972  1.0000
  N   N3        1.0  0.42162356618186453  0.17742725172159618  0.2890314512925444  1.0000
  N   N4        1.0  0.5783697003585148  0.8225780892617889  0.7109698475195786  1.0000
  N   N5        1.0  0.9994857155318048  0.9205501108445515  0.20902664957377953  1.0000
  N   N6        1.0  0.0005158670945348983  0.07944750123191108  0.7909712699494025  1.0000
  O   O1        1.0  0.5878347014129089  0.6215515130390583  0.1008582973472728  1.0000
  O   O2        1.0  0.4121635322301743  0.3784494115652136  0.8991406166268447  1.0000
  O   O3        1.0  0.7957938397972484  0.37858638411799456  0.00493364735779525  1.0000
  O   O4        1.0  0.20420335872334777  0.6214112231214555  0.995067539044854  1.0000
  O   O5        1.0  0.8927034117094054  0.5183906631631884  0.14507578224483106  1.0000
  O   O6        1.0  0.10729542143308632  0.4816058399855478  0.8549232308643014  1.0000
