data_image0
_chemical_formula_structural       Cd4H20C20N8Cl4O12
_chemical_formula_sum              "Cd4 H20 C20 N8 Cl4 O12"
_cell_length_a       6.024078076539811
_cell_length_b       9.992493090058622
_cell_length_c       12.975448496128305
_cell_angle_alpha    89.99954037105537
_cell_angle_beta     90.00023637409619
_cell_angle_gamma    92.72188485013493

_space_group_name_H-M_alt    "P 1"
_space_group_IT_number       1

loop_
  _space_group_symop_operation_xyz
  'x, y, z'

loop_
  _atom_site_type_symbol
  _atom_site_label
  _atom_site_symmetry_multiplicity
  _atom_site_fract_x
  _atom_site_fract_y
  _atom_site_fract_z
  _atom_site_occupancy
  Cd  Cd1       1.0  0.6092089966356724  0.6879210142525309  0.49680519247986865  1.0000
  Cd  Cd2       1.0  0.39078674785897505  0.8120757687635276  0.9968073569861176  1.0000
  Cd  Cd3       1.0  0.3907905331258092  0.31207796083366185  0.5031943550529192  1.0000
  Cd  Cd4       1.0  0.6092026796617276  0.18792116989871488  0.0031914198569538  1.0000
  H   H1        1.0  0.0199068093262511  0.15024904622678997  0.3489917334668391  1.0000
  H   H2        1.0  0.9800921075468878  0.3497645790560425  0.8489793845053554  1.0000
  H   H3        1.0  0.9800707856884119  0.8497448486522285  0.6510147502369038  1.0000
  H   H4        1.0  0.019928185798029605  0.6502464838318147  0.1510178509514475  1.0000
  H   H5        1.0  0.9421688179601447  0.9195136594449449  0.2727077304219847  1.0000
  H   H6        1.0  0.0578299097240773  0.5805064707668848  0.7727068239854376  1.0000
  H   H7        1.0  0.0578055260968213  0.08048122643823771  0.7272918170991716  1.0000
  H   H8        1.0  0.9421971650576924  0.419506617627043  0.22729503558927888  1.0000
  H   H9        1.0  0.18299720125529725  0.7340127568789255  0.33413280806328055  1.0000
  H   H10       1.0  0.8169865184641408  0.7659986797184715  0.8341337618756839  1.0000
  H   H11       1.0  0.8169765836718597  0.26597411408605615  0.6658636567368604  1.0000
  H   H12       1.0  0.18303557506673235  0.2340143923559026  0.1658627028904149  1.0000
  H   H13       1.0  0.4603866142544319  0.561610982377509  0.6820398822880236  1.0000
  H   H14       1.0  0.5396196681465568  0.938386065080522  0.1820437532142236  1.0000
  H   H15       1.0  0.5396219693903177  0.43837500114718614  0.3179573532345259  1.0000
  H   H16       1.0  0.46038159192053035  0.0616139173135934  0.8179573356896696  1.0000
  H   H17       1.0  0.44372742161532125  0.7166557107464726  0.7099235902519254  1.0000
  H   H18       1.0  0.5562608208885607  0.7833409909763132  0.20992305028340746  1.0000
  H   H19       1.0  0.5562999687019996  0.28331430831087795  0.2900713332788811  1.0000
  H   H20       1.0  0.4437110410033044  0.2166659064373846  0.7900711023945988  1.0000
  C   C1        1.0  0.406772559462084  0.9863908367440003  0.46325071372441323  1.0000
  C   C2        1.0  0.5932263054245014  0.5136073029908632  0.9632512460549308  1.0000
  C   C3        1.0  0.5931977648662823  0.0135940195893411  0.5367457510785982  1.0000
  C   C4        1.0  0.4068103124527341  0.48639980692856705  0.0367444480571422  1.0000
  C   C5        1.0  0.11835787137250263  0.0654088176125924  0.3692480356690524  1.0000
  C   C6        1.0  0.8816395482826707  0.4346045945745799  0.8692380595042764  1.0000
  C   C7        1.0  0.8816229745812549  0.9345840862859661  0.630760760099669  1.0000
  C   C8        1.0  0.11838441534558093  0.5654114885254131  0.130763029371991  1.0000
  C   C9        1.0  0.0747832441546592  0.9383542743466932  0.3283527005249383  1.0000
  C   C10       1.0  0.925212471188118  0.5616632708669728  0.828348951242596  1.0000
  C   C11       1.0  0.9252026528899933  0.0616396478013641  0.6716491590690835  1.0000
  C   C12       1.0  0.07480810175894699  0.43835179943258124  0.17165907380995551  1.0000
  C   C13       1.0  0.20821032324101912  0.8366299750155193  0.36135778041489885  1.0000
  C   C14       1.0  0.791780047771539  0.6633781987090899  0.8613593158723916  1.0000
  C   C15       1.0  0.7917735639300219  0.16335893236946933  0.6386402257612361  1.0000
  C   C16       1.0  0.20823194352786356  0.336632836929482  0.1386386902627947  1.0000
  C   C17       1.0  0.08022527128651552  0.5638169527115764  0.5020572925039133  1.0000
  C   C18       1.0  0.9197653862684945  0.9361929111615127  0.0020542000589145  1.0000
  C   C19       1.0  0.919775393673909  0.4362220915679059  0.497947649710845  1.0000
  C   C20       1.0  0.0802195323424613  0.06378698482438948  0.9979530543811065  1.0000
  N   N1        1.0  0.37381353179725363  0.8607836951903352  0.4287844363211947  1.0000
  N   N2        1.0  0.6261820141884017  0.6392187943851511  0.9287888848457512  1.0000
  N   N3        1.0  0.6261639932780696  0.13920919788512975  0.5712097164052494  1.0000
  N   N4        1.0  0.3738429109373129  0.36078727551615225  0.0712083506308261  1.0000
  N   N5        1.0  0.2844925898875347  0.089424051637593  0.4369089811368028  1.0000
  N   N6        1.0  0.7155131177847592  0.41058067928889835  0.9369034575529227  1.0000
  N   N7        1.0  0.7154910876269015  0.910561850131344  0.5630921077934374  1.0000
  N   N8        1.0  0.28451575717366506  0.5894344183033979  0.0630953192722785  1.0000
  Cl  Cl1       1.0  0.6943246464450753  0.6367131844713043  0.3003698322182586  1.0000
  Cl  Cl2       1.0  0.30566397524592764  0.8632775807956322  0.8003722895765364  1.0000
  Cl  Cl3       1.0  0.30565772007075515  0.3632777212297142  0.6996220084601248  1.0000
  Cl  Cl4       1.0  0.6943387355277153  0.136719401490744  0.1996203217889914  1.0000
  O   O1        1.0  0.0008324335757591971  0.6747510668396756  0.5232769514752674  1.0000
  O   O2        1.0  0.9991827419694418  0.8252506463022088  0.0232785460712748  1.0000
  O   O3        1.0  0.9991795047981427  0.32528300625742895  0.4767264493930341  1.0000
  O   O4        1.0  0.0008152502440594994  0.1747262876838818  0.9767271670178559  1.0000
  O   O5        1.0  0.2835419671485511  0.5445847602096591  0.4824489759911472  1.0000
  O   O6        1.0  0.7164641134134088  0.955419215682326  0.9824593633450219  1.0000
  O   O7        1.0  0.7164558492125154  0.4554372469689552  0.5175397818615082  1.0000
  O   O8        1.0  0.28353810814493846  0.04457075352100049  0.0175363307866476  1.0000
  O   O9        1.0  0.5325905467823304  0.651694864792944  0.6718041907174666  1.0000
  O   O10       1.0  0.4674093609630675  0.8483072751318373  0.1718061640065329  1.0000
  O   O11       1.0  0.467425430410465  0.34827812162639304  0.32820922926374857  1.0000
  O   O12       1.0  0.5325844357470119  0.1517047023981917  0.8281987782847153  1.0000
