data_image0
_chemical_formula_structural       Cu2H30C36S2N12O8
_chemical_formula_sum              "Cu2 H30 C36 S2 N12 O8"
_cell_length_a       9.374445314374892
_cell_length_b       10.322583487083621
_cell_length_c       10.960586567952767
_cell_angle_alpha    79.07172221919234
_cell_angle_beta     82.45563040111017
_cell_angle_gamma    71.43810556036

_space_group_name_H-M_alt    "P 1"
_space_group_IT_number       1

loop_
  _space_group_symop_operation_xyz
  'x, y, z'

loop_
  _atom_site_type_symbol
  _atom_site_label
  _atom_site_symmetry_multiplicity
  _atom_site_fract_x
  _atom_site_fract_y
  _atom_site_fract_z
  _atom_site_occupancy
  Cu  Cu1       1.0  0.56960064182185  0.8272372369777586  0.5129652734245838  1.0000
  Cu  Cu2       1.0  0.43039865089135526  0.17275974812491768  0.4870342176393692  1.0000
  H   H1        1.0  0.41198703160268474  0.8595958106869047  0.780229050078738  1.0000
  H   H2        1.0  0.5880190678600314  0.14041010640702473  0.2197622042410217  1.0000
  H   H3        1.0  0.2780845999898673  0.7330567387663508  0.4801907586163807  1.0000
  H   H4        1.0  0.7219137066825921  0.26694347206609587  0.5198108921802529  1.0000
  H   H5        1.0  0.06213521514333555  0.7282224075822228  0.6808783188495227  1.0000
  H   H6        1.0  0.9378709833412342  0.27177663116833634  0.3191217188170797  1.0000
  H   H7        1.0  0.3496634157790765  0.7594533869672304  0.9819804334116354  1.0000
  H   H8        1.0  0.6503442516715552  0.2405583200142871  0.018023987167346378  1.0000
  H   H9        1.0  0.9191667328157038  0.8619146275344106  0.825162985766589  1.0000
  H   H10       1.0  0.0808342685831747  0.1380906559014576  0.17483632716653827  1.0000
  H   H11       1.0  0.6858037957293063  0.7547932856921307  0.7959500847991876  1.0000
  H   H12       1.0  0.31420003670909574  0.24519960521174503  0.20405157082003467  1.0000
  H   H13       1.0  0.8058163989995392  0.5272675219489074  0.49554894055609106  1.0000
  H   H14       1.0  0.19418689771507758  0.47273031754299666  0.5044471420031087  1.0000
  H   H15       1.0  0.0003956112395470614  0.3913110668353924  0.6802029821976845  1.0000
  H   H16       1.0  0.99960566125079  0.6086866232781106  0.3197963124097356  1.0000
  H   H17       1.0  0.15919127785632967  0.4609883041974429  0.8023475702751455  1.0000
  H   H18       1.0  0.8408129986222118  0.5389963848433014  0.19765672177296523  1.0000
  H   H19       1.0  0.7204437825864003  0.5915137939039711  0.9992087169307595  1.0000
  H   H20       1.0  0.27955985831568597  0.4084727145879512  0.0007897789297288973  1.0000
  H   H21       1.0  0.7085264225272283  0.8062912377115766  0.2270470218629654  1.0000
  H   H22       1.0  0.2914826233349003  0.19369516023047595  0.7729499314826782  1.0000
  H   H23       1.0  0.863588224627932  0.896898018487619  0.5357897540301549  1.0000
  H   H24       1.0  0.1363996933191487  0.1031145989566298  0.4642086382971584  1.0000
  H   H25       1.0  0.07738849398945277  0.9076801295262982  0.3336379894301515  1.0000
  H   H26       1.0  0.922606813783389  0.09231571153122792  0.6663585786303018  1.0000
  H   H27       1.0  0.21960200565158064  0.7865740665399841  0.18843606864970042  1.0000
  H   H28       1.0  0.7803940457194044  0.21342296006496042  0.8115638052224484  1.0000
  H   H29       1.0  0.7888138911649917  0.887955257893232  0.030624976356328673  1.0000
  H   H30       1.0  0.211190364360327  0.11203976966306332  0.9693779914819558  1.0000
  C   C1        1.0  0.3503556489702289  0.8184310456443884  0.7271623584213671  1.0000
  C   C2        1.0  0.6496535783670153  0.1815719077075002  0.27283281246847224  1.0000
  C   C3        1.0  0.2745159932521373  0.7548618072819835  0.5736867229176141  1.0000
  C   C4        1.0  0.7254852342513161  0.24513931315319584  0.42631255147818337  1.0000
  C   C5        1.0  0.16808816752240557  0.7513880706560985  0.6719717627454855  1.0000
  C   C6        1.0  0.8319159726430244  0.24861408352006725  0.32802784875300967  1.0000
  C   C7        1.0  0.14363559952274574  0.8039996543673881  0.8901622910316576  1.0000
  C   C8        1.0  0.8563803338805228  0.19599909435868318  0.10983298020563842  1.0000
  C   C9        1.0  0.2270344084855225  0.7854116070240665  0.9925180221376663  1.0000
  C   C10       1.0  0.7729771895130852  0.21458740393545384  0.00748228201644707  1.0000
  C   C11       1.0  0.9865534556223777  0.838437822261284  0.9049765684616062  1.0000
  C   C12       1.0  0.013457290756406271  0.1615569981522214  0.09502292025674558  1.0000
  C   C13       1.0  0.7405899383658576  0.6725714671732917  0.7402632858820725  1.0000
  C   C14       1.0  0.259413999371226  0.3274244701085962  0.259736783862401  1.0000
  C   C15       1.0  0.8095751193908568  0.5541418535612693  0.5856784432886855  1.0000
  C   C16       1.0  0.19042222491708563  0.445851203105974  0.4143257869492913  1.0000
  C   C17       1.0  0.9074044885413028  0.4859697241712269  0.6756796565588133  1.0000
  C   C18       1.0  0.0925939471060672  0.5140231531442653  0.3243208280717198  1.0000
  C   C19       1.0  0.9319338417633959  0.529347534447254  0.8882570328631374  1.0000
  C   C20       1.0  0.0680643650563937  0.4706495472483425  0.11174439480589632  1.0000
  C   C21       1.0  0.08910381818432703  0.47660091068357985  0.8890549311378138  1.0000
  C   C22       1.0  0.9109102794505546  0.5233868243666109  0.11094934011447317  1.0000
  C   C23       1.0  0.8429384608643317  0.5523096975243362  0.9993891123763562  1.0000
  C   C24       1.0  0.1570706930194844  0.44767970541632013  0.0006053505933608063  1.0000
  C   C25       1.0  0.7820163585592254  0.82771278335391  0.28415212994340777  1.0000
  C   C26       1.0  0.2179805708308251  0.17227801252266767  0.7158480745719872  1.0000
  C   C27       1.0  0.8684361607447925  0.8731430926234723  0.44252232905519423  1.0000
  C   C28       1.0  0.1315545781806122  0.126867305286666  0.5574734637436904  1.0000
  C   C29       1.0  0.9739523276942207  0.8784708818211726  0.34404259153507166  1.0000
  C   C30       1.0  0.0260388770553561  0.1215309831905032  0.6559486016832851  1.0000
  C   C31       1.0  0.9950282921809256  0.8357566425219503  0.12420631529528951  1.0000
  C   C32       1.0  0.004974554216730099  0.16423947411169587  0.8757975000566205  1.0000
  C   C33       1.0  0.1528375412152058  0.800821918152174  0.10990756275788276  1.0000
  C   C34       1.0  0.8471651925455674  0.19918128372192714  0.8900919917530672  1.0000
  C   C35       1.0  0.9119925241541508  0.855333893276793  0.021801494942003792  1.0000
  C   C36       1.0  0.0880117340941666  0.1446610929000798  0.9782005683951026  1.0000
  S   S1        1.0  0.3865263489125467  0.9623030848155308  0.2781376093189607  1.0000
  S   S2        1.0  0.6134572771302517  0.037723800446976  0.7218764733582362  1.0000
  N   N1        1.0  0.38648526289300367  0.7967544191579918  0.6097497713952863  1.0000
  N   N2        1.0  0.6135176996953505  0.20324457833599752  0.3902488400771702  1.0000
  N   N3        1.0  0.21784580909572743  0.7908727841234795  0.7691542888699416  1.0000
  N   N4        1.0  0.7821648246461734  0.20912912153048072  0.23084093900745017  1.0000
  N   N5        1.0  0.7075546879390725  0.6701284776276282  0.6265436157006334  1.0000
  N   N6        1.0  0.29244990443550717  0.3298653505471593  0.37345591872322365  1.0000
  N   N7        1.0  0.8625194752018358  0.5612516891110461  0.7739130881548633  1.0000
  N   N8        1.0  0.13748013802261025  0.43874434488662223  0.22608839650171567  1.0000
  N   N9        1.0  0.7511742232444973  0.8406552677874332  0.4038287173276842  1.0000
  N   N10       1.0  0.24881945746512463  0.15934570120988667  0.5961660232801904  1.0000
  N   N11       1.0  0.9183892689116321  0.8498278509798355  0.24402765525596237  1.0000
  N   N12       1.0  0.081610901820639  0.15016290339446667  0.7559721664512296  1.0000
  O   O1        1.0  0.4414051903558658  0.04853741683074021  0.1698162675294697  1.0000
  O   O2        1.0  0.5585473206476406  0.9514858307579604  0.8302041905932143  1.0000
  O   O3        1.0  0.2196447950433296  0.013676782678835797  0.2982795885708214  1.0000
  O   O4        1.0  0.7803586224094728  0.9863285150898309  0.7017431707777037  1.0000
  O   O5        1.0  0.44813978323102766  0.98386655751721  0.395074623646373  1.0000
  O   O6        1.0  0.5518537203881095  0.016137829651306397  0.6049038744776497  1.0000
  O   O7        1.0  0.44168087803268463  0.8133351653463308  0.2702303719225014  1.0000
  O   O8        1.0  0.5582853926135911  0.18670837191164938  0.7297584593194131  1.0000
