data_image0
_chemical_formula_structural       Pr8Cu20H128C168I16N28O64
_chemical_formula_sum              "Pr8 Cu20 H128 C168 I16 N28 O64"
_cell_length_a       9.265530495057062
_cell_length_b       20.929126879128166
_cell_length_c       30.417857434050386
_cell_angle_alpha    90.00014862338635
_cell_angle_beta     89.99985249217956
_cell_angle_gamma    89.99962692905052

_space_group_name_H-M_alt    "P 1"
_space_group_IT_number       1

loop_
  _space_group_symop_operation_xyz
  'x, y, z'

loop_
  _atom_site_type_symbol
  _atom_site_label
  _atom_site_symmetry_multiplicity
  _atom_site_fract_x
  _atom_site_fract_y
  _atom_site_fract_z
  _atom_site_occupancy
  Pr  Pr1       1.0  0.9997393645078462  0.08801366433741724  0.9933868742053986  1.0000
  Pr  Pr2       1.0  0.5002766795308277  0.9119847445623465  0.4933838176945926  1.0000
  Pr  Pr3       1.0  0.0002730950541405001  0.5880144988253448  0.5066127991560591  1.0000
  Pr  Pr4       1.0  0.49972224506696955  0.4119849443362469  0.006613059845157898  1.0000
  Pr  Pr5       1.0  0.47287030841841476  0.1059540207781779  0.9955805475452307  1.0000
  Pr  Pr6       1.0  0.0271263438386669  0.8940463170391768  0.49558368415538456  1.0000
  Pr  Pr7       1.0  0.5271084302314222  0.6059528489006143  0.5044168564489766  1.0000
  Pr  Pr8       1.0  0.9728847162881711  0.3940446653757732  0.0044161202686794  1.0000
  Cu  Cu1       1.0  0.5282424438201334  0.3685888663796675  0.7349223607323621  1.0000
  Cu  Cu2       1.0  0.9717574114779812  0.6314152537520814  0.23491843123080255  1.0000
  Cu  Cu3       1.0  0.4717669725812359  0.8685826291362847  0.7650781402875493  1.0000
  Cu  Cu4       1.0  0.028245635494975805  0.13141683643359411  0.2650805774434346  1.0000
  Cu  Cu5       1.0  0.2948024672196753  0.2938450587095218  0.7429252516682823  1.0000
  Cu  Cu6       1.0  0.2052006125077881  0.7061519340239996  0.24292331033012715  1.0000
  Cu  Cu7       1.0  0.7052069681022743  0.7938424178040363  0.7570731439224045  1.0000
  Cu  Cu8       1.0  0.7947959400341065  0.20615175228932972  0.25707484497658567  1.0000
  Cu  Cu9       1.0  0.2685542026299431  0.25167644284461943  0.6645288416369581  1.0000
  Cu  Cu10      1.0  0.23144197704569092  0.7483178642348991  0.16452892698168847  1.0000
  Cu  Cu11      1.0  0.7314547729299008  0.7516811899063356  0.835474410291475  1.0000
  Cu  Cu12      1.0  0.7685496388591988  0.24831853268185716  0.33547226209403647  1.0000
  Cu  Cu13      1.0  0.22776569810501712  0.17527686868895392  0.7248183748502655  1.0000
  Cu  Cu14      1.0  0.27225048408488567  0.8247181443066367  0.2248215224648575  1.0000
  Cu  Cu15      1.0  0.7722325280703757  0.6752774475047332  0.7751827687020805  1.0000
  Cu  Cu16      1.0  0.7277594360959797  0.3247206135498216  0.27518144622884927  1.0000
  Cu  Cu17      1.0  0.02299118611087181  0.0903371789715166  0.7317245211612258  1.0000
  Cu  Cu18      1.0  0.4770152249378017  0.9096626382012617  0.23172765734955894  1.0000
  Cu  Cu19      1.0  0.9770126051405867  0.5903419187827198  0.7682728550589673  1.0000
  Cu  Cu20      1.0  0.5229934471780453  0.40966280535216987  0.2682744761252565  1.0000
  H   H1        1.0  0.9896157356708315  0.15821564812702596  0.8903563439947886  1.0000
  H   H2        1.0  0.5104022482204513  0.8417785484901756  0.3903600584557551  1.0000
  H   H3        1.0  0.010390296066034902  0.6582192322889284  0.6096398379056609  1.0000
  H   H4        1.0  0.4896085005754856  0.34178155632622526  0.10963866676904387  1.0000
  H   H5        1.0  0.10335172162887571  0.14556551716533053  0.8156666768316185  1.0000
  H   H6        1.0  0.3966572261594123  0.8544236281740114  0.3156707648263576  1.0000
  H   H7        1.0  0.8966534166744113  0.6455735158397504  0.6843294825790804  1.0000
  H   H8        1.0  0.6033511782897635  0.35442850163440204  0.18432831164033558  1.0000
  H   H9        1.0  0.7229813225564216  0.07273635561031001  0.7638372720129849  1.0000
  H   H10       1.0  0.7770236876470593  0.9272559288572072  0.2638356668538435  1.0000
  H   H11       1.0  0.277020568747446  0.5727410825604125  0.7361643467160518  1.0000
  H   H12       1.0  0.22298580524015688  0.42725779579925677  0.23616353911766907  1.0000
  H   H13       1.0  0.5958732738011818  0.08339598228616302  0.8355840025914603  1.0000
  H   H14       1.0  0.9041278992756079  0.9166023073125233  0.3355819488808435  1.0000
  H   H15       1.0  0.4041327779487035  0.5834015043739669  0.6644182925997199  1.0000
  H   H16       1.0  0.0958720367533559  0.4165990137155903  0.16441921067147544  1.0000
  H   H17       1.0  0.9284476587492139  0.9488651016920928  0.9126666635796423  1.0000
  H   H18       1.0  0.57155718745895  0.05114351345618221  0.41266990988371777  1.0000
  H   H19       1.0  0.0715325172135977  0.44885298615122343  0.5873320076656015  1.0000
  H   H20       1.0  0.42842869138264217  0.5511424622714856  0.08733059982976948  1.0000
  H   H21       1.0  0.9253305444568057  0.8590633561596236  0.8565949170838535  1.0000
  H   H22       1.0  0.5746736908627456  0.14094074658729738  0.35659864934765995  1.0000
  H   H23       1.0  0.07466066438752252  0.3590504881772746  0.6434032657196767  1.0000
  H   H24       1.0  0.42530655150407887  0.6409418277882042  0.14340103378159336  1.0000
  H   H25       1.0  0.5211952872915903  0.7996496895897637  0.8977774123544363  1.0000
  H   H26       1.0  0.9788053662635152  0.20035313558032897  0.39777698456767036  1.0000
  H   H27       1.0  0.4788173005141872  0.299648400283708  0.6022272398886057  1.0000
  H   H28       1.0  0.021179399509641404  0.7003542714885428  0.10222148918791159  1.0000
  H   H29       1.0  0.5040178316335898  0.889377403066952  0.9528619178135143  1.0000
  H   H30       1.0  0.9959877581548326  0.11062706394375252  0.4528606593381141  1.0000
  H   H31       1.0  0.49597832802533776  0.38937776699159343  0.5471435514967949  1.0000
  H   H32       1.0  0.0039918503471128  0.610627085399685  0.04713929864193739  1.0000
  H   H33       1.0  0.8558398842680364  0.9539991273149655  0.11669709085311546  1.0000
  H   H34       1.0  0.6441501658784574  0.045994033817017096  0.6167026560501512  1.0000
  H   H35       1.0  0.1441465510257629  0.4540027340955036  0.38330084766592876  1.0000
  H   H36       1.0  0.3558478012535389  0.5459995678695223  0.8833022026714017  1.0000
  H   H37       1.0  0.7350763467682883  0.893578835834575  0.1774821026593827  1.0000
  H   H38       1.0  0.7649045615292283  0.10641073289998101  0.6774889944955118  1.0000
  H   H39       1.0  0.26490665918753825  0.39358520875849473  0.32251441340915216  1.0000
  H   H40       1.0  0.23509035940141135  0.6064125629551427  0.8225136703751017  1.0000
  H   H41       1.0  0.3866602023316191  0.018157726063584803  0.17748902390456314  1.0000
  H   H42       1.0  0.11333802756150392  0.9818466639151997  0.6774877300324462  1.0000
  H   H43       1.0  0.6133347953314826  0.5181565534556611  0.3225091258712211  1.0000
  H   H44       1.0  0.8866654076402798  0.48184598690295405  0.8225106711061797  1.0000
  H   H45       1.0  0.49242727812482917  0.08194941453066922  0.11525092724648536  1.0000
  H   H46       1.0  0.007569313093348699  0.9180533065337286  0.6152505901213203  1.0000
  H   H47       1.0  0.5075581481172338  0.5819459158228923  0.3847466784547321  1.0000
  H   H48       1.0  0.992427504532195  0.41805255983911144  0.884749341355949  1.0000
  H   H49       1.0  0.43533229733957773  0.16594966887427628  0.8793548096813024  1.0000
  H   H50       1.0  0.06466532573662681  0.8340511847364313  0.3793515634952555  1.0000
  H   H51       1.0  0.5646595902605825  0.6659526508848189  0.6206433585021143  1.0000
  H   H52       1.0  0.9353304268632459  0.33404960343454354  0.12064747674513397  1.0000
  H   H53       1.0  0.45687454221961593  0.20548004519108082  0.8013710399158709  1.0000
  H   H54       1.0  0.0431356042387137  0.7945133462673936  0.30136905553561627  1.0000
  H   H55       1.0  0.5431232401589839  0.70548577345955  0.6986265410507144  1.0000
  H   H56       1.0  0.9568672048754865  0.29451534253839645  0.19863024315456806  1.0000
  H   H57       1.0  0.10607770620215011  0.3260551267451532  0.8162109245092352  1.0000
  H   H58       1.0  0.393938791890463  0.67394166548047  0.31620943366208104  1.0000
  H   H59       1.0  0.8939280180532736  0.826052619561935  0.6837868708493886  1.0000
  H   H60       1.0  0.6060701058685751  0.17394270663041317  0.1837880068571067  1.0000
  H   H61       1.0  0.06103653060463191  0.2877398362570531  0.8935861805547913  1.0000
  H   H62       1.0  0.4389674492028632  0.712261549003138  0.3935850508655249  1.0000
  H   H63       1.0  0.9389578846513233  0.7877378619395543  0.6064118754320942  1.0000
  H   H64       1.0  0.5610311720933154  0.21226290511649637  0.10641410156840439  1.0000
  H   H65       1.0  0.8380975290829158  0.273339097225417  0.8574679309827287  1.0000
  H   H66       1.0  0.6619293635551246  0.7266721758313396  0.35746836174157437  1.0000
  H   H67       1.0  0.16192731729999116  0.7733366349638119  0.6425297706304888  1.0000
  H   H68       1.0  0.3380690460327643  0.2266704895522126  0.14252983005145833  1.0000
  H   H69       1.0  0.7389572102468875  0.2819820752758702  0.7814688710571929  1.0000
  H   H70       1.0  0.7610541281442027  0.7180308214322509  0.2814682215327693  1.0000
  H   H71       1.0  0.26106103356332266  0.7819748365018383  0.7185295034315613  1.0000
  H   H72       1.0  0.23894117059735726  0.21803018657444545  0.21852962614241275  1.0000
  H   H73       1.0  0.4776357731831454  0.434738532191439  0.8162562418247532  1.0000
  H   H74       1.0  0.022338633051617804  0.5652596936650696  0.3162492637160667  1.0000
  H   H75       1.0  0.5223661956408635  0.9347356635889453  0.6837453630889525  1.0000
  H   H76       1.0  0.9776535139955982  0.06526014022227142  0.1837486410631541  1.0000
  H   H77       1.0  0.5607683335895928  0.43054918263154457  0.8940831857072808  1.0000
  H   H78       1.0  0.9392323508668883  0.5694488505250278  0.3940804868478054  1.0000
  H   H79       1.0  0.43924341019145174  0.9305500818198811  0.6059161104767695  1.0000
  H   H80       1.0  0.060761893145858906  0.06945164830786871  0.10591841164445269  1.0000
  H   H81       1.0  0.936943972859254  0.46960140437727205  0.6481824512649366  1.0000
  H   H82       1.0  0.5630522898831387  0.5303999985246151  0.14818096769522526  1.0000
  H   H83       1.0  0.0630661178600391  0.9696019305176692  0.8518175718692758  1.0000
  H   H84       1.0  0.4369543998337805  0.030403119090841802  0.3518168750942791  1.0000
  H   H85       1.0  0.8249171935900605  0.4007063021392625  0.7057903709690121  1.0000
  H   H86       1.0  0.6750742709104004  0.5992919741410817  0.20579089354708907  1.0000
  H   H87       1.0  0.17509390940114866  0.9007077204370193  0.7942082146416494  1.0000
  H   H88       1.0  0.3249314065576386  0.09929806677545376  0.29420707174682537  1.0000
  H   H89       1.0  0.41216354553627355  0.4467880525850065  0.6638280540689363  1.0000
  H   H90       1.0  0.0878369570631676  0.5532052962362286  0.16383119395467818  1.0000
  H   H91       1.0  0.5878479596865774  0.9467836606187063  0.8361712709859075  1.0000
  H   H92       1.0  0.9121737146022613  0.0532131977656363  0.3361703056858899  1.0000
  H   H93       1.0  0.5094108353917902  0.5150056444243633  0.6024983127268866  1.0000
  H   H94       1.0  0.9905922845986058  0.4849874629525531  0.10249969674191557  1.0000
  H   H95       1.0  0.4906037761683281  0.015003049424734604  0.8975012308102847  1.0000
  H   H96       1.0  0.0094174392668265  0.9849945282025917  0.3975009269073907  1.0000
  H   H97       1.0  0.47895398275191076  0.07914223737471102  0.5654325390308442  1.0000
  H   H98       1.0  0.021053817284062908  0.9208564727446883  0.06543671440057608  1.0000
  H   H99       1.0  0.521042418069591  0.579149877761033  0.9345677760766619  1.0000
  H   H100      1.0  0.9789460561936637  0.4208592980754562  0.43456445272182975  1.0000
  H   H101      1.0  0.48129401915234404  0.16991678963880472  0.6207984513185207  1.0000
  H   H102      1.0  0.018712239180352704  0.8300797409712786  0.12080180962281158  1.0000
  H   H103      1.0  0.518703206431141  0.6699270940938931  0.8792043264830267  1.0000
  H   H104      1.0  0.9812878888109682  0.33008187224023544  0.3791995248370269  1.0000
  H   H105      1.0  0.03540369924921551  0.17126389481099125  0.6276413204272728  1.0000
  H   H106      1.0  0.4646057397019734  0.8287364841139395  0.12764563757906439  1.0000
  H   H107      1.0  0.9645978237175259  0.6712609416517809  0.8723608022476552  1.0000
  H   H108      1.0  0.5353911702256299  0.32873748712305695  0.3723560232467661  1.0000
  H   H109      1.0  0.016444005787725802  0.0778346988218104  0.5753768799957938  1.0000
  H   H110      1.0  0.48357558311323606  0.9221678713359935  0.0753820057437196  1.0000
  H   H111      1.0  0.983551335059552  0.577830455320907  0.924624419039311  1.0000
  H   H112      1.0  0.5164188747563543  0.4221696046564106  0.4246198212202542  1.0000
  H   H113      1.0  0.9022239097021941  0.22600628709027157  0.03791901607405629  1.0000
  H   H114      1.0  0.5977808289514428  0.7739918317394155  0.5379153924275002  1.0000
  H   H115      1.0  0.0977734303520634  0.7260095193176924  0.4620821333279891  1.0000
  H   H116      1.0  0.4022245809818018  0.27399164733984804  0.9620823103561305  1.0000
  H   H117      1.0  0.8015684664912257  0.16452131936466693  0.04473572077653638  1.0000
  H   H118      1.0  0.698432977426613  0.8354744362529377  0.5447340991235945  1.0000
  H   H119      1.0  0.19842653918117753  0.6645204129311395  0.4552656480465344  1.0000
  H   H120      1.0  0.3015693705731621  0.33547738331564153  0.9552663430243341  1.0000
  H   H121      1.0  0.7097033591632923  0.20543414819269404  0.9794183254495221  1.0000
  H   H122      1.0  0.7903063259056394  0.7945665968802443  0.4794184463279264  1.0000
  H   H123      1.0  0.2902847104934311  0.7054361098694669  0.5205799129444557  1.0000
  H   H124      1.0  0.20970079951941767  0.2945662529773828  0.020580852453150597  1.0000
  H   H125      1.0  0.6056892915726239  0.2510612151734436  0.007984108722112597  1.0000
  H   H126      1.0  0.8943275690323421  0.7489401349953583  0.5079854653146822  1.0000
  H   H127      1.0  0.3943066011192117  0.7510598825860982  0.4920160989655073  1.0000
  H   H128      1.0  0.10568360532978723  0.248938052730452  0.9920154804614254  1.0000
  C   C1        1.0  0.7213042124589466  0.1239399257399043  0.914482708330439  1.0000
  C   C2        1.0  0.7787319174690452  0.8760605735713796  0.4144793670158932  1.0000
  C   C3        1.0  0.27871635339883494  0.6239383441452163  0.5855196589425375  1.0000
  C   C4        1.0  0.22127508982810445  0.37606091980538997  0.08552106293841887  1.0000
  C   C5        1.0  0.7851798829189108  0.12081969380952272  0.8689962417647548  1.0000
  C   C6        1.0  0.7148318037769885  0.8791772887966832  0.36899394294778176  1.0000
  C   C7        1.0  0.21483101531062943  0.620825635710311  0.6310054624619426  1.0000
  C   C8        1.0  0.2851708406362122  0.37918048958239586  0.131004848781572  1.0000
  C   C9        1.0  0.9284656852631631  0.13950587345123472  0.862714694022763  1.0000
  C   C10       1.0  0.5715460539195548  0.8604867851640421  0.3627154344482548  1.0000
  C   C11       1.0  0.07153846280902341  0.6395112969795491  0.6372850709077652  1.0000
  C   C12       1.0  0.4284719748669304  0.36049102963844604  0.13728431030386898  1.0000
  C   C13       1.0  0.9910419250008715  0.13264110944428614  0.8216180801843151  1.0000
  C   C14       1.0  0.5089701574497029  0.8673504380577415  0.32162052623559123  1.0000
  C   C15       1.0  0.008952610542209501  0.6326430466377388  0.678381015031732  1.0000
  C   C16       1.0  0.4910466912155373  0.3673560908781753  0.1783779157059513  1.0000
  C   C17       1.0  0.7789303674440404  0.0919965687147908  0.7924553246692196  1.0000
  C   C18       1.0  0.7210744037175376  0.9079972574499992  0.2924520858832621  1.0000
  C   C19       1.0  0.22107987500097445  0.5920042156237174  0.7075463283069536  1.0000
  C   C20       1.0  0.27893429287014027  0.4079993324651526  0.20754609958087394  1.0000
  C   C21       1.0  0.7083751026470112  0.09789713606205913  0.8326639755782779  1.0000
  C   C22       1.0  0.7916314911799918  0.9021001868697526  0.33266001281437235  1.0000
  C   C23       1.0  0.2916350531274717  0.5979025160142016  0.6673353866083288  1.0000
  C   C24       1.0  0.20837081646593705  0.40209896872045187  0.16733750465489544  1.0000
  C   C25       1.0  0.7112712820035298  0.981893651041503  0.9667629626849175  1.0000
  C   C26       1.0  0.7887557770587891  0.018110390736261202  0.4667613753752277  1.0000
  C   C27       1.0  0.2887310732563506  0.48188834895015736  0.5332393835846074  1.0000
  C   C28       1.0  0.2112500140035465  0.5181073725576514  0.0332367743104669  1.0000
  C   C29       1.0  0.7164447620136587  0.9249729131407067  0.9367272639584314  1.0000
  C   C30       1.0  0.7835512490911258  0.07503483745396271  0.4367274257548601  1.0000
  C   C31       1.0  0.28354116127862034  0.4249672618535315  0.5632749811027793  1.0000
  C   C32       1.0  0.21641593115020907  0.5750333513736052  0.06327214018563858  1.0000
  C   C33       1.0  0.8372550750625508  0.9161562667124559  0.9098633831598446  1.0000
  C   C34       1.0  0.6627508738566733  0.08385090441004191  0.40986267021929723  1.0000
  C   C35       1.0  0.16273205707515362  0.4161467654509678  0.5901375312029912  1.0000
  C   C36       1.0  0.3372269695382641  0.5838501270003106  0.09013625388553238  1.0000
  C   C37       1.0  0.8359733928025224  0.8669123982624288  0.8793187822358275  1.0000
  C   C38       1.0  0.6640284941650237  0.133093701684615  0.3793211146310824  1.0000
  C   C39       1.0  0.16401554215118352  0.36690300887649846  0.6206797432828495  1.0000
  C   C40       1.0  0.3359497049884297  0.6330901767163083  0.12067986955855049  1.0000
  C   C41       1.0  0.6092730840131895  0.8336151543306658  0.9023398591351891  1.0000
  C   C42       1.0  0.8907286106986094  0.1663881659052961  0.4023394408345097  1.0000
  C   C43       1.0  0.3907292913256343  0.33361266851939325  0.5976651822613233  1.0000
  C   C44       1.0  0.10925017851219113  0.666386641399072  0.09766226006825457  1.0000
  C   C45       1.0  0.6003729431130722  0.8827744662748958  0.9328519173521881  1.0000
  C   C46       1.0  0.8996360516175629  0.1172304028154443  0.4328504183122988  1.0000
  C   C47       1.0  0.39962870993861094  0.3827713615202698  0.5671522251947252  1.0000
  C   C48       1.0  0.1003466976695648  0.6172306997601  0.0671488939000824  1.0000
  C   C49       1.0  0.74907132898948  0.05785383566393422  0.07288259964942509  1.0000
  C   C50       1.0  0.7509406725250686  0.9421410708394687  0.5728804685034844  1.0000
  C   C51       1.0  0.2509252439094142  0.5578574492675517  0.427118908258798  1.0000
  C   C52       1.0  0.24906442528063627  0.4421478853269748  0.9271185195465108  1.0000
  C   C53       1.0  0.6821081848658964  0.022389074994031  0.11081853420493808  1.0000
  C   C54       1.0  0.8178819143817508  0.977607408503694  0.6108183855272387  1.0000
  C   C55       1.0  0.3178770371646849  0.5223928296372904  0.38918060936590837  1.0000
  C   C56       1.0  0.1821097111173628  0.4776099723901981  0.8891816518521123  1.0000
  C   C57       1.0  0.7511020593799601  0.9691308457174516  0.1291138652401003  1.0000
  C   C58       1.0  0.7488922041359418  0.030864273596179707  0.6291143891160897  1.0000
  C   C59       1.0  0.2488873914050204  0.4691321920716475  0.3708847576909449  1.0000
  C   C60       1.0  0.25111138163183705  0.5308710185192567  0.8708907714553362  1.0000
  C   C61       1.0  0.6848695809582994  0.935853458671453  0.16306398488656976  1.0000
  C   C62       1.0  0.815122240430725  0.06414417812649022  0.66306352912585  1.0000
  C   C63       1.0  0.3151203587642685  0.43585352984109693  0.3369381951672139  1.0000
  C   C64       1.0  0.18488085641076427  0.564145252054665  0.8369387318296473  1.0000
  C   C65       1.0  0.4906241805532264  0.0056672999577501  0.16300734670951297  1.0000
  C   C66       1.0  0.0093676947399643  0.9943293903845503  0.6630068150382583  1.0000
  C   C67       1.0  0.5093677627885854  0.5056707823738266  0.3369911096158304  1.0000
  C   C68       1.0  0.9906312399256266  0.4943337240034112  0.8369952245997538  1.0000
  C   C69       1.0  0.5493298249088668  0.0408191182731059  0.12861735852494144  1.0000
  C   C70       1.0  0.9506666012385524  0.9591850774100766  0.6286147704517332  1.0000
  C   C71       1.0  0.4506572849227554  0.5408133441739552  0.3713854341051501  1.0000
  C   C72       1.0  0.049330691267861916  0.45918986831533476  0.8713852341693951  1.0000
  C   C73       1.0  0.22506646869016583  0.19822854298890047  0.93750596033567  1.0000
  C   C74       1.0  0.27492527233597747  0.8017691860581807  0.4375051199578407  1.0000
  C   C75       1.0  0.7749368166169504  0.6982297425973557  0.5624906214675676  1.0000
  C   C76       1.0  0.7250677167426646  0.3017718138465426  0.062494191638890584  1.0000
  C   C77       1.0  0.2436860302602142  0.2226470302773578  0.8915665128469497  1.0000
  C   C78       1.0  0.25631796645235744  0.7773495693100471  0.39156531506192477  1.0000
  C   C79       1.0  0.7563201340704426  0.7226479796441226  0.6084314273920626  1.0000
  C   C80       1.0  0.7436775399682747  0.27735136163239105  0.10843362435667808  1.0000
  C   C81       1.0  0.3587460907128204  0.20046385517490967  0.8660110643726993  1.0000
  C   C82       1.0  0.14125380238594698  0.7995316921112093  0.366010326078424  1.0000
  C   C83       1.0  0.6412496068349045  0.700469533494747  0.6339855214122847  1.0000
  C   C84       1.0  0.8587446159196831  0.29953324910780316  0.13398931029081496  1.0000
  C   C85       1.0  0.3718840478151436  0.22270070774722237  0.8232207541088525  1.0000
  C   C86       1.0  0.12812807463740236  0.7772980222215512  0.3232190004328429  1.0000
  C   C87       1.0  0.6281102437482106  0.7227046746874493  0.6767765287244885  1.0000
  C   C88       1.0  0.8718739081865224  0.27729492523119614  0.1767809251499415  1.0000
  C   C89       1.0  0.17375131654569742  0.289513160748193  0.8313812301805894  1.0000
  C   C90       1.0  0.32625210360310325  0.7104832111005666  0.3313811730262372  1.0000
  C   C91       1.0  0.8262452311642221  0.7895150916767552  0.6686168289621859  1.0000
  C   C92       1.0  0.6737476231050865  0.21048304393651315  0.16861731873520816  1.0000
  C   C93       1.0  0.14971813137128723  0.2683437356087097  0.8740499066420636  1.0000
  C   C94       1.0  0.35028277383817413  0.7316542311076831  0.3740478955390571  1.0000
  C   C95       1.0  0.8502733310303442  0.7683468691441748  0.6259471285982909  1.0000
  C   C96       1.0  0.6497144832466405  0.23165683865577347  0.125950633871426  1.0000
  C   C97       1.0  0.7688896145009495  0.3513172612526532  0.9281511784349374  1.0000
  C   C98       1.0  0.7311097060763032  0.6486866344593878  0.4281504293666457  1.0000
  C   C99       1.0  0.23111034221878415  0.8513162430723684  0.5718476481103207  1.0000
  C   C100      1.0  0.26887905663439693  0.14868822497729894  0.07184795251614419  1.0000
  C   C101      1.0  0.7082888471465908  0.3517864645122942  0.8823067510597652  1.0000
  C   C102      1.0  0.791720569724426  0.6482244247546448  0.3823059530777755  1.0000
  C   C103      1.0  0.29173052956286233  0.8517801890788451  0.6176914187989337  1.0000
  C   C104      1.0  0.20827251685727086  0.1482258858335186  0.11769177047278839  1.0000
  C   C105      1.0  0.758121300581209  0.3097898347712161  0.849789939537743  1.0000
  C   C106      1.0  0.7418797537692614  0.690217586841115  0.3497882695080462  1.0000
  C   C107      1.0  0.2418879004718164  0.8097871708087824  0.6502068406342117  1.0000
  C   C108      1.0  0.2581148743656954  0.19021663813131792  0.15020919995632195  1.0000
  C   C109      1.0  0.7036183571929159  0.31459653143348737  0.8073267510924963  1.0000
  C   C110      1.0  0.7963938445025819  0.6854135963028015  0.3073266730414659  1.0000
  C   C111      1.0  0.29640048667359054  0.8145910040511314  0.6926710238829514  1.0000
  C   C112      1.0  0.20360517128820993  0.18541296556598752  0.19267144538765985  1.0000
  C   C113      1.0  0.5577889785082278  0.3997952684505394  0.8268604761461729  1.0000
  C   C114      1.0  0.9422068710609396  0.6002063327684298  0.3268591446305037  1.0000
  C   C115      1.0  0.4422340098722444  0.899789724156399  0.6731397516048856  1.0000
  C   C116      1.0  0.05778692104743751  0.1002079600897545  0.17313849353579508  1.0000
  C   C117      1.0  0.6052453537732987  0.39735036379488536  0.8701264873726229  1.0000
  C   C118      1.0  0.894750134385575  0.6026547457635303  0.3701245403517745  1.0000
  C   C119      1.0  0.3947647192963971  0.8973457483434687  0.6298734072826873  1.0000
  C   C120      1.0  0.10524793883077171  0.102656072421496  0.1298721159034812  1.0000
  C   C121      1.0  0.7918220079695787  0.5359573400862844  0.5829146572202362  1.0000
  C   C122      1.0  0.708169403603037  0.4640399934315624  0.08291688556598589  1.0000
  C   C123      1.0  0.20819877136561624  0.03595372288333461  0.9170859098319324  1.0000
  C   C124      1.0  0.29183091469156613  0.9640377173968915  0.41708337207641216  1.0000
  C   C125      1.0  0.7309621619678525  0.49667444497895735  0.6199468405182669  1.0000
  C   C126      1.0  0.769036495182718  0.5033220730494392  0.11994744665351217  1.0000
  C   C127      1.0  0.269056165144967  0.9966725723657818  0.8800515869796468  1.0000
  C   C128      1.0  0.23098246432144984  0.0033282838280329005  0.3800513342475894  1.0000
  C   C129      1.0  0.820121765764725  0.46456409888840966  0.6498676874317437  1.0000
  C   C130      1.0  0.6798701658371089  0.5354344435827515  0.1498684214096002  1.0000
  C   C131      1.0  0.17989379532761524  0.9645633259393449  0.8501310117249614  1.0000
  C   C132      1.0  0.3201375291608458  0.035439328256721615  0.35013041659591687  1.0000
  C   C133      1.0  0.7579894708950122  0.4266429354727778  0.6822766013846574  1.0000
  C   C134      1.0  0.7419967936706443  0.5733547740343069  0.18227636723465673  1.0000
  C   C135      1.0  0.2420212510250863  0.9266423384122503  0.8177220303440078  1.0000
  C   C136      1.0  0.2580038685243338  0.0733625821765642  0.3177238532219063  1.0000
  C   C137      1.0  0.5279075742487009  0.45233182399397265  0.6585301382934075  1.0000
  C   C138      1.0  0.9720907606274025  0.5476638844313441  0.1585323059412076  1.0000
  C   C139      1.0  0.472104928775167  0.952327786063542  0.8414718266531265  1.0000
  C   C140      1.0  0.02791675465776681  0.04767101295135492  0.3414688550921241  1.0000
  C   C141      1.0  0.5818428249399119  0.49036384734882443  0.6249649989829251  1.0000
  C   C142      1.0  0.918152552499379  0.5096312562638019  0.12496549802590809  1.0000
  C   C143      1.0  0.4181691192715604  0.9903629588747551  0.8750337460513575  1.0000
  C   C144      1.0  0.08185875939928881  0.0096393117594289  0.3750352666241596  1.0000
  C   C145      1.0  0.24332640418236207  0.014266908983465498  0.5377991360867325  1.0000
  C   C146      1.0  0.2566546449470409  0.9857312188057106  0.03780291112082779  1.0000
  C   C147      1.0  0.7566428888857433  0.5142687182314276  0.9622040224555234  1.0000
  C   C148      1.0  0.7433259277629961  0.4857324395553634  0.4621993576286342  1.0000
  C   C149      1.0  0.24733102576509222  0.07187089065337202  0.5671447766025111  1.0000
  C   C150      1.0  0.2526810770368471  0.9281283037441175  0.06715009614438827  1.0000
  C   C151      1.0  0.7526579270419448  0.5718735559874588  0.9328568405908867  1.0000
  C   C152      1.0  0.7473165310856161  0.4281270129373596  0.4328517414142822  1.0000
  C   C153      1.0  0.3796513186979169  0.09870366216689062  0.5791419769230187  1.0000
  C   C154      1.0  0.12035312903537232  0.9012927108199095  0.07914669622876858  1.0000
  C   C155      1.0  0.6203393983474329  0.5987138309591061  0.9208577154639455  1.0000
  C   C156      1.0  0.8796437940854392  0.4012943374037833  0.4208564086316357  1.0000
  C   C157      1.0  0.3808121194945998  0.14882382012113032  0.6089432653079427  1.0000
  C   C158      1.0  0.1192007134641315  0.8511736212271545  0.10894756765610229  1.0000
  C   C159      1.0  0.619191891633328  0.6488334016750202  0.8910578312122011  1.0000
  C   C160      1.0  0.8808001838812843  0.35117274269730103  0.3910551193261894  1.0000
  C   C161      1.0  0.1308490770288415  0.14933209309496934  0.6130261639907102  1.0000
  C   C162      1.0  0.3691701974154782  0.8506696639180475  0.11302895209478687  1.0000
  C   C163      1.0  0.8691570852561554  0.6493285150415461  0.8869772347004454  1.0000
  C   C164      1.0  0.6308307073411258  0.35066901343638085  0.38697176146606427  1.0000
  C   C165      1.0  0.12067638363801342  0.09812399261072365  0.5842509202373591  1.0000
  C   C166      1.0  0.3793323383958338  0.9018843447841222  0.0842590514048496  1.0000
  C   C167      1.0  0.8793154212849715  0.5981200163055578  0.9157517298941329  1.0000
  C   C168      1.0  0.6206602589914497  0.4018809656903742  0.4157443832590956  1.0000
  I   I1        1.0  0.524024630094388  0.2426222621144377  0.7053616542396242  1.0000
  I   I2        1.0  0.9759733135763754  0.7573793571555002  0.20536221918494135  1.0000
  I   I3        1.0  0.4759909542323727  0.7426142133307039  0.794635335244166  1.0000
  I   I4        1.0  0.024014931381920204  0.25738106386495463  0.2946370134803686  1.0000
  I   I5        1.0  0.25191142075166084  0.41641258218555793  0.7417872304321449  1.0000
  I   I6        1.0  0.24810246114634543  0.5835896620532283  0.24178207833027435  1.0000
  I   I7        1.0  0.7481037685880098  0.9164074328010587  0.7582123693621907  1.0000
  I   I8        1.0  0.7519131605316718  0.08358530817785952  0.2582161877833542  1.0000
  I   I9        1.0  0.015654323561108203  0.2479457317456522  0.7109326014649539  1.0000
  I   I10       1.0  0.4843403893773656  0.7520339390255658  0.21092789021684405  1.0000
  I   I11       1.0  0.9843460726943789  0.7479462288510065  0.7890703150750298  1.0000
  I   I12       1.0  0.5156554889395579  0.25204423989705294  0.2890716617022875  1.0000
  I   I13       1.0  0.3034264208749066  0.065747142025927  0.7434632161613519  1.0000
  I   I14       1.0  0.19657989218060837  0.9342474637249013  0.24346201601237988  1.0000
  I   I15       1.0  0.6965820487782751  0.5657445239820477  0.7565410201645903  1.0000
  I   I16       1.0  0.8034219430739357  0.4342515553009323  0.25653884616752254  1.0000
  N   N1        1.0  0.9191337932601088  0.10816425432219753  0.7868237230691547  1.0000
  N   N2        1.0  0.580871024939782  0.8918281171285689  0.286823196806651  1.0000
  N   N3        1.0  0.0808675774719063  0.6081747161278344  0.7131753286278479  1.0000
  N   N4        1.0  0.41914222631472603  0.3918278976605906  0.21317463114796445  1.0000
  N   N5        1.0  0.7242639696801733  0.8259304318854035  0.8756005795134952  1.0000
  N   N6        1.0  0.7757336312733047  0.1740751761944423  0.3756025673965054  1.0000
  N   N7        1.0  0.275730963735235  0.3259236010405857  0.6244005031663632  1.0000
  N   N8        1.0  0.2242515205984432  0.6740753322383031  0.12439816091124807  1.0000
  N   N9        1.0  0.5555470510139033  0.9532925319924389  0.1800639341196586  1.0000
  N   N10       1.0  0.9444359942491616  0.046701346724830714  0.6800649885142745  1.0000
  N   N11       1.0  0.4444296812439532  0.45329551030053494  0.3199343319004768  1.0000
  N   N12       1.0  0.0555738344658181  0.5467055962705843  0.819938227687885  1.0000
  N   N13       1.0  0.28092300670233783  0.26631992165511786  0.8059365741209703  1.0000
  N   N14       1.0  0.21908710159926417  0.7336768316994694  0.305934013203391  1.0000
  N   N15       1.0  0.7190825159728507  0.7663160466663899  0.694063087542922  1.0000
  N   N16       1.0  0.7809144428677188  0.23367597379299102  0.19406484855308284  1.0000
  N   N17       1.0  0.605017141432434  0.35913601517483335  0.7954318434239195  1.0000
  N   N18       1.0  0.8949778913519497  0.6408692895440639  0.2954309504365752  1.0000
  N   N19       1.0  0.39499241383752803  0.8591331151197683  0.7045679832816629  1.0000
  N   N20       1.0  0.10501422402911231  0.1408704217092449  0.20456741754393448  1.0000
  N   N21       1.0  0.6133750072615528  0.4199926124831564  0.6868118177624323  1.0000
  N   N22       1.0  0.886610140154339  0.5800041585837192  0.1868131244693245  1.0000
  N   N23       1.0  0.38663797091209773  0.9199911031649252  0.8131877884019046  1.0000
  N   N24       1.0  0.11338718656369913  0.08000854442641271  0.3131861215464724  1.0000
  N   N25       1.0  0.2586548009734103  0.17387141823362381  0.625869577510464  1.0000
  N   N26       1.0  0.24135357352428605  0.8261275205767121  0.12587242338440768  1.0000
  N   N27       1.0  0.7413520799737868  0.6738748496114654  0.8741338648216369  1.0000
  N   N28       1.0  0.7586444540047667  0.32612884169464007  0.3741289040478364  1.0000
  O   O1        1.0  0.8065004077640766  0.1359303301125081  0.9464800078877074  1.0000
  O   O2        1.0  0.6935278999988413  0.864069334693376  0.44648263042713404  1.0000
  O   O3        1.0  0.19350703076740675  0.6359217062399766  0.553516463128588  1.0000
  O   O4        1.0  0.30648252129012127  0.3640688361622182  0.053519750728177884  1.0000
  O   O5        1.0  0.5870950033313207  0.11433580938525274  0.9189695910789977  1.0000
  O   O6        1.0  0.9129205829984673  0.8856647069382578  0.41896846164643614  1.0000
  O   O7        1.0  0.4129073560198791  0.6143405128135485  0.5810327591290727  1.0000
  O   O8        1.0  0.08708628319105571  0.3856654233898313  0.08103001286048787  1.0000
  O   O9        1.0  0.8316438896934316  0.0047199115614802  0.978338469656151  1.0000
  O   O10       1.0  0.6683345056459802  0.995272706822448  0.4783403592094898  1.0000
  O   O11       1.0  0.16831906808221933  0.5047164955946145  0.521662370628057  1.0000
  O   O12       1.0  0.33162757932369413  0.49527249291035264  0.021658310215592294  1.0000
  O   O13       1.0  0.5878909975667953  0.0034153804619237  0.9768923752358203  1.0000
  O   O14       1.0  0.9120863305126719  0.9965929999302362  0.4768832248355962  1.0000
  O   O15       1.0  0.41207090008080643  0.5034112666222654  0.5231160240763302  1.0000
  O   O16       1.0  0.08787465580574151  0.49658919466831014  0.023117748214204394  1.0000
  O   O17       1.0  0.8801529850643848  0.046881839454115906  0.0642293971988508  1.0000
  O   O18       1.0  0.6198364240187076  0.9531225903937256  0.5642247595485655  1.0000
  O   O19       1.0  0.11982756004822903  0.5468791748284971  0.43577406372563826  1.0000
  O   O20       1.0  0.3801577198026467  0.45312428130385035  0.9357696454686388  1.0000
  O   O21       1.0  0.6702693757492996  0.0978044531297542  0.051728316509375795  1.0000
  O   O22       1.0  0.8297341682260113  0.9021994516024282  0.55172999686431  1.0000
  O   O23       1.0  0.329707183366807  0.5978007523788947  0.448273591193363  1.0000
  O   O24       1.0  0.17027583348055944  0.4022060956924776  0.9482777965255946  1.0000
  O   O25       1.0  0.90053412288637  0.17874153656221378  0.037622767140120986  1.0000
  O   O26       1.0  0.599468459690698  0.8212584923611818  0.5376188974457392  1.0000
  O   O27       1.0  0.09946391163631323  0.6787423760221574  0.4623802707404677  1.0000
  O   O28       1.0  0.40053409722158767  0.32125735835278146  0.9623795468946523  1.0000
  O   O29       1.0  0.09864633328405152  0.18500459665945365  0.9509421850523551  1.0000
  O   O30       1.0  0.4013668809026285  0.8149903163867762  0.45094422666245737  1.0000
  O   O31       1.0  0.901369018262557  0.685007769633259  0.5490553594962364  1.0000
  O   O32       1.0  0.5986464200311731  0.31499182473955767  0.04905675220584979  1.0000
  O   O33       1.0  0.33864003270419124  0.19493540489261113  0.9608510806153914  1.0000
  O   O34       1.0  0.16137417799887296  0.8050609790457203  0.4608473774059475  1.0000
  O   O35       1.0  0.6613751729373051  0.6949373216731943  0.5391468103450237  1.0000
  O   O36       1.0  0.8386392688461443  0.3050612796061927  0.0391509537711912  1.0000
  O   O37       1.0  0.6131820838614958  0.21026251096437684  0.9921086109549433  1.0000
  O   O38       1.0  0.8868253366799195  0.789737326525156  0.4921083179120699  1.0000
  O   O39       1.0  0.38681131118467255  0.7102641461033984  0.5078932523190501  1.0000
  O   O40       1.0  0.11318078042719293  0.28973769091840756  0.007890972282794496  1.0000
  O   O41       1.0  0.6931235565793088  0.37337711771357374  0.9596419404958139  1.0000
  O   O42       1.0  0.8068679461576735  0.6266182967109446  0.45963813329475284  1.0000
  O   O43       1.0  0.3068803930600553  0.8733800619680989  0.5403575827859796  1.0000
  O   O44       1.0  0.19313732983600573  0.1266204644610269  0.04035955183232429  1.0000
  O   O45       1.0  0.8980544861693364  0.3325991522423166  0.933753740532701  1.0000
  O   O46       1.0  0.6019491046769404  0.6674066758741688  0.4337521409669946  1.0000
  O   O47       1.0  0.10195222117322802  0.8325989633708988  0.5662473540064852  1.0000
  O   O48       1.0  0.3980426207460184  0.1674136061293012  0.06624693171521298  1.0000
  O   O49       1.0  0.9281369115158857  0.5395373146166095  0.5793117884668106  1.0000
  O   O50       1.0  0.5718512923315019  0.46046287208653086  0.07931181732516987  1.0000
  O   O51       1.0  0.07189352861126962  0.0395364933950475  0.92069075747532  1.0000
  O   O52       1.0  0.42816095045321845  0.9604654721532743  0.4206864614306055  1.0000
  O   O53       1.0  0.704823119710838  0.5634697913225891  0.5565410637520429  1.0000
  O   O54       1.0  0.7951641951044054  0.43652409778066215  0.0565425166398796  1.0000
  O   O55       1.0  0.2951994138771568  0.0634722343155047  0.9434598809807753  1.0000
  O   O56       1.0  0.20484839942471922  0.9365245615692788  0.4434563770552486  1.0000
  O   O57       1.0  0.35640375357784393  0.0029298716928707006  0.5156413732473978  1.0000
  O   O58       1.0  0.14360985872564672  0.9970643497808284  0.015645586895814693  1.0000
  O   O59       1.0  0.6435818950779294  0.5029363912740551  0.9843588063451418  1.0000
  O   O60       1.0  0.856388895007136  0.49707010618183745  0.48435670200265685  1.0000
  O   O61       1.0  0.1281181193957153  0.9816146452814041  0.5385634092187528  1.0000
  O   O62       1.0  0.37188235010110304  0.018395430448777002  0.03856800277689129  1.0000
  O   O63       1.0  0.8718669716589886  0.4816097586111783  0.9614382790533681  1.0000
  O   O64       1.0  0.6281083270120861  0.5183885294545834  0.4614357362404958  1.0000
