data_image0
_chemical_formula_structural       U2H24C34S2N4O12
_chemical_formula_sum              "U2 H24 C34 S2 N4 O12"
_cell_length_a       8.405733175347189
_cell_length_b       9.496231903991669
_cell_length_c       11.098544361519634
_cell_angle_alpha    106.4357597597432
_cell_angle_beta     97.51461175541135
_cell_angle_gamma    98.74915673291882

_space_group_name_H-M_alt    "P 1"
_space_group_IT_number       1

loop_
  _space_group_symop_operation_xyz
  'x, y, z'

loop_
  _atom_site_type_symbol
  _atom_site_label
  _atom_site_symmetry_multiplicity
  _atom_site_fract_x
  _atom_site_fract_y
  _atom_site_fract_z
  _atom_site_occupancy
  U   U1        1.0  0.19594057223696376  0.6237165862848074  0.48565289064811873  1.0000
  U   U2        1.0  0.8040573389282953  0.3762845982547987  0.5143436847152356  1.0000
  H   H1        1.0  0.9806116137828695  0.3804479202481304  0.2935003728461751  1.0000
  H   H2        1.0  0.019388199274473526  0.6195510014864569  0.7064994405033288  1.0000
  H   H3        1.0  0.058489495438337286  0.3993346940987692  0.9409739503404706  1.0000
  H   H4        1.0  0.9415079197640709  0.6006642380682266  0.05902472732470434  1.0000
  H   H5        1.0  0.15478777265373367  0.4674621847873154  0.7576718789706048  1.0000
  H   H6        1.0  0.8452120410671499  0.5325367408852985  0.24232703438450895  1.0000
  H   H7        1.0  0.44586693737883826  0.5508970330508519  0.7631951117098267  1.0000
  H   H8        1.0  0.5541345682464609  0.4491041220570511  0.23680631716041486  1.0000
  H   H9        1.0  0.05278356571794521  0.8478452913059799  0.7399678406089903  1.0000
  H   H10       1.0  0.947218188220546  0.15215699195724142  0.26003208711313863  1.0000
  H   H11       1.0  0.1481735016119927  0.045900845748256806  0.9515684566752183  1.0000
  H   H12       1.0  0.8518280040133063  0.9541003093596457  0.0484329721950232  1.0000
  H   H13       1.0  0.4407463386024659  0.17532006157977525  0.0132250633951401  1.0000
  H   H14       1.0  0.5592551676863664  0.8246810974661544  0.986775465480704  1.0000
  H   H15       1.0  0.8976463609711017  0.14813671688279584  0.7925541739120516  1.0000
  H   H16       1.0  0.10235560361858378  0.8518610780781375  0.20744557628670882  1.0000
  H   H17       1.0  0.7178229348378836  0.21661737602131137  0.951410999211802  1.0000
  H   H18       1.0  0.2821804759971727  0.7833815359716995  0.04858916767260981  1.0000
  H   H19       1.0  0.934641344957626  0.9905459565316764  0.5805045115747376  1.0000
  H   H20       1.0  0.0653594203728289  0.009451841676451505  0.4194951207790537  1.0000
  H   H21       1.0  0.8086733085199638  0.7968245827303877  0.36947090202264116  1.0000
  H   H22       1.0  0.19132530594168168  0.20317434618942087  0.6305278934875033  1.0000
  H   H23       1.0  0.5117312849106099  0.6824473818835416  0.33012641017303673  1.0000
  H   H24       1.0  0.4882685281467403  0.3175515398510457  0.6698734031764672  1.0000
  C   C1        1.0  0.300754656491705  0.4361192794486756  0.04675877113317738  1.0000
  C   C2        1.0  0.699244450615126  0.5638818821536162  0.9532424220471253  1.0000
  C   C3        1.0  0.1887137512423678  0.4328086835452184  0.9428876682869001  1.0000
  C   C4        1.0  0.8112841572687656  0.5671924852422875  0.05711250705403605  1.0000
  C   C5        1.0  0.2435645486022793  0.47324498939316584  0.8403447763460432  1.0000
  C   C6        1.0  0.7564348061542036  0.5267572964264177  0.15965581568054432  1.0000
  C   C7        1.0  0.40801781882785804  0.5180390329359242  0.8429509776686357  1.0000
  C   C8        1.0  0.5919803360058538  0.4819632521928272  0.1570503965073868  1.0000
  C   C9        1.0  0.5268594713763334  0.5210345473926452  0.9473793353814342  1.0000
  C   C10       1.0  0.473139883380149  0.4789677384269383  0.05262125664515341  1.0000
  C   C11       1.0  0.17968951742973624  0.9074606879689003  0.7680069941853417  1.0000
  C   C12       1.0  0.8203110372495245  0.09254159854151572  0.23199281569182514  1.0000
  C   C13       1.0  0.23326985403956257  0.019327750644990295  0.8864047485572751  1.0000
  C   C14       1.0  0.7667330991581663  0.9806745293710363  0.11359529700982304  1.0000
  C   C15       1.0  0.3956145195333747  0.09160896346636352  0.9200773042235749  1.0000
  C   C16       1.0  0.6043838472786119  0.9083888412361532  0.07992209244027741  1.0000
  C   C17       1.0  0.5025604277492446  0.05550221616292111  0.8332603825691931  1.0000
  C   C18       1.0  0.4974408308899285  0.9444978186657168  0.1667407474603593  1.0000
  C   C19       1.0  0.4379191831740101  0.9406249485008049  0.7153710206258026  1.0000
  C   C20       1.0  0.562080877532999  0.0593750974510741  0.2846281915699932  1.0000
  C   C21       1.0  0.5417229685332999  0.9031489227267289  0.6230693546980317  1.0000
  C   C22       1.0  0.4582770921737094  0.09685112322515013  0.37692985749776386  1.0000
  C   C23       1.0  0.7081336221892656  0.9779847621150425  0.6526917187685581  1.0000
  C   C24       1.0  0.2918661902045443  0.022014155681517905  0.3473089945753428  1.0000
  C   C25       1.0  0.7700058059543552  0.09109190375550469  0.7731604973000897  1.0000
  C   C26       1.0  0.22999665260758925  0.9089081317639657  0.2268398505800349  1.0000
  C   C27       1.0  0.6708580873712792  0.12926058826764117  0.8601528876356352  1.0000
  C   C28       1.0  0.3291441242045395  0.8707383269725641  0.1398471614038073  1.0000
  C   C29       1.0  0.805834104981116  0.9370673384586257  0.5594100426212094  1.0000
  C   C30       1.0  0.19416666034933877  0.06293045974950222  0.44058958973258194  1.0000
  C   C31       1.0  0.736439522576454  0.8319542464702395  0.44302708078526354  1.0000
  C   C32       1.0  0.263560290480889  0.16804467526435474  0.5569727325642473  1.0000
  C   C33       1.0  0.5700328011212505  0.7658557345719856  0.42077571864371066  1.0000
  C   C34       1.0  0.42996606099005424  0.23414431856512155  0.5792224757127186  1.0000
  S   S1        1.0  0.2242700713904497  0.3767314539356548  0.17096113835145837  1.0000
  S   S2        1.0  0.7757290357163812  0.6232697076666371  0.8290400548288444  1.0000
  N   N1        1.0  0.2790356751489754  0.8659630852332615  0.6854114380707584  1.0000
  N   N2        1.0  0.7209660781259828  0.1340391940919403  0.31458938964576777  1.0000
  N   N3        1.0  0.47517083862654624  0.7982346471653301  0.5082389806119849  1.0000
  N   N4        1.0  0.524828022157692  0.20176539809572352  0.4917610137332387  1.0000
  O   O1        1.0  0.0795272365842621  0.7283804389090491  0.40603964582298596  1.0000
  O   O2        1.0  0.9204730334468749  0.27161511086449514  0.5939611888382287  1.0000
  O   O3        1.0  0.3224795212117826  0.5304948747241128  0.5688101418485587  1.0000
  O   O4        1.0  0.6775226897005027  0.46950403657806566  0.4311908071852811  1.0000
  O   O5        1.0  0.27641055744152254  0.5130449417569594  0.28757337916522363  1.0000
  O   O6        1.0  0.7235892926142853  0.48695959249720744  0.7124260105539404  1.0000
  O   O7        1.0  0.04495558151476329  0.339218807187379  0.13486724953204288  1.0000
  O   O8        1.0  0.9550451831521657  0.6607789870827219  0.8651332828161454  1.0000
  O   O9        1.0  0.3011201125524821  0.2541150674602335  0.18562286982051288  1.0000
  O   O10       1.0  0.6988828386546472  0.74588720074172  0.81437987572977  1.0000
  O   O11       1.0  0.9968831470495231  0.4048728491311381  0.3875281418645642  1.0000
  O   O12       1.0  0.003117865267057575  0.5951260693562546  0.6124717893299091  1.0000
