data_image0
_chemical_formula_structural       Zn16H120C172N4O52
_chemical_formula_sum              "Zn16 H120 C172 N4 O52"
_cell_length_a       17.284212726434728
_cell_length_b       25.372649019526015
_cell_length_c       32.86900265500124
_cell_angle_alpha    90.00003065622774
_cell_angle_beta     89.99998801304773
_cell_angle_gamma    99.56964844611726

_space_group_name_H-M_alt    "P 1"
_space_group_IT_number       1

loop_
  _space_group_symop_operation_xyz
  'x, y, z'

loop_
  _atom_site_type_symbol
  _atom_site_label
  _atom_site_symmetry_multiplicity
  _atom_site_fract_x
  _atom_site_fract_y
  _atom_site_fract_z
  _atom_site_occupancy
  Zn  Zn1       1.0  0.8874784629616741  0.7023873095396667  0.06492905142878412  1.0000
  Zn  Zn2       1.0  0.11252140481835227  0.7976128347795353  0.5649287690168878  1.0000
  Zn  Zn3       1.0  0.1125214296916113  0.2976122439304874  0.935070715068456  1.0000
  Zn  Zn4       1.0  0.8874786820776989  0.2023875180646756  0.4350709974805087  1.0000
  Zn  Zn5       1.0  0.035919579281468855  0.7897809085163277  0.03776096606447511  1.0000
  Zn  Zn6       1.0  0.9640807764169991  0.7102188182925319  0.5377608582832993  1.0000
  Zn  Zn7       1.0  0.9640803133717811  0.21021864495392614  0.9622391046707721  1.0000
  Zn  Zn8       1.0  0.03591969486954841  0.2897807354678151  0.46223921245191973  1.0000
  Zn  Zn9       1.0  0.910917234238326  0.8215388541249952  0.10042878284392742  1.0000
  Zn  Zn10      1.0  0.08908252804908305  0.6784609141754816  0.6004284538144093  1.0000
  Zn  Zn11      1.0  0.08908265841488829  0.17846069934535794  0.8995715921293341  1.0000
  Zn  Zn12      1.0  0.9109167859709117  0.32153863900457946  0.3995713126828664  1.0000
  Zn  Zn13      1.0  0.02591305578229709  0.7436316814894042  0.12906126307798627  1.0000
  Zn  Zn14      1.0  0.974086796874559  0.7563685055880784  0.6290614774886765  1.0000
  Zn  Zn15      1.0  0.9740869339923323  0.2563682716678812  0.8709388076573465  1.0000
  Zn  Zn16      1.0  0.025913290021456693  0.24363184725623202  0.37093859324672723  1.0000
  H   H1        1.0  0.8803837789454575  0.541410236016489  0.08610611383869582  1.0000
  H   H2        1.0  0.11961588959800207  0.9585891230478085  0.5861058971069826  1.0000
  H   H3        1.0  0.11961669234109003  0.4585893177438579  0.9138939568965302  1.0000
  H   H4        1.0  0.8803840030552478  0.041410430422445195  0.4138941736282718  1.0000
  H   H5        1.0  0.9003583264746736  0.4479244655263771  0.10006331644871123  1.0000
  H   H6        1.0  0.0996420585360767  0.05207587248705893  0.6000629340811658  1.0000
  H   H7        1.0  0.09964243617601912  0.5520762872950513  0.8999367542867421  1.0000
  H   H8        1.0  0.9003580283600101  0.9479244803570523  0.39993652817821623  1.0000
  H   H9        1.0  0.048248607214340204  0.5038866756662657  0.20203878412392845  1.0000
  H   H10       1.0  0.9517519039882743  0.9961139600437223  0.7020387957287401  1.0000
  H   H11       1.0  0.9517514796816755  0.49611367717804467  0.7979612866114753  1.0000
  H   H12       1.0  0.04824760427447929  0.0038863925104025013  0.2979609707686849  1.0000
  H   H13       1.0  0.03013808515983388  0.5974053513100375  0.18683298862011108  1.0000
  H   H14       1.0  0.9698622353856906  0.902594474887998  0.6868332638644292  1.0000
  H   H15       1.0  0.9698625803694797  0.40259500182436625  0.8131670821152642  1.0000
  H   H16       1.0  0.0301371757556481  0.0974054779791942  0.3131668068709318  1.0000
  H   H17       1.0  0.08795413958002737  0.44974755896189567  0.09772650927366303  1.0000
  H   H18       1.0  0.9120461488603269  0.0502523778066859  0.597726645403114  1.0000
  H   H19       1.0  0.9120470074611616  0.5502523947756687  0.902273865699613  1.0000
  H   H20       1.0  0.08795384091430239  0.9497475753505923  0.4022734253322186  1.0000
  H   H21       1.0  0.11064708599163002  0.3967349003493937  0.036087267526134816  1.0000
  H   H22       1.0  0.8893526383506368  0.1032649950332001  0.5360877322723073  1.0000
  H   H23       1.0  0.8893530009044212  0.6032654524948243  0.9639124989712546  1.0000
  H   H24       1.0  0.1106473514239923  0.8967349581240783  0.4639123384630183  1.0000
  H   H25       1.0  0.9448887149237352  0.2642062634170159  0.08063341972781765  1.0000
  H   H26       1.0  0.0551104202807906  0.2357936613750695  0.5806334223372789  1.0000
  H   H27       1.0  0.05511069621763204  0.735793689450077  0.9193663467695292  1.0000
  H   H28       1.0  0.9448895694938811  0.7642062917821163  0.4193663441600395  1.0000
  H   H29       1.0  0.9237029697176381  0.3161786200039742  0.14297484250783304  1.0000
  H   H30       1.0  0.0762973080526592  0.18382134693244728  0.6429748213335673  1.0000
  H   H31       1.0  0.07629702005702652  0.6838213331532047  0.8570249239894852  1.0000
  H   H32       1.0  0.9237021030887506  0.816178605934539  0.35702464092577213  1.0000
  H   H33       1.0  0.2605958730414457  0.7318640964103693  0.14170659646144668  1.0000
  H   H34       1.0  0.7394045552667874  0.7681360993880941  0.6417068415055669  1.0000
  H   H35       1.0  0.7394041167331834  0.26813585674691615  0.858293474273879  1.0000
  H   H36       1.0  0.2605961102625258  0.2318642537463091  0.3582932292298084  1.0000
  H   H37       1.0  0.2770574016971494  0.7967420037459333  0.020894303152864807  1.0000
  H   H38       1.0  0.722942379345305  0.7032577115277334  0.5208948274579941  1.0000
  H   H39       1.0  0.7229419123228027  0.20325754943423385  0.9791057675824182  1.0000
  H   H40       1.0  0.2770575133079447  0.2967418419425202  0.4791052432772604  1.0000
  H   H41       1.0  0.46166499257089544  0.7531025779840661  0.16382317203277108  1.0000
  H   H42       1.0  0.5383353334006457  0.7468972328727973  0.6638231261538865  1.0000
  H   H43       1.0  0.5383354787156519  0.2468969757762807  0.8361768987024478  1.0000
  H   H44       1.0  0.461664656374019  0.2531027202843887  0.33617664034343175  1.0000
  H   H45       1.0  0.4420024782497762  0.6874872850091763  0.14460748677640825  1.0000
  H   H46       1.0  0.5579973707410913  0.8125129124332843  0.6446077700654487  1.0000
  H   H47       1.0  0.55799751152486  0.31251266814810924  0.8553925839589172  1.0000
  H   H48       1.0  0.44200271615491715  0.18748744041103294  0.35539230066995514  1.0000
  H   H49       1.0  0.37145851648941164  0.7113526998140074  0.17612077302153045  1.0000
  H   H50       1.0  0.6285413250702234  0.7886475186390385  0.6761213429478874  1.0000
  H   H51       1.0  0.628541473285253  0.28864725334317853  0.8238789934757809  1.0000
  H   H52       1.0  0.3714586647044057  0.21135243451824687  0.3238787277874381  1.0000
  H   H53       1.0  0.4626844130961345  0.7670319615018143  0.9958368592053195  1.0000
  H   H54       1.0  0.5373151588280293  0.7329676707376577  0.49583719270084725  1.0000
  H   H55       1.0  0.5373161553117923  0.23296799194555728  0.0041632115299777015  1.0000
  H   H56       1.0  0.46268415519192274  0.2670318824425096  0.5041628780344426  1.0000
  H   H57       1.0  0.4813755679733873  0.83182757564839  0.016625231401235407  1.0000
  H   H58       1.0  0.5186247927091259  0.6681721370688931  0.5166251551854446  1.0000
  H   H59       1.0  0.5186249033131601  0.16817197811194975  0.9833748393339835  1.0000
  H   H60       1.0  0.4813757756988366  0.33182781637837877  0.48337461131183823  1.0000
  H   H61       1.0  0.39733528471108315  0.8126710644696404  0.9853625659632289  1.0000
  H   H62       1.0  0.6026649654377251  0.6873289607635371  0.4853628734393569  1.0000
  H   H63       1.0  0.6026647050635107  0.18732888868774467  0.014637809010110903  1.0000
  H   H64       1.0  0.39733560297017323  0.31267099268393395  0.5146375015339475  1.0000
  H   H65       1.0  0.6406270743872327  0.6787368419866341  0.05572738145186661  1.0000
  H   H66       1.0  0.3593733741959539  0.8212632964877287  0.5557270816923892  1.0000
  H   H67       1.0  0.3593729153873966  0.3212631111706514  0.944272689283459  1.0000
  H   H68       1.0  0.6406271942120509  0.17873665695943688  0.44427238056688645  1.0000
  H   H69       1.0  0.6798063624882714  0.8368917930386247  0.10608580028605996  1.0000
  H   H70       1.0  0.32019349558645865  0.6631083787207146  0.6060860480112782  1.0000
  H   H71       1.0  0.3201942059196909  0.16310816040864748  0.893913966211223  1.0000
  H   H72       1.0  0.6798065913095214  0.3368919741237022  0.3939143269621399  1.0000
  H   H73       1.0  0.4887758578994479  0.8426559296266876  0.13626835234985896  1.0000
  H   H74       1.0  0.5112245716911872  0.6573442625459904  0.6362685767144571  1.0000
  H   H75       1.0  0.5112253862631276  0.15734442379790184  0.863732022623495  1.0000
  H   H76       1.0  0.488775515204793  0.3426560902984265  0.36373179825896085  1.0000
  H   H77       1.0  0.4925964735470316  0.8685719769128328  0.08649775698903994  1.0000
  H   H78       1.0  0.5074034862682025  0.6314285814737133  0.5864976668358752  1.0000
  H   H79       1.0  0.5074041919822392  0.13142837622167042  0.9135026179843495  1.0000
  H   H80       1.0  0.49259660062777755  0.3685717713707035  0.4135027081375428  1.0000
  H   H81       1.0  0.5760742741572429  0.8836454349487755  0.11879079498405085  1.0000
  H   H82       1.0  0.42392625667618933  0.6163551452583247  0.6187910120141356  1.0000
  H   H83       1.0  0.42392745151724387  0.11635451907888243  0.8812095799891967  1.0000
  H   H84       1.0  0.5760733487078369  0.38364560698313  0.3812096671974034  1.0000
  H   H85       1.0  0.44481145009589074  0.6745467654849479  0.025282902028934007  1.0000
  H   H86       1.0  0.5551883299117435  0.8254529527144997  0.5252828867308781  1.0000
  H   H87       1.0  0.5551884425573589  0.3254527879853056  0.9747171687063204  1.0000
  H   H88       1.0  0.4448116598628928  0.17454700044278582  0.4747171840044475  1.0000
  H   H89       1.0  0.43998345935072075  0.6472898260539425  0.07468810731675293  1.0000
  H   H90       1.0  0.5600163090065918  0.8527099250848662  0.5746881027415046  1.0000
  H   H91       1.0  0.5600165304238728  0.3527101271034425  0.925312267656587  1.0000
  H   H92       1.0  0.4399835836466579  0.1472896283853871  0.42531196799374993  1.0000
  H   H93       1.0  0.5141325493195835  0.633789239532156  0.04056081002043752  1.0000
  H   H94       1.0  0.48586780571863386  0.8662104891434552  0.5405608191626714  1.0000
  H   H95       1.0  0.4858679219669637  0.36621031422819067  0.9594392607147815  1.0000
  H   H96       1.0  0.5141321840559953  0.13378946401383018  0.4594392515726613  1.0000
  H   H97       1.0  0.9129550943801377  0.9767222268507822  0.05988727433678062  1.0000
  H   H98       1.0  0.0870452561007227  0.5232775147099957  0.5598868814634346  1.0000
  H   H99       1.0  0.0870447011517612  0.023276926932339796  0.9401124921603814  1.0000
  H   H100      1.0  0.912954733673942  0.4767224384471832  0.44011288503388374  1.0000
  H   H101      1.0  0.9227237383034677  0.0669172639374125  0.02674643942637541  1.0000
  H   H102      1.0  0.07727714550814818  0.43308262579743223  0.5267462168142958  1.0000
  H   H103      1.0  0.07727615434981765  0.9330822895327413  0.9732533270708648  1.0000
  H   H104      1.0  0.922722941387903  0.5669177270467856  0.4732535496830936  1.0000
  H   H105      1.0  0.8946749128210526  0.39949470418955013  0.28899997956702356  1.0000
  H   H106      1.0  0.10532523339345802  0.10050496041746733  0.7889999208074276  1.0000
  H   H107      1.0  0.10532507695358362  0.6005052489677355  0.711000091168309  1.0000
  H   H108      1.0  0.8946746592598273  0.8994945930526869  0.21099984568981267  1.0000
  H   H109      1.0  0.8993177558218122  0.4397469837221948  0.2198232613339003  1.0000
  H   H110      1.0  0.10068192519344879  0.0602530341603753  0.7198231864661369  1.0000
  H   H111      1.0  0.10068233107420353  0.5602533691221228  0.7801768094015034  1.0000
  H   H112      1.0  0.8993179674598367  0.9397465193097786  0.2801765800311032  1.0000
  H   H113      1.0  0.07369193973381269  0.3449676539716648  0.18446200729699314  1.0000
  H   H114      1.0  0.9263077496200438  0.15503234033488417  0.684461880880548  1.0000
  H   H115      1.0  0.9263079529194371  0.6550318994985888  0.8155380634382542  1.0000
  H   H116      1.0  0.07369224015462088  0.8449676128222946  0.3155378856167702  1.0000
  H   H117      1.0  0.06737053245798562  0.3046314081349167  0.2536235137043975  1.0000
  H   H118      1.0  0.9326285619534571  0.1953686319928991  0.7536237074845789  1.0000
  H   H119      1.0  0.9326288786833813  0.6953685447321759  0.7463762527929494  1.0000
  H   H120      1.0  0.06737142782117192  0.8046313211643863  0.24637636325074658  1.0000
  C   C1        1.0  0.9476909441230035  0.6313806024388241  0.12472062558039455  1.0000
  C   C2        1.0  0.05230890955748185  0.8686195817445255  0.6247203790968288  1.0000
  C   C3        1.0  0.05230914277304784  0.36861975040538664  0.8752791409170019  1.0000
  C   C4        1.0  0.9476886685624778  0.13137997056567494  0.3752806043525824  1.0000
  C   C5        1.0  0.9543953962836155  0.5752659523210895  0.13543100857727816  1.0000
  C   C6        1.0  0.045604357749851894  0.9247338393160476  0.6354307859969739  1.0000
  C   C7        1.0  0.04560478773375111  0.42473480021035936  0.8645693663962182  1.0000
  C   C8        1.0  0.9543950533915222  0.07526611355104511  0.3645689805003728  1.0000
  C   C9        1.0  0.9174253381042375  0.5328254004963213  0.11125351132950814  1.0000
  C   C10       1.0  0.08257509738520245  0.967174774998462  0.6112536064484646  1.0000
  C   C11       1.0  0.08257465167039159  0.467174552660964  0.8887465594058246  1.0000
  C   C12       1.0  0.9174248923894339  0.032825178158823604  0.388746464286868  1.0000
  C   C13       1.0  0.9283779603980237  0.4808003801176285  0.11910071101329586  1.0000
  C   C14       1.0  0.07162232300203898  0.019199570901555805  0.6191009266262386  1.0000
  C   C15       1.0  0.07162280225266932  0.519200372703807  0.8808993597221576  1.0000
  C   C16       1.0  0.9283777638939766  0.9808007819427546  0.3808991441091651  1.0000
  C   C17       1.0  0.9761546487527326  0.4700960519258431  0.15166451747766274  1.0000
  C   C18       1.0  0.023845626968444802  0.029903920804123612  0.6516644385192054  1.0000
  C   C19       1.0  0.023844762388598915  0.5299039009413491  0.8483355532576984  1.0000
  C   C20       1.0  0.9761543628061844  0.9700960323531549  0.34833563221612734  1.0000
  C   C21       1.0  0.011405886768294224  0.5122350249164641  0.1767170581929279  1.0000
  C   C22       1.0  0.9885938575294232  0.9877647942469141  0.6767170623045546  1.0000
  C   C23       1.0  0.9885942001277213  0.4877653279278533  0.8232830125424828  1.0000
  C   C24       1.0  0.011405553611950798  0.0122351586201788  0.32328270419279204  1.0000
  C   C25       1.0  0.0009397459360940311  0.5642858658795049  0.1683900751439894  1.0000
  C   C26       1.0  0.9990606760798996  0.9357143477092295  0.6683900566169287  1.0000
  C   C27       1.0  0.99906082247184  0.4357140875678666  0.8316099955913077  1.0000
  C   C28       1.0  0.0009387350614674043  0.06428560515786332  0.331609709880425  1.0000
  C   C29       1.0  0.003982632496572973  0.3863751818085602  0.12398193693738345  1.0000
  C   C30       1.0  0.9960183255071299  0.1136251724421271  0.623982090007644  1.0000
  C   C31       1.0  0.9960175515208293  0.6136255707227818  0.8760181337980983  1.0000
  C   C32       1.0  0.003981470024768948  0.8863739813409953  0.376017676489518  1.0000
  C   C33       1.0  0.05700955919633797  0.4089917128323178  0.09387059000517445  1.0000
  C   C34       1.0  0.9429901515199931  0.09100822107536997  0.5938707395620997  1.0000
  C   C35       1.0  0.9429903334569117  0.5910078406379357  0.9061294807300802  1.0000
  C   C36       1.0  0.057009356742725004  0.9089921314788542  0.40612933117333244  1.0000
  C   C37       1.0  0.0694743911505142  0.3795805723045547  0.05954584234259393  1.0000
  C   C38       1.0  0.9305254247813647  0.12041973840523214  0.5595460054110222  1.0000
  C   C39       1.0  0.9305263715001783  0.6204201805168807  0.9404542283928594  1.0000
  C   C40       1.0  0.06947398635996652  0.87958021446196  0.4404540653243389  1.0000
  C   C41       1.0  0.028886819721627422  0.32731710107486134  0.05447570732522423  1.0000
  C   C42       1.0  0.9711124187725131  0.17268320596458858  0.5544761917509933  1.0000
  C   C43       1.0  0.9711126885411262  0.6726832514792631  0.9455240591722007  1.0000
  C   C44       1.0  0.0288876681235024  0.8273171468797216  0.44552387898441753  1.0000
  C   C45       1.0  0.9767824206784257  0.3046085059572405  0.08493504755769274  1.0000
  C   C46       1.0  0.023217292145027105  0.19539142199290896  0.5849350369899045  1.0000
  C   C47       1.0  0.023217087584328163  0.6953918465968841  0.9150647189397323  1.0000
  C   C48       1.0  0.9767826976296728  0.8046085311641776  0.4150644252694066  1.0000
  C   C49       1.0  0.9646493439928603  0.3336277676753738  0.11950075162608445  1.0000
  C   C50       1.0  0.0353509393128633  0.1663721836105481  0.6195010319830703  1.0000
  C   C51       1.0  0.03535064578184689  0.6663721854817055  0.8804987106332196  1.0000
  C   C52       1.0  0.9646497262164501  0.8336281695238557  0.3804990387523049  1.0000
  C   C53       1.0  0.9869173730181157  0.3950845510188046  0.19751225698584565  1.0000
  C   C54       1.0  0.013082891891599497  0.10491545227881009  0.6975125144160474  1.0000
  C   C55       1.0  0.013082616756555868  0.6049154021383814  0.8024875095114726  1.0000
  C   C56       1.0  0.9869176765163628  0.895084501168462  0.30248725208124244  1.0000
  C   C57       1.0  0.1748553823663314  0.7665700449979764  0.08213132944431584  1.0000
  C   C58       1.0  0.8251448657476388  0.7334293117066013  0.5821318549810287  1.0000
  C   C59       1.0  0.8251445102869184  0.2334295084722768  0.9178687412909387  1.0000
  C   C60       1.0  0.1748556055388377  0.26657024205394464  0.4178688242302188  1.0000
  C   C61       1.0  0.2605568506581689  0.7642943082981901  0.08130531806767043  1.0000
  C   C62       1.0  0.7394430132600505  0.7357058469396379  0.5813058539566927  1.0000
  C   C63       1.0  0.739443139116503  0.23570564485899587  0.9186944484296478  1.0000
  C   C64       1.0  0.26055697651457876  0.26429410621764055  0.41869421677863994  1.0000
  C   C65       1.0  0.29632083839901213  0.744897019537632  0.11509489834464402  1.0000
  C   C66       1.0  0.7036790175512664  0.7551031582282303  0.6150951419318107  1.0000
  C   C67       1.0  0.7036792484969678  0.25510333330677787  0.884905476628767  1.0000
  C   C68       1.0  0.29632097222336273  0.24489679492905486  0.38490492880351485  1.0000
  C   C69       1.0  0.3764138375824899  0.7424670084272619  0.11500879408753666  1.0000
  C   C70       1.0  0.6235860183880958  0.757533169281196  0.6150090474745442  1.0000
  C   C71       1.0  0.6235862493135257  0.2575333444170482  0.884991276647867  1.0000
  C   C72       1.0  0.3764146471412175  0.2424671838532078  0.3849910232608311  1.0000
  C   C73       1.0  0.4210523459485316  0.7596746235372507  0.08010143848986932  1.0000
  C   C74       1.0  0.5789469396202732  0.7403255306078477  0.580101993913374  1.0000
  C   C75       1.0  0.5789470651927998  0.2403253293299414  0.9198986322454916  1.0000
  C   C76       1.0  0.42105305015432026  0.2596744225495371  0.4198983810599658  1.0000
  C   C77       1.0  0.38579687447677447  0.7794074636435155  0.04583694271864402  1.0000
  C   C78       1.0  0.6142029978052931  0.7205926679468961  0.54583748612329  1.0000
  C   C79       1.0  0.6142031152978901  0.22059248951366334  0.9541628237786743  1.0000
  C   C80       1.0  0.3857969919693431  0.2794072852103825  0.45416258461204273  1.0000
  C   C81       1.0  0.305557615008162  0.781464139551531  0.04691881791758591  1.0000
  C   C82       1.0  0.6944416783854946  0.7185359924700947  0.546919351660492  1.0000
  C   C83       1.0  0.6944422776451232  0.218535413918616  0.9530809485796541  1.0000
  C   C84       1.0  0.30555782987722313  0.28146436008412934  0.4530807190749473  1.0000
  C   C85       1.0  0.41456515314848724  0.7224966372341939  0.15182128299504438  1.0000
  C   C86       1.0  0.5854352727745464  0.7775035653080238  0.6518218530549762  1.0000
  C   C87       1.0  0.5854353181380603  0.2775029165261529  0.8481787877401747  1.0000
  C   C88       1.0  0.41456481412143376  0.22249678753639301  0.3481785219184418  1.0000
  C   C89       1.0  0.43399214265289027  0.7987045719107612  0.008955691139895802  1.0000
  C   C90       1.0  0.5660077383262062  0.7012955350902459  0.5089562318709897  1.0000
  C   C91       1.0  0.5660084257550793  0.20129538153651083  0.991044075357387  1.0000
  C   C92       1.0  0.43399176993647604  0.2987048174640776  0.49104414310246386  1.0000
  C   C93       1.0  0.506882788865191  0.7586058595469041  0.08007131399276092  1.0000
  C   C94       1.0  0.4931171724654391  0.7413946945551331  0.5800715750462901  1.0000
  C   C95       1.0  0.4931172009094453  0.24139409361038128  0.9199287567425718  1.0000
  C   C96       1.0  0.5068829144305765  0.2586056582891842  0.41992849568911356  1.0000
  C   C97       1.0  0.5358810337608303  0.7130700144461598  0.06599268902930082  1.0000
  C   C98       1.0  0.4641193152802999  0.7869297311852322  0.5659923635910149  1.0000
  C   C99       1.0  0.46411885889238386  0.2869295390242002  0.934007685943961  1.0000
  C   C100      1.0  0.5358812531276698  0.21307022226203998  0.43400740290626794  1.0000
  C   C101      1.0  0.6167773643122628  0.7133483556793151  0.06656069701137572  1.0000
  C   C102      1.0  0.3832231788376532  0.7866521897049381  0.5665606845811768  1.0000
  C   C103      1.0  0.38322262546240876  0.2866515974778636  0.9334390694859427  1.0000
  C   C104      1.0  0.616777583813075  0.21334856311639075  0.4334390819162623  1.0000
  C   C105      1.0  0.6683990420052481  0.7577988373391096  0.08094507652486276  1.0000
  C   C106      1.0  0.3316007248765658  0.7422009179714237  0.5809453556507338  1.0000
  C   C107      1.0  0.33160094776938104  0.24220111581817602  0.9190549942104699  1.0000
  C   C108      1.0  0.6683997464099463  0.2577986357890154  0.41905501932249944  1.0000
  C   C109      1.0  0.7546937064510002  0.7581214473138045  0.08144067557293513  1.0000
  C   C110      1.0  0.2453063516781668  0.7418795073880489  0.5814403555675656  1.0000
  C   C111      1.0  0.24530618620221387  0.24187810615655536  0.9185596994003267  1.0000
  C   C112      1.0  0.7546939294606502  0.2581216448302257  0.41855941092998006  1.0000
  C   C113      1.0  0.6388387881218164  0.8026218454897389  0.09491569687803293  1.0000
  C   C114      1.0  0.36116174834163667  0.6973787187994063  0.5949159542522084  1.0000
  C   C115      1.0  0.36116187740749683  0.19737850764466458  0.9050843738573423  1.0000
  C   C116      1.0  0.6388389171876767  0.3026216343349972  0.40508411648316694  1.0000
  C   C117      1.0  0.5584272419736109  0.8036909282335786  0.09463458559210385  1.0000
  C   C118      1.0  0.4415720401681541  0.6963092356009285  0.5946348336933058  1.0000
  C   C119      1.0  0.4415727478009899  0.1963090249238064  0.9053657893812361  1.0000
  C   C120      1.0  0.5584279496064467  0.3036907175564565  0.40536554128004115  1.0000
  C   C121      1.0  0.5276084018566465  0.8522059640676789  0.10981516134732065  1.0000
  C   C122      1.0  0.4723920339719994  0.6477942104680706  0.6098150817961286  1.0000
  C   C123      1.0  0.472392166551252  0.14779398937979238  0.8901852136259907  1.0000
  C   C124      1.0  0.5276080529239806  0.3522061423763462  0.3901852931772823  1.0000
  C   C125      1.0  0.48104469736890815  0.6646854796330076  0.05079355948609532  1.0000
  C   C126      1.0  0.5189551737443949  0.8353146552618965  0.5507935522388581  1.0000
  C   C127      1.0  0.5189551952843416  0.33531407383724615  0.9492065112491591  1.0000
  C   C128      1.0  0.48104481603023436  0.1646852978953888  0.44920651849647464  1.0000
  C   C129      1.0  0.9881918884294905  0.8961756648030601  0.037950780252096215  1.0000
  C   C130      1.0  0.011807888590951249  0.6038240618421825  0.5379504288957551  1.0000
  C   C131      1.0  0.011808582857057097  0.10382388895728668  0.9620492904831226  1.0000
  C   C132      1.0  0.9881915225504226  0.39617589102491024  0.4620493376015917  1.0000
  C   C133      1.0  0.9945618390947286  0.9499190185252007  0.018409887770793908  1.0000
  C   C134      1.0  0.005438039655068428  0.550081094778797  0.5184095149261413  1.0000
  C   C135      1.0  0.005438053558521002  0.05008053494505301  0.9815901829644607  1.0000
  C   C136      1.0  0.9945619501196032  0.44991885837838913  0.48159025157117713  1.0000
  C   C137      1.0  0.9508290644462534  0.9874179435572827  0.03366226213182701  1.0000
  C   C138      1.0  0.04917129221873752  0.5125817805189001  0.5336621732404441  1.0000
  C   C139      1.0  0.0491708282070746  0.012581609912764701  0.966337200127406  1.0000
  C   C140      1.0  0.9508287946773137  0.4874185723253107  0.46633759325695234  1.0000
  C   C141      1.0  0.9562292960957348  0.0372804932609085  0.015333550952071609  1.0000
  C   C142      1.0  0.0437710117739059  0.4627193885745696  0.5153330400174954  1.0000
  C   C143      1.0  0.04377049943613541  0.962718660522313  0.9846665197831048  1.0000
  C   C144      1.0  0.9562290751221808  0.5372809642695415  0.4846664222418868  1.0000
  C   C145      1.0  0.9767585932797475  0.32500611215423447  0.31680092491438233  1.0000
  C   C146      1.0  0.0232410648670225  0.1749939703852377  0.81680121016084  1.0000
  C   C147      1.0  0.023240336349672965  0.6749942401098965  0.6831991458210923  1.0000
  C   C148      1.0  0.9767600821742374  0.8250059833521276  0.18319855633640716  1.0000
  C   C149      1.0  0.9807337436471784  0.3495342958502974  0.2756928981533094  1.0000
  C   C150      1.0  0.0192660213147207  0.15046615896872587  0.7756931737099466  1.0000
  C   C151      1.0  0.019266246127486415  0.6504656573068885  0.7243068683440089  1.0000
  C   C152      1.0  0.9807346442146281  0.8495341941655709  0.2243065927874143  1.0000
  C   C153      1.0  0.9340477783348505  0.38807998336722704  0.2659359956526331  1.0000
  C   C154      1.0  0.0659518918064634  0.11192006525965328  0.7659362501680537  1.0000
  C   C155      1.0  0.06595163280651657  0.6119199694998655  0.7340637708447135  1.0000
  C   C156      1.0  0.9340486766015061  0.8880798881876191  0.2340635163292292  1.0000
  C   C157      1.0  0.9366831277054148  0.41053257395908094  0.22735740336233334  1.0000
  C   C158      1.0  0.06331713016646749  0.08946744923682812  0.7273576488975808  1.0000
  C   C159      1.0  0.0633168620692501  0.5894673791980978  0.7726423631349848  1.0000
  C   C160      1.0  0.9366827624868179  0.9105321042333189  0.27264211759965934  1.0000
  C   C161      1.0  0.038113573528733  0.2971993738911038  0.016369281214586806  1.0000
  C   C162      1.0  0.9618844195633612  0.2028005074748904  0.5163697790878461  1.0000
  C   C163      1.0  0.9618853561007584  0.7028009783728281  0.9836301810448591  1.0000
  C   C164      1.0  0.0381149915779773  0.7971994453923088  0.48363029164751503  1.0000
  C   C165      1.0  0.03422245353009858  0.35672761381088947  0.20731971791632028  1.0000
  C   C166      1.0  0.9657779061882933  0.14327279571253373  0.707319886547886  1.0000
  C   C167      1.0  0.9657775362445659  0.6432723393462966  0.7926800485809979  1.0000
  C   C168      1.0  0.034222759341020016  0.8567275574218626  0.29268018418748915  1.0000
  C   C169      1.0  0.030732445244595393  0.33420785513578005  0.24587001610463952  1.0000
  C   C170      1.0  0.9692672296285139  0.16579218011271732  0.745870193650163  1.0000
  C   C171      1.0  0.9692669658967786  0.6657920977313128  0.7541297503927145  1.0000
  C   C172      1.0  0.030732760146115427  0.8342077730445682  0.25412987708516255  1.0000
  N   N1        1.0  0.989556252838156  0.4172326187367546  0.15824578248902557  1.0000
  N   N2        1.0  0.010444697085759501  0.08276775835819451  0.6582457268272253  1.0000
  N   N3        1.0  0.010443736936473208  0.5827673344205309  0.841754288246307  1.0000
  N   N4        1.0  0.9895553898102918  0.9172325944860162  0.341754039670164  1.0000
  O   O1        1.0  0.09062048146689959  0.3184052559512054  0.9912354913468424  1.0000
  O   O2        1.0  0.9093784597914761  0.18159454290996282  0.49123606700718647  1.0000
  O   O3        1.0  0.9093789296745031  0.6815946969157807  0.008763970912490003  1.0000
  O   O4        1.0  0.09062201149510682  0.8184050108502845  0.5087636994900253  1.0000
  O   O5        1.0  0.9918098285442479  0.2527785266881253  0.011669655112797304  1.0000
  O   O6        1.0  0.008188938532157377  0.24722215120863203  0.5116699718317437  1.0000
  O   O7        1.0  0.008188716694746691  0.7472226246596776  0.9883295029088194  1.0000
  O   O8        1.0  0.9918105697305959  0.7527782013454927  0.48832979466568843  1.0000
  O   O9        1.0  0.145585865245998  0.7851725126390363  0.05053986827800123  1.0000
  O   O10       1.0  0.8544138116843385  0.7148268227127378  0.5505400786820119  1.0000
  O   O11       1.0  0.8544134487739896  0.21482704054102436  0.9494598982192674  1.0000
  O   O12       1.0  0.14558598384749644  0.28517233107059065  0.4494602962911715  1.0000
  O   O13       1.0  0.1373959067789272  0.7496633590257176  0.11435956478267435  1.0000
  O   O14       1.0  0.8626038522233727  0.7503364185628528  0.6143597889472548  1.0000
  O   O15       1.0  0.8626041801170885  0.2503369938185926  0.8856405059527366  1.0000
  O   O16       1.0  0.1373955589179587  0.24966353430434648  0.38564028178810633  1.0000
  O   O17       1.0  0.03041195753726814  0.8641496384644968  0.02306811120252661  1.0000
  O   O18       1.0  0.9695884987473278  0.6358504782353834  0.5230679721133242  1.0000
  O   O19       1.0  0.9695886108706941  0.1358503149827754  0.9769316552947562  1.0000
  O   O20       1.0  0.030412069660599225  0.3641494752119884  0.4769320986219727  1.0000
  O   O21       1.0  0.9408792688837551  0.8867276839531969  0.06787989102008403  1.0000
  O   O22       1.0  0.05911876517909319  0.6132720617762573  0.5678801468441323  1.0000
  O   O23       1.0  0.059120142257540885  0.1132722689140948  0.9321204839532844  1.0000
  O   O24       1.0  0.9408804517194437  0.38672709171697767  0.43212022812908685  1.0000
  O   O25       1.0  0.779361145263273  0.7162393229783464  0.06864106820088274  1.0000
  O   O26       1.0  0.22063920315329713  0.7837604244188798  0.5686410724335575  1.0000
  O   O27       1.0  0.2206386502685547  0.2837598308049821  0.9313593067723009  1.0000
  O   O28       1.0  0.7793608837427184  0.21623992842543063  0.43135899830184615  1.0000
  O   O29       1.0  0.7973052351968661  0.8006139792791133  0.09468081601668393  1.0000
  O   O30       1.0  0.20269452844600983  0.6993857851889872  0.5946801789100109  1.0000
  O   O31       1.0  0.20269465745631268  0.1993855741913464  0.9053198631945922  1.0000
  O   O32       1.0  0.7973054613286549  0.3006141679681917  0.40531958758730735  1.0000
  O   O33       1.0  0.9317431944828058  0.34218358746224437  0.3427740341919191  1.0000
  O   O34       1.0  0.0682570361725112  0.15781651268405741  0.8427743074025789  1.0000
  O   O35       1.0  0.06825669817047951  0.6578159660079024  0.657225732305321  1.0000
  O   O36       1.0  0.9317455594994966  0.842184640694576  0.15722545909484614  1.0000
  O   O37       1.0  0.018455643573041403  0.2885586317089519  0.3230576247175137  1.0000
  O   O38       1.0  0.9815432402223151  0.2114406553376966  0.8230575155228836  1.0000
  O   O39       1.0  0.9815437675682972  0.7114413211582402  0.6769424460178471  1.0000
  O   O40       1.0  0.0184564581882042  0.7885580987584004  0.17694225097420713  1.0000
  O   O41       1.0  0.9910961345786333  0.6684916049513063  0.1444705455966969  1.0000
  O   O42       1.0  0.008904774589765949  0.8315081932929261  0.6444705927968786  1.0000
  O   O43       1.0  0.008903952317382412  0.33150874789300394  0.855529525138714  1.0000
  O   O44       1.0  0.9910959880609623  0.16849255952840989  0.35552917370056053  1.0000
  O   O45       1.0  0.9000124108180855  0.6380078708355513  0.09615511421306172  1.0000
  O   O46       1.0  0.09998677384379558  0.861991894325527  0.596154859756844  1.0000
  O   O47       1.0  0.09998825471126338  0.3619924822987528  0.9038446522842992  1.0000
  O   O48       1.0  0.9000120586643447  0.1380080582512733  0.4038442982645166  1.0000
  O   O49       1.0  0.965180846205932  0.7636033070637822  0.08269990627426443  1.0000
  O   O50       1.0  0.03481892026213985  0.7363964494165388  0.5826996071232531  1.0000
  O   O51       1.0  0.03481846781402  0.23639624611638513  0.9173001644610186  1.0000
  O   O52       1.0  0.9651810695125247  0.2636035037406402  0.4173001593740581  1.0000
