data_image0
_chemical_formula_structural       Cs2H8C12S4N2O8
_chemical_formula_sum              "Cs2 H8 C12 S4 N2 O8"
_cell_length_a       5.8655662698599045
_cell_length_b       8.312442186764578
_cell_length_c       11.018297136441738
_cell_angle_alpha    89.99876183179653
_cell_angle_beta     105.3866982049051
_cell_angle_gamma    90.00127341613532

_space_group_name_H-M_alt    "P 1"
_space_group_IT_number       1

loop_
  _space_group_symop_operation_xyz
  'x, y, z'

loop_
  _atom_site_type_symbol
  _atom_site_label
  _atom_site_symmetry_multiplicity
  _atom_site_fract_x
  _atom_site_fract_y
  _atom_site_fract_z
  _atom_site_occupancy
  Cs  Cs1       1.0  0.9884784127473554  0.2500033694043466  0.9770455578373715  1.0000
  Cs  Cs2       1.0  0.0115207815247302  0.750001969577383  0.0229541866575929  1.0000
  H   H1        1.0  0.7301493296441208  0.551459284001588  0.4600665882334098  1.0000
  H   H2        1.0  0.2698467796535553  0.051472616564083806  0.5399350229950671  1.0000
  H   H3        1.0  0.7301683355038762  0.9485303165202198  0.4600642579480905  1.0000
  H   H4        1.0  0.26984101664081817  0.448542445840353  0.5399346235067526  1.0000
  H   H5        1.0  0.8318055597150787  0.39983386208005106  0.662671798131278  1.0000
  H   H6        1.0  0.16818313729959303  0.8998403279167136  0.3373303857441599  1.0000
  H   H7        1.0  0.8318231253263094  0.1001541839380096  0.662672177002257  1.0000
  H   H8        1.0  0.1681918594533514  0.6001606497087836  0.3373304173099143  1.0000
  C   C1        1.0  0.6737708578204221  0.33371576999650193  0.34859118765035657  1.0000
  C   C2        1.0  0.32622860441866663  0.8337253199339828  0.6514117783295106  1.0000
  C   C3        1.0  0.6737688371627684  0.16626798897020484  0.348581364481916  1.0000
  C   C4        1.0  0.32622480210557825  0.6662811478660444  0.6514071478067862  1.0000
  C   C5        1.0  0.7302594145497636  0.4204159585600778  0.4606822734603284  1.0000
  C   C6        1.0  0.269706791946291  0.9204230288501024  0.5393191087577308  1.0000
  C   C7        1.0  0.7302906340092932  0.0795762950416474  0.46068038486166063  1.0000
  C   C8        1.0  0.26972563593330534  0.5795821622550507  0.5393145565064188  1.0000
  C   C9        1.0  0.7870863740958428  0.3343016993547252  0.5738438063516895  1.0000
  C   C10       1.0  0.2129396395574119  0.8343099252699419  0.4261574723148128  1.0000
  C   C11       1.0  0.7870790097254456  0.16568338369525296  0.5738432177808264  1.0000
  C   C12       1.0  0.21290928355796276  0.6656928124629218  0.4261554363844838  1.0000
  S   S1        1.0  0.5958523625466087  0.41368065546626553  0.1930241586526265  1.0000
  S   S2        1.0  0.4041402028199172  0.9136833511621847  0.8069810728950202  1.0000
  S   S3        1.0  0.5958537023786121  0.08631837883209674  0.1930115680353097  1.0000
  S   S4        1.0  0.40414681376858397  0.58632348039459  0.8069828439599078  1.0000
  N   N1        1.0  0.556531876863275  0.25000876913598097  0.11367673133489832  1.0000
  N   N2        1.0  0.4434655492099965  0.7500001788828571  0.8863227622233368  1.0000
  O   O1        1.0  0.3760879588929598  0.5042807143182132  0.1730601857836973  1.0000
  O   O2        1.0  0.20488576347231915  0.004754839756088801  0.8271609338120031  1.0000
  O   O3        1.0  0.7951250975179607  0.5047604712003705  0.1728516946018246  1.0000
  O   O4        1.0  0.37607099002269  0.9957151097299076  0.1730501721777173  1.0000
  O   O5        1.0  0.6239129923934854  0.4957234215925652  0.8269443459514108  1.0000
  O   O6        1.0  0.7951134397267199  0.9952468902304762  0.1728351816509317  1.0000
  O   O7        1.0  0.20488291998250938  0.49524125868146746  0.8271565625949578  1.0000
  O   O8        1.0  0.6239246721902135  0.004285417193429503  0.8269472559927635  1.0000
