data_image0
_chemical_formula_structural       Cu2P4H36C40N4O12
_chemical_formula_sum              "Cu2 P4 H36 C40 N4 O12"
_cell_length_a       9.916700807446807
_cell_length_b       10.581819117947544
_cell_length_c       11.157451957174352
_cell_angle_alpha    69.8500610375943
_cell_angle_beta     71.28251284111995
_cell_angle_gamma    91.43030200170081

_space_group_name_H-M_alt    "P 1"
_space_group_IT_number       1

loop_
  _space_group_symop_operation_xyz
  'x, y, z'

loop_
  _atom_site_type_symbol
  _atom_site_label
  _atom_site_symmetry_multiplicity
  _atom_site_fract_x
  _atom_site_fract_y
  _atom_site_fract_z
  _atom_site_occupancy
  Cu  Cu1       1.0  0.36721942324793133  0.76805354165689  0.04436630793705383  1.0000
  Cu  Cu2       1.0  0.6327687730950233  0.23193468301563064  0.9556447639360356  1.0000
  P   P1        1.0  0.5064974100932035  0.9300944074275534  0.1752720365241841  1.0000
  P   P2        1.0  0.493509357532993  0.0698921865498079  0.8247287813578836  1.0000
  P   P3        1.0  0.0702849110362322  0.68922314078106  0.3520644283903848  1.0000
  P   P4        1.0  0.9297255601036982  0.3107920133019704  0.6479269023785149  1.0000
  H   H1        1.0  0.27145762000567697  0.8974602921259065  0.2261840989633581  1.0000
  H   H2        1.0  0.728548007184699  0.10253295744438869  0.773830052844687  1.0000
  H   H3        1.0  0.08906707386083922  0.5524650108336431  0.5451249605651681  1.0000
  H   H4        1.0  0.9109552360734128  0.4475462412541518  0.4548583098385564  1.0000
  H   H5        1.0  0.4906061495609394  0.6002636618242506  0.2695750466060643  1.0000
  H   H6        1.0  0.509366552900886  0.3997037439669739  0.7304468158366006  1.0000
  H   H7        1.0  0.5055641822478307  0.3503382278021618  0.3739080030012615  1.0000
  H   H8        1.0  0.4944192639005039  0.6496290438397664  0.6260985582471932  1.0000
  H   H9        1.0  0.4050243421350929  0.18524542265757304  0.2970754330687625  1.0000
  H   H10       1.0  0.5949587904951416  0.8147331368306393  0.7029057013740997  1.0000
  H   H11       1.0  0.2829214159608924  0.1510941580824934  0.13814631005427458  1.0000
  H   H12       1.0  0.7170617939581163  0.8489002507136335  0.8618454157948179  1.0000
  H   H13       1.0  0.1688982134689709  0.24808311393509547  0.9658291251682272  1.0000
  H   H14       1.0  0.8310788972662237  0.7519265574117853  0.03416561640644735  1.0000
  H   H15       1.0  0.10025367622137792  0.4614548719104051  0.807912974290886  1.0000
  H   H16       1.0  0.8997300156192267  0.5385603576109191  0.1920847638879549  1.0000
  H   H17       1.0  0.10743875118433274  0.7128460283734698  0.7299126225527033  1.0000
  H   H18       1.0  0.8925453990915884  0.28717565474548934  0.2700916832737121  1.0000
  H   H19       1.0  0.21261679340925352  0.8456112708883053  0.8372671285786383  1.0000
  H   H20       1.0  0.7873651281529279  0.1543935835947465  0.1627555277044265  1.0000
  H   H21       1.0  0.44912842217201654  0.7428189478713492  0.38421831925932537  1.0000
  H   H22       1.0  0.5508929001642644  0.2571707779090389  0.6157674485672473  1.0000
  H   H23       1.0  0.639374980877925  0.8014050073307714  0.3101104635611803  1.0000
  H   H24       1.0  0.3606479192149409  0.19858932381588798  0.6898857342876213  1.0000
  H   H25       1.0  0.7438001576928884  0.9782632334750471  0.3639178589888204  1.0000
  H   H26       1.0  0.2562076047247501  0.021711410978454596  0.6360913072618359  1.0000
  H   H27       1.0  0.7168161707454959  0.12426755045884622  0.4990367067306989  1.0000
  H   H28       1.0  0.28320294672693086  0.8757134900567038  0.50096544466642  1.0000
  H   H29       1.0  0.876235183789163  0.813117212691381  0.3434722691577646  1.0000
  H   H30       1.0  0.1237794057897403  0.1869047240594668  0.6565296590591672  1.0000
  H   H31       1.0  0.8462588702707593  0.6972247095679194  0.5109970661936457  1.0000
  H   H32       1.0  0.15375869266291892  0.30280057497947155  0.48900806662792456  1.0000
  H   H33       1.0  0.0087507117807846  0.0513214876147785  0.2629669181724665  1.0000
  H   H34       1.0  0.991267942434604  0.9487057496235278  0.7370344607684418  1.0000
  H   H35       1.0  0.06409736370074633  0.23740165823578255  0.3342473078359518  1.0000
  H   H36       1.0  0.9359123493357873  0.762620342974465  0.6657616535916658  1.0000
  C   C1        1.0  0.4446638012621876  0.5244490423113887  0.2421054509318451  1.0000
  C   C2        1.0  0.555315760495013  0.47552165204749736  0.75791381767759  1.0000
  C   C3        1.0  0.4533992137219798  0.38493816568787753  0.29847679467227556  1.0000
  C   C4        1.0  0.5465883212763103  0.6150363260560779  0.7015258388457751  1.0000
  C   C5        1.0  0.3982140575543412  0.29350813920063257  0.25585975319477683  1.0000
  C   C6        1.0  0.6017799524938638  0.7064723098451325  0.744130492402462  1.0000
  C   C7        1.0  0.3320813319275828  0.3423824074164017  0.156957980708583  1.0000
  C   C8        1.0  0.6679032528386487  0.6576093274150736  0.843042304455274  1.0000
  C   C9        1.0  0.27322851307017976  0.25880654588908675  0.10289930634600346  1.0000
  C   C10       1.0  0.7267526914318125  0.7411859537534865  0.8970982675031322  1.0000
  C   C11       1.0  0.21094675628987156  0.3132091800321106  0.007202873340744982  1.0000
  C   C12       1.0  0.7890303828484662  0.6867904666359905  0.9927980729209551  1.0000
  C   C13       1.0  0.2030416114549354  0.45573624117311345  0.9561587859580597  1.0000
  C   C14       1.0  0.7969449537876657  0.5442679307103332  0.04384185279670299  1.0000
  C   C15       1.0  0.1458044513830927  0.5202073057164399  0.8534250052719798  1.0000
  C   C16       1.0  0.854180994174655  0.47980493815487074  0.14657318267639857  1.0000
  C   C17       1.0  0.14857266018130125  0.6598977041920334  0.8101585107888096  1.0000
  C   C18       1.0  0.8514285635502575  0.3401182843920055  0.18983837664887201  1.0000
  C   C19       1.0  0.20625127903100093  0.7355547341629389  0.8688489105897756  1.0000
  C   C20       1.0  0.7937431622352592  0.264451780403796  0.13115001845940097  1.0000
  C   C21       1.0  0.260469560602779  0.5398455533732046  0.008462969637925272  1.0000
  C   C22       1.0  0.7395153035392853  0.4601534990960446  0.9915400455799457  1.0000
  C   C23       1.0  0.32542969882206313  0.48347978397391966  0.10846624706049815  1.0000
  C   C24       1.0  0.6745480281982594  0.5165120257779635  0.8915435408597077  1.0000
  C   C25       1.0  0.5325538073384664  0.8335961435146898  0.3351604930051764  1.0000
  C   C26       1.0  0.4674691676714178  0.16639486245075116  0.6648296552670487  1.0000
  C   C27       1.0  0.5159356252026157  0.9156076393225305  0.42350538400927457  1.0000
  C   C28       1.0  0.48407702922792595  0.08439897262934438  0.5764756158617459  1.0000
  C   C29       1.0  0.6362452857083981  0.987933584158661  0.4232795147904367  1.0000
  C   C30       1.0  0.36376488029277715  0.01206896918395019  0.5767055554557102  1.0000
  C   C31       1.0  0.6214470675476492  0.0711746992690081  0.49845817456176184  1.0000
  C   C32       1.0  0.3785698570689462  0.928829184719838  0.5015268209589935  1.0000
  C   C33       1.0  0.9259890735309713  0.7770665387960703  0.42188493002515043  1.0000
  C   C34       1.0  0.0740317693505759  0.22294979926229533  0.5781240216507086  1.0000
  C   C35       1.0  0.9668106971114412  0.8920134699573482  0.45994958116484946  1.0000
  C   C36       1.0  0.0332168763459819  0.1080079996695389  0.5400516795303076  1.0000
  C   C37       1.0  0.0036442854822666933  0.027635495653036895  0.3678377696566031  1.0000
  C   C38       1.0  0.9963831350421872  0.9723858973601267  0.6321617723454552  1.0000
  C   C39       1.0  0.035068854776795895  0.13283563859620529  0.4077348181172197  1.0000
  C   C40       1.0  0.9649547547240832  0.8671824884646427  0.5922644727461228  1.0000
  N   N1        1.0  0.38224066342492347  0.5720463180455511  0.14961922962059046  1.0000
  N   N2        1.0  0.6177393529414985  0.427936550447825  0.8503956119267285  1.0000
  N   N3        1.0  0.26101536706340067  0.676476944195677  0.96510779962356  1.0000
  N   N4        1.0  0.7389737672647244  0.32351938031054317  0.03489921124404565  1.0000
  O   O1        1.0  0.6214879391183034  0.05659306766021639  0.10195481539356877  1.0000
  O   O2        1.0  0.378516868055307  0.9433949531730972  0.8980326873017932  1.0000
  O   O3        1.0  0.17851686670565672  0.7946669527823219  0.22096191335442938  1.0000
  O   O4        1.0  0.8214845061327767  0.20535483295228119  0.779025698066654  1.0000
  O   O5        1.0  0.5134119915182538  0.83243230486584  0.10011764565276592  1.0000
  O   O6        1.0  0.48658313712405044  0.16755874346154093  0.8998792854556753  1.0000
  O   O7        1.0  0.3514138914249402  0.9705171982550382  0.21930336283911325  1.0000
  O   O8        1.0  0.6485955771051979  0.029466432320369107  0.7807227421495213  1.0000
  O   O9        1.0  0.1484048182415094  0.6386524358380754  0.46093847475983557  1.0000
  O   O10       1.0  0.8516212773169799  0.3613505753429038  0.539040104745581  1.0000
  O   O11       1.0  0.0006127653426731029  0.5708322080803825  0.3335320129458949  1.0000
  O   O12       1.0  0.999377074930962  0.42918740912038794  0.6664656846582842  1.0000
