data_image0
_chemical_formula_structural       Sr4P4H28C8O32
_chemical_formula_sum              "Sr4 P4 H28 C8 O32"
_cell_length_a       6.388013213783142
_cell_length_b       8.017428040432268
_cell_length_c       15.946826984014505
_cell_angle_alpha    89.9999789466538
_cell_angle_beta     89.99986758955191
_cell_angle_gamma    108.11922587675753

_space_group_name_H-M_alt    "P 1"
_space_group_IT_number       1

loop_
  _space_group_symop_operation_xyz
  'x, y, z'

loop_
  _atom_site_type_symbol
  _atom_site_label
  _atom_site_symmetry_multiplicity
  _atom_site_fract_x
  _atom_site_fract_y
  _atom_site_fract_z
  _atom_site_occupancy
  Sr  Sr1       1.0  0.7484815408028638  0.5098822813074264  0.1409756359187142  1.0000
  Sr  Sr2       1.0  0.25152307322102996  0.9901149187529799  0.6409737232849367  1.0000
  Sr  Sr3       1.0  0.25152479959995594  0.4901203262574541  0.8590240337931193  1.0000
  Sr  Sr4       1.0  0.7484680784309603  0.00988144161242841  0.3590278276861342  1.0000
  P   P1        1.0  0.4632591810061727  0.8321568732550377  0.1744237735201963  1.0000
  P   P2        1.0  0.536747307337521  0.6678415119232994  0.6744197710317794  1.0000
  P   P3        1.0  0.5367425107927062  0.1678458512011929  0.8255771503617028  1.0000
  P   P4        1.0  0.4632480603789233  0.33215739408057493  0.32557989868523424  1.0000
  H   H1        1.0  0.6990661147319629  0.0060939016621546  0.0801322425162354  1.0000
  H   H2        1.0  0.3009374507783704  0.49390705192357137  0.5801246413790722  1.0000
  H   H3        1.0  0.30093712659790844  0.9939087838289211  0.9198693084489663  1.0000
  H   H4        1.0  0.6990525838821142  0.5060866848771752  0.4198769095926878  1.0000
  H   H5        1.0  0.07053342091246859  0.8000034772787927  0.2671050849441913  1.0000
  H   H6        1.0  0.929466347634481  0.6999987950475346  0.7671051161225437  1.0000
  H   H7        1.0  0.9294677123928424  0.19999793539592053  0.732895211854057  1.0000
  H   H8        1.0  0.07052846158182291  0.2999987991723644  0.23289580776280872  1.0000
  H   H9        1.0  0.05979555821073754  0.31803630674819783  0.0735456156045942  1.0000
  H   H10       1.0  0.9402096028275367  0.18196462513286352  0.5735462668630333  1.0000
  H   H11       1.0  0.940207683127902  0.681966378746161  0.9264534270246187  1.0000
  H   H12       1.0  0.0597904134884644  0.8180341639780195  0.4264534028519122  1.0000
  H   H13       1.0  0.2172032857110082  0.47552658721537  0.1264908627652943  1.0000
  H   H14       1.0  0.7828019379238568  0.024471543313673308  0.6264897963032823  1.0000
  H   H15       1.0  0.7827978475921142  0.524474825458519  0.8735100611169457  1.0000
  H   H16       1.0  0.2171935557466541  0.9755313370015274  0.37350987341338293  1.0000
  H   H17       1.0  0.5377600986399075  0.3311260404449073  0.9764127872705688  1.0000
  H   H18       1.0  0.4622387157864054  0.16887657555500377  0.47641305173493725  1.0000
  H   H19       1.0  0.4622483497918496  0.6688778399379702  0.02358688244023451  1.0000
  H   H20       1.0  0.5377524358721574  0.8311197848128703  0.5235866179841367  1.0000
  H   H21       1.0  0.42117438385069744  0.19357312400490656  0.0438141565141876  1.0000
  H   H22       1.0  0.5788335255013592  0.3064264961214108  0.5438157401320967  1.0000
  H   H23       1.0  0.5788371636474353  0.8064306784493028  0.9561855131952302  1.0000
  H   H24       1.0  0.42115960822768983  0.6935671627514922  0.45618518375428624  1.0000
  H   H25       1.0  0.23952424763591304  0.026405098830494512  0.17342122442887845  1.0000
  H   H26       1.0  0.7604786659929629  0.4735956101347227  0.6734226214363732  1.0000
  H   H27       1.0  0.7604816602208403  0.9736001712617297  0.8265796994509459  1.0000
  H   H28       1.0  0.23951571067946992  0.5264046466133507  0.32657892953297113  1.0000
  C   C1        1.0  0.2050934044797189  0.8875915717001136  0.1553812252520217  1.0000
  C   C2        1.0  0.7949117933221573  0.6124108766765204  0.6553832706838989  1.0000
  C   C3        1.0  0.7949125033858024  0.11241369839540032  0.844617190291821  1.0000
  C   C4        1.0  0.20508146636315425  0.38758675650852586  0.3446170261181437  1.0000
  C   C5        1.0  0.14345682279781619  0.8670864877302334  0.062276839138334615  1.0000
  C   C6        1.0  0.8565439991048508  0.6329043987310145  0.5622781993967649  1.0000
  C   C7        1.0  0.856549643561266  0.1329200941467832  0.937722203489159  1.0000
  C   C8        1.0  0.1434515492451283  0.36708389612121545  0.4377214703209306  1.0000
  O   O1        1.0  0.48124133475216274  0.8156594172783899  0.2680342386138222  1.0000
  O   O2        1.0  0.5187527876904027  0.6843443202606848  0.7680271144136199  1.0000
  O   O3        1.0  0.5187576905220227  0.18434072257750236  0.7319666852694553  1.0000
  O   O4        1.0  0.48124493996969164  0.31566380718630443  0.231970674049677  1.0000
  O   O5        1.0  0.45136279594471773  0.6631414525548749  0.12639730898360574  1.0000
  O   O6        1.0  0.5486513431026127  0.8368595262579817  0.6263938985364065  1.0000
  O   O7        1.0  0.5486383373606003  0.3368599601198455  0.8736029878146427  1.0000
  O   O8        1.0  0.45134557415359217  0.16313934078402076  0.3736038899279208  1.0000
  O   O9        1.0  0.6628564246993991  0.9929602805396558  0.14333598350970086  1.0000
  O   O10       1.0  0.3371515238281901  0.507044784034001  0.643327793179175  1.0000
  O   O11       1.0  0.3371466906764057  0.007038430640086799  0.8566655674558492  1.0000
  O   O12       1.0  0.6628418618090066  0.49295682346155445  0.3566731307065255  1.0000
  O   O13       1.0  0.03428606741160683  0.7745125299542226  0.2065557535246825  1.0000
  O   O14       1.0  0.9657161062966111  0.725487199643247  0.7065551215161392  1.0000
  O   O15       1.0  0.9657167413831617  0.22549281806831087  0.7934439161885367  1.0000
  O   O16       1.0  0.0342734958265751  0.2745091996881328  0.29344517528763003  1.0000
  O   O17       1.0  0.9917498232453852  0.732442411634466  0.03779699148951471  1.0000
  O   O18       1.0  0.008261583911824702  0.7675509287977178  0.5377947014934039  1.0000
  O   O19       1.0  0.008252301097364495  0.26755765029358963  0.9622033053083856  1.0000
  O   O20       1.0  0.9917381804938401  0.23243991168968853  0.4622055953062159  1.0000
  O   O21       1.0  0.261237329401368  0.98795039871834  0.015224784213693004  1.0000
  O   O22       1.0  0.7387713883017213  0.5120510274440948  0.5152275214345394  1.0000
  O   O23       1.0  0.7387718034802191  0.0120587677581909  0.9847748854964209  1.0000
  O   O24       1.0  0.26122484448713124  0.4879425534976748  0.4847752837024545  1.0000
  O   O25       1.0  0.07327158642411292  0.3801981358034183  0.1284480631710707  1.0000
  O   O26       1.0  0.9267336235310707  0.1197999895922806  0.6284481083729787  1.0000
  O   O27       1.0  0.9267301053791498  0.6198045886544535  0.8715516065428305  1.0000
  O   O28       1.0  0.07326118568523297  0.880197604627618  0.3715528155123664  1.0000
  O   O29       1.0  0.5151480497696213  0.3178026196661606  0.038117047409066615  1.0000
  O   O30       1.0  0.4848587824030943  0.18219439183513939  0.5381174788496352  1.0000
  O   O31       1.0  0.4848654798011863  0.6821984812939091  0.9618832493836609  1.0000
  O   O32       1.0  0.5151353423655821  0.8177979162919231  0.46188281795240027  1.0000
