data_image0
_chemical_formula_structural       Zn4H40C48N16O16
_chemical_formula_sum              "Zn4 H40 C48 N16 O16"
_cell_length_a       7.9058440720298275
_cell_length_b       7.905837462030132
_cell_length_c       22.397046080001246
_cell_angle_alpha    90.00003518130754
_cell_angle_beta     89.99998434666135
_cell_angle_gamma    89.9996856133371

_space_group_name_H-M_alt    "P 1"
_space_group_IT_number       1

loop_
  _space_group_symop_operation_xyz
  'x, y, z'

loop_
  _atom_site_type_symbol
  _atom_site_label
  _atom_site_symmetry_multiplicity
  _atom_site_fract_x
  _atom_site_fract_y
  _atom_site_fract_z
  _atom_site_occupancy
  Zn  Zn1       1.0  0.6156922146858509  0.6156914645710144  4.83928595e-07  1.0000
  Zn  Zn2       1.0  0.3843081286136396  0.3843052795422891  0.4999989946629952  1.0000
  Zn  Zn3       1.0  0.8843112342058748  0.11568698818243917  0.24999990196818805  1.0000
  Zn  Zn4       1.0  0.11568638654225079  0.8843127172318501  0.7500003338665665  1.0000
  H   H1        1.0  0.27456765432020097  0.47681164660892944  0.19543473960874994  1.0000
  H   H2        1.0  0.7254350680611454  0.523184169942972  0.6954341406318536  1.0000
  H   H3        1.0  0.0231969971730095  0.7745381264765994  0.445432930473963  1.0000
  H   H4        1.0  0.9768042675417803  0.2254619162582471  0.9454335815977402  1.0000
  H   H5        1.0  0.22546089076768544  0.9768067607229792  0.05456622004992791  1.0000
  H   H6        1.0  0.7745356157846287  0.02319387225154659  0.5545672930604439  1.0000
  H   H7        1.0  0.47681456376710685  0.2745635940370335  0.804565034618868  1.0000
  H   H8        1.0  0.5231880744518803  0.7254374704344427  0.3045652173469193  1.0000
  H   H9        1.0  0.996332397176623  0.5063422309204312  0.1448414289501159  1.0000
  H   H10       1.0  0.0036741588633618  0.49365855784652257  0.6448413398766419  1.0000
  H   H11       1.0  0.9936697410094768  0.4963144208462607  0.394834216318543  1.0000
  H   H12       1.0  0.006336622272861799  0.5036842696494829  0.894834575664845  1.0000
  H   H13       1.0  0.5036843006003195  0.006334533548191197  0.10516518388573813  1.0000
  H   H14       1.0  0.49631216692929303  0.9936687165397015  0.6051660493128423  1.0000
  H   H15       1.0  0.5063388231195205  0.9963251698659402  0.8551588374523789  1.0000
  H   H16       1.0  0.49365618676553424  0.0036759819538189987  0.35515797241544794  1.0000
  H   H17       1.0  0.26243662188887373  0.6449286426576105  0.9842722658279328  1.0000
  H   H18       1.0  0.7375646128674943  0.3550752617805059  0.48427234690915105  1.0000
  H   H19       1.0  0.8550804553087444  0.7624370069209332  0.2342702211386296  1.0000
  H   H20       1.0  0.14491717756862244  0.2375626713419549  0.7342696159683938  1.0000
  H   H21       1.0  0.23756300145927164  0.14491654626661432  0.2657305823138074  1.0000
  H   H22       1.0  0.762437136926657  0.8550857160687851  0.7657304987362751  1.0000
  H   H23       1.0  0.6449285128055706  0.26243596946925857  0.015727071398508503  1.0000
  H   H24       1.0  0.35507181836690904  0.7375608017904368  0.5157270015839472  1.0000
  H   H25       1.0  0.6798942547911223  0.5385534509299816  0.1164528827140927  1.0000
  H   H26       1.0  0.3201059987034968  0.4614472888533283  0.6164523094871086  1.0000
  H   H27       1.0  0.9614590058014016  0.17987868497052514  0.3664518690744103  1.0000
  H   H28       1.0  0.038534730491726114  0.8201212214582368  0.8664522944199291  1.0000
  H   H29       1.0  0.8201197364936307  0.038536476909356986  0.1335483793071006  1.0000
  H   H30       1.0  0.17987797405520212  0.9614604977245943  0.6335479288679764  1.0000
  H   H31       1.0  0.5385550892811538  0.6798943657796882  0.8835473664046632  1.0000
  H   H32       1.0  0.4614487529235944  0.32010683501638937  0.3835465736011443  1.0000
  H   H33       1.0  0.5901645467443686  0.4866300976962491  0.18425512613665523  1.0000
  H   H34       1.0  0.4098381842467518  0.5133694942236955  0.6842550020523603  1.0000
  H   H35       1.0  0.0133820905474167  0.09014132608847086  0.4342550428855248  1.0000
  H   H36       1.0  0.9866153881287759  0.909857432474595  0.9342553960589158  1.0000
  H   H37       1.0  0.909858369878819  0.9866178948459134  0.0657453407793724  1.0000
  H   H38       1.0  0.09014065783161132  0.013381492528367298  0.5657451384329448  1.0000
  H   H39       1.0  0.4866304822051433  0.5901620205622605  0.8157446678802742  1.0000
  H   H40       1.0  0.5133721473972912  0.4098377983170705  0.3157438896499301  1.0000
  C   C1        1.0  0.41957922392778363  0.5405868402058542  0.11628858815347341  1.0000
  C   C2        1.0  0.5804222945773104  0.45941516417813205  0.6162875427968829  1.0000
  C   C3        1.0  0.9594293625317931  0.9195612386537062  0.3662867495973572  1.0000
  C   C4        1.0  0.040566903666338285  0.08043740259482486  0.8662870131834525  1.0000
  C   C5        1.0  0.08043780104220842  0.04056738696863959  0.1337136156855792  1.0000
  C   C6        1.0  0.9195611742555628  0.9594333826121683  0.633713986178023  1.0000
  C   C7        1.0  0.5405859471687717  0.41957658757839045  0.8837116452585861  1.0000
  C   C8        1.0  0.4594153651349586  0.5804246135086188  0.38371135599825834  1.0000
  C   C9        1.0  0.2670503490164294  0.5130683802805791  0.1485727606040896  1.0000
  C   C10       1.0  0.7329524094855414  0.4869324149364828  0.6485717064933709  1.0000
  C   C11       1.0  0.9869473869202353  0.7670308606395576  0.39857000670627946  1.0000
  C   C12       1.0  0.013055178816657102  0.23296910120328818  0.8985707527593121  1.0000
  C   C13       1.0  0.23296809182520659  0.013053093928526497  0.10142943722471642  1.0000
  C   C14       1.0  0.7670296434821184  0.9869463550440897  0.6014311679538552  1.0000
  C   C15       1.0  0.5130649650654248  0.2670463048426299  0.851427908346423  1.0000
  C   C16       1.0  0.48693257746727175  0.7329561054182391  0.35142675676343776  1.0000
  C   C17       1.0  0.11335767845577038  0.5303231166952428  0.12042530808110292  1.0000
  C   C18       1.0  0.886646366640683  0.4696763650457709  0.6204242353241511  1.0000
  C   C19       1.0  0.9696909650189627  0.6133469753304082  0.3704189570119283  1.0000
  C   C20       1.0  0.030310357544664202  0.3866504081486467  0.8704192884747783  1.0000
  C   C21       1.0  0.3866492837213756  0.030308300525561493  0.1295804654167299  1.0000
  C   C22       1.0  0.6133471649819313  0.9696949917051466  0.6295817607660866  1.0000
  C   C23       1.0  0.5303222302683039  0.11335351921423606  0.8795753525722747  1.0000
  C   C24       1.0  0.46967276079653425  0.8866451449740036  0.3795746827167648  1.0000
  C   C25       1.0  0.10824868455336659  0.5807465790623709  0.0598847409776155  1.0000
  C   C26       1.0  0.8917528774397995  0.41925659285358546  0.5598845496879719  1.0000
  C   C27       1.0  0.9192713385927574  0.6082394431237858  0.3098797254992078  1.0000
  C   C28       1.0  0.08073256042213467  0.39175910074160186  0.8098800531971193  1.0000
  C   C29       1.0  0.3917580009532812  0.08072930957997217  0.19012015055863432  1.0000
  C   C30       1.0  0.6082396659563472  0.9192740871425183  0.690120988901974  1.0000
  C   C31       1.0  0.5807444144872846  0.10824834461560325  0.940115475944431  1.0000
  C   C32       1.0  0.4192543245540392  0.8917516889467619  0.44011481208475794  1.0000
  C   C33       1.0  0.261463132315953  0.6062994039391892  0.031069329281045607  1.0000
  C   C34       1.0  0.7385371870058179  0.39370498313062524  0.531068700753778  1.0000
  C   C35       1.0  0.8937126210646652  0.761456653014022  0.2810661223472621  1.0000
  C   C36       1.0  0.10628750550313272  0.2385431060156263  0.7810664141054815  1.0000
  C   C37       1.0  0.2385434129714241  0.10628555467026496  0.21893422837452192  1.0000
  C   C38       1.0  0.76145676150135  0.8937153620040658  0.7189350463044947  1.0000
  C   C39       1.0  0.6062959668679043  0.26146419913028035  0.9689308985123335  1.0000
  C   C40       1.0  0.3937027499509683  0.7385371490575846  0.4689302036605056  1.0000
  C   C41       1.0  0.9493403451122545  0.6076661215201112  0.026248571135965904  1.0000
  C   C42       1.0  0.05065871305416891  0.392333197678191  0.5262462229453533  1.0000
  C   C43       1.0  0.8923461363175919  0.44933285650001387  0.2762440238621409  1.0000
  C   C44       1.0  0.1076565237425555  0.5506668941994802  0.7762443836625579  1.0000
  C   C45       1.0  0.5506656776109794  0.10765331147170798  0.2237549384190204  1.0000
  C   C46       1.0  0.44933322826398125  0.8923450837518838  0.7237571257253422  1.0000
  C   C47       1.0  0.6076664802704245  0.9493407244594888  0.9737534845209765  1.0000
  C   C48       1.0  0.39233223283685  0.05065810227608838  0.4737526395544053  1.0000
  N   N1        1.0  0.4130750744100595  0.585391674614449  0.0572633989104432  1.0000
  N   N2        1.0  0.5869226949361845  0.4146140225635974  0.5572632361133999  1.0000
  N   N3        1.0  0.9146245730633921  0.9130661100666798  0.3072628960678827  1.0000
  N   N4        1.0  0.08537679819185938  0.08693369417650837  0.8072627102480541  1.0000
  N   N5        1.0  0.08693411538644111  0.08537355247867139  0.19273792174058002  1.0000
  N   N6        1.0  0.913066079289429  0.9146260540905186  0.6927382830750376  1.0000
  N   N7        1.0  0.585386977629163  0.4130762554813143  0.9427363903438961  1.0000
  N   N8        1.0  0.41461049449723925  0.5869263123846125  0.44273566035293754  1.0000
  N   N9        1.0  0.5722498649159319  0.5240530902266795  0.1414173391527456  1.0000
  N   N10       1.0  0.427752899103254  0.47594769264004794  0.6414167586730244  1.0000
  N   N11       1.0  0.9759624867361935  0.07223162691555268  0.3914167559160191  1.0000
  N   N12       1.0  0.0240324951978863  0.9277670577119533  0.891416313202811  1.0000
  N   N13       1.0  0.9277667357095254  0.024035482454308997  0.10858347321360641  1.0000
  N   N14       1.0  0.07222972919851861  0.9759627139805073  0.6085834828495251  1.0000
  N   N15       1.0  0.5240534638977368  0.5722486090989064  0.8585829025381104  1.0000
  N   N16       1.0  0.47594913266258493  0.42775507838656057  0.358582131843349  1.0000
  O   O1        1.0  0.8105380969134544  0.5548334116494684  0.05152556611158591  1.0000
  O   O2        1.0  0.18946347152943593  0.44516848094836786  0.5515236625125369  1.0000
  O   O3        1.0  0.9451833703766895  0.3105264392356232  0.3015210001732882  1.0000
  O   O4        1.0  0.054820535079954893  0.6894733550902215  0.8015213954065461  1.0000
  O   O5        1.0  0.689472010374189  0.05481853145186479  0.1984774854157223  1.0000
  O   O6        1.0  0.31052691499187557  0.945179820140751  0.6984792512110901  1.0000
  O   O7        1.0  0.5548325376232912  0.8105358183668229  0.9484764778915036  1.0000
  O   O8        1.0  0.44516998963909776  0.1894616998407769  0.4484761046157999  1.0000
  O   O9        1.0  0.9500253581552869  0.6767994001222987  0.9757871885230288  1.0000
  O   O10       1.0  0.0499746182707099  0.3231994301205957  0.47578688271258335  1.0000
  O   O11       1.0  0.8232086911346599  0.4500223666660545  0.2257838015930247  1.0000
  O   O12       1.0  0.17679021317676563  0.5499760320575288  0.7257837080630196  1.0000
  O   O13       1.0  0.5499761050245766  0.17678834768769744  0.2742160646682095  1.0000
  O   O14       1.0  0.4500240268318977  0.8232088697424795  0.7742168973446512  1.0000
  O   O15       1.0  0.6767992476694148  0.9500265495634392  0.0242135319174466  1.0000
  O   O16       1.0  0.3232010769559182  0.04997150123247709  0.5242133150033866  1.0000
