data_image0
_chemical_formula_structural       Zn8H24C24N36Cl4
_chemical_formula_sum              "Zn8 H24 C24 N36 Cl4"
_cell_length_a       7.507560556000959
_cell_length_b       9.937237357000027
_cell_length_c       17.543879621002215
_cell_angle_alpha    89.99999544372307
_cell_angle_beta     90.00005745238502
_cell_angle_gamma    89.99999302773806

_space_group_name_H-M_alt    "P 1"
_space_group_IT_number       1

loop_
  _space_group_symop_operation_xyz
  'x, y, z'

loop_
  _atom_site_type_symbol
  _atom_site_label
  _atom_site_symmetry_multiplicity
  _atom_site_fract_x
  _atom_site_fract_y
  _atom_site_fract_z
  _atom_site_occupancy
  Zn  Zn1       1.0  0.5279560729858517  0.2500000236663524  0.2663100745526066  1.0000
  Zn  Zn2       1.0  0.972043611957645  0.7500001012976371  0.7663095994226836  1.0000
  Zn  Zn3       1.0  0.47204494278974357  0.7500001264759603  0.7336895691980132  1.0000
  Zn  Zn4       1.0  0.0279574038179433  0.250000048844676  0.23369004432793616  1.0000
  Zn  Zn5       1.0  0.3893741787839318  0.7500001762183645  0.07753023841684127  1.0000
  Zn  Zn6       1.0  0.110626470205311  0.2500000209770477  0.5775302006519566  1.0000
  Zn  Zn7       1.0  0.6106268369923242  0.24999997392390577  0.9224699753331294  1.0000
  Zn  Zn8       1.0  0.8893732135796955  0.7500001291653219  0.42246944309837886  1.0000
  H   H1        1.0  0.4477500427746791  0.250000040318426  0.08099129829719229  1.0000
  H   H2        1.0  0.052250614318815315  0.7500001563921261  0.5809917828908906  1.0000
  H   H3        1.0  0.5522509730009163  0.750000109823887  0.9190083454534274  1.0000
  H   H4        1.0  0.9477504014573694  0.2500010000660495  0.41900843085905837  1.0000
  H   H5        1.0  0.043464244759654505  0.966049169734781  0.11786844334585568  1.0000
  H   H6        1.0  0.45653783066723724  0.0339500154941064  0.6178685638813092  1.0000
  H   H7        1.0  0.956536736080018  0.46604894141430014  0.8821311906514566  1.0000
  H   H8        1.0  0.5434632200444441  0.5339501610096207  0.3821310896226677  1.0000
  H   H9        1.0  0.9565367710159406  0.0339509804075249  0.8821312004047639  1.0000
  H   H10       1.0  0.5434631851084363  0.9660491283323014  0.38213107986933886  1.0000
  H   H11       1.0  0.04346294770506629  0.5339502024121714  0.11786845309890029  1.0000
  H   H12       1.0  0.4565377957311513  0.46604998913268514  0.6178685541279519  1.0000
  H   H13       1.0  0.9961238507258016  0.25000001863237753  0.03212537167228648  1.0000
  H   H14       1.0  0.5038766178956281  0.7500001391359064  0.5321258354924224  1.0000
  H   H15       1.0  0.0038771650504543  0.7500001315098928  0.967874842077684  1.0000
  H   H16       1.0  0.49612306589004623  0.2500000110064208  0.4678743782572567  1.0000
  H   H17       1.0  0.580288499706576  0.9503445744271062  0.18527212223455788  1.0000
  H   H18       1.0  0.9197123274881067  0.04965556188852101  0.6852722262470365  1.0000
  H   H19       1.0  0.4197124836725763  0.4503444047080195  0.8147275124717126  1.0000
  H   H20       1.0  0.08028872068392451  0.5496557592609719  0.31472742654792535  1.0000
  H   H21       1.0  0.4197125160690122  0.0496555757151995  0.8147275215160619  1.0000
  H   H22       1.0  0.0802886882881566  0.9503445882537493  0.3147279875029341  1.0000
  H   H23       1.0  0.580288532103012  0.5496557454342934  0.18527213127890718  1.0000
  H   H24       1.0  0.9197122950916709  0.4503443908813409  0.6852722172026944  1.0000
  C   C1        1.0  0.5913173246643311  0.25000003324562675  0.08811917100946687  1.0000
  C   C2        1.0  0.9086819430684231  0.750000116679182  0.5881192386691012  1.0000
  C   C3        1.0  0.4086823591206752  0.750000116896743  0.9118804727408685  1.0000
  C   C4        1.0  0.09131774071583719  0.2500010397791357  0.4118798350818622  1.0000
  C   C5        1.0  0.170714662418888  0.9899129374301339  0.1441329002309075  1.0000
  C   C6        1.0  0.32928481052157116  0.010087250435681499  0.6441329671969811  1.0000
  C   C7        1.0  0.8292863145620046  0.48991171812577516  0.8558667326891225  1.0000
  C   C8        1.0  0.6707149120582159  0.510087387977194  0.3558666873839726  1.0000
  C   C9        1.0  0.8292850213667861  0.0100872127122003  0.8558673135187786  1.0000
  C   C10       1.0  0.6707148732641032  0.9899128997066527  0.3558672465527052  1.0000
  C   C11       1.0  0.17071470121366872  0.5100874257006326  0.1441329110615257  1.0000
  C   C12       1.0  0.3292847717267904  0.48991276216518304  0.6441329563663629  1.0000
  C   C13       1.0  0.8695021968785923  0.250000022309969  0.062395160025175776  1.0000
  C   C14       1.0  0.6304983426157732  0.7500001312181439  0.5623956782214206  1.0000
  C   C15       1.0  0.13049881889774892  0.749999121516396  0.9376050537248162  1.0000
  C   C16       1.0  0.3695013411699009  0.25000001892418316  0.4376045355282655  1.0000
  C   C17       1.0  0.442482076374894  0.981633961550095  0.17967697830813728  1.0000
  C   C18       1.0  0.057517479787378506  0.018366221336741304  0.6796769281933592  1.0000
  C   C19       1.0  0.5575189019459046  0.481634784743477  0.8203237949842901  1.0000
  C   C20       1.0  0.9424822414537531  0.5183653326542911  0.3203227260138703  1.0000
  C   C21       1.0  0.5575176074108583  0.0183651822763338  0.8203232354415775  1.0000
  C   C22       1.0  0.9424808720069606  0.9816349351215979  0.3203227155566707  1.0000
  C   C23       1.0  0.44248211383094127  0.5183663717146558  0.17967698876500285  1.0000
  C   C24       1.0  0.057517442331331416  0.48163381117217335  0.6796769177364865  1.0000
  N   N1        1.0  0.3725646682919006  0.0903369468492201  0.21197656664413955  1.0000
  N   N2        1.0  0.1274362954869943  0.9096632315130153  0.7119770763175097  1.0000
  N   N3        1.0  0.6274363733018049  0.5903370278179026  0.788023084314311  1.0000
  N   N4        1.0  0.8725646944711515  0.4096630941044523  0.2880231302246371  1.0000
  N   N5        1.0  0.6274363474836875  0.9096632032930927  0.7880230771064801  1.0000
  N   N6        1.0  0.872563388298758  0.09033591231341381  0.28802313743219793  1.0000
  N   N7        1.0  0.3725646424737903  0.4096631223244101  0.2119765594363088  1.0000
  N   N8        1.0  0.1274349893152689  0.5903360497219339  0.7119776535244213  1.0000
  N   N9        1.0  0.3211283647470466  0.9152261772676554  0.1365490928467992  1.0000
  N   N10       1.0  0.17887109043756058  0.08477300534455878  0.6365496618472973  1.0000
  N   N11       1.0  0.6788726243102235  0.41522597699099617  0.8634499734455117  1.0000
  N   N12       1.0  0.8211272880746706  0.5847731280497683  0.3634499893617543  1.0000
  N   N13       1.0  0.678871319038045  0.0847729665588162  0.8634505509035577  1.0000
  N   N14       1.0  0.8211272613576029  0.9152261384819339  0.3634505519021189  1.0000
  N   N15       1.0  0.3211270594748612  0.5847731668354683  0.13654967030484497  1.0000
  N   N16       1.0  0.17887106371982503  0.4152260157767601  0.6365496543883182  1.0000
  N   N17       1.0  0.675813557344867  0.2500000247260274  0.15452069356111756  1.0000
  N   N18       1.0  0.8241858658579133  0.7500001158973433  0.6545201549355824  1.0000
  N   N19       1.0  0.3241874584313963  0.7500001254162427  0.845479520188853  1.0000
  N   N20       1.0  0.17581248593650403  0.2500000342450903  0.345479488814469  1.0000
  N   N21       1.0  0.8540698425413282  0.2500000177148678  0.13809107053955927  1.0000
  N   N22       1.0  0.6459308741847422  0.7500001252098588  0.6380910253637211  1.0000
  N   N23       1.0  0.14593117323501303  0.7499991261114972  0.8619091432104324  1.0000
  N   N24       1.0  0.3540688096001857  0.2500010312484164  0.3619086183865932  1.0000
  N   N25       1.0  0.19844017139553927  0.09596528128056292  0.18907110520476775  1.0000
  N   N26       1.0  0.3015607387518884  0.9040349002903202  0.689070549909097  1.0000
  N   N27       1.0  0.8015622012800491  0.5959643367792112  0.810929685498607  1.0000
  N   N28       1.0  0.6984389201251275  0.4040347756185412  0.31092908688749077  1.0000
  N   N29       1.0  0.801559512390135  0.9040348688617713  0.8109291085449186  1.0000
  N   N30       1.0  0.69843894503245  0.0959652498520924  0.3109285238418877  1.0000
  N   N31       1.0  0.19844014648754177  0.40403480704705447  0.18907109825102705  1.0000
  N   N32       1.0  0.30155943166928983  0.5959653745238924  0.6890705568625535  1.0000
  N   N33       1.0  0.7065570846577175  0.25000003214000094  0.028568513545920396  1.0000
  N   N34       1.0  0.7934420436446673  0.750000126126622  0.5285685317172479  1.0000
  N   N35       1.0  0.29344126713744606  0.7499991116864848  0.9714317002035032  1.0000
  N   N36       1.0  0.20655630814975012  0.2500000240158117  0.4714311120327962  1.0000
  Cl  Cl1       1.0  0.6928375914722907  0.750000162743632  0.0715327704036994  1.0000
  Cl  Cl2       1.0  0.8071589734436417  0.2499999895047509  0.5715322470387746  1.0000
  Cl  Cl3       1.0  0.30716076032279477  0.24999998739876622  0.9284674433457026  1.0000
  Cl  Cl4       1.0  0.19283804635893634  0.7499991543219195  0.42846625671231203  1.0000
