data_image0
_chemical_formula_structural       Ni6H40C56N4O28
_chemical_formula_sum              "Ni6 H40 C56 N4 O28"
_cell_length_a       7.595637433169689
_cell_length_b       10.835030517089907
_cell_length_c       17.29036971281851
_cell_angle_alpha    89.9916191650891
_cell_angle_beta     90.02660553217461
_cell_angle_gamma    105.13156057976828

_space_group_name_H-M_alt    "P 1"
_space_group_IT_number       1

loop_
  _space_group_symop_operation_xyz
  'x, y, z'

loop_
  _atom_site_type_symbol
  _atom_site_label
  _atom_site_symmetry_multiplicity
  _atom_site_fract_x
  _atom_site_fract_y
  _atom_site_fract_z
  _atom_site_occupancy
  Ni  Ni1       1.0  0.5897818654467812  0.29904577793403314  0.07470456525729927  1.0000
  Ni  Ni2       1.0  0.9053393304054184  0.7025653615431436  0.5735493933099319  1.0000
  Ni  Ni3       1.0  0.4061040735547081  0.7016775548424332  0.9266824392425903  1.0000
  Ni  Ni4       1.0  0.09116807176985732  0.29785492299615157  0.4255132689880979  1.0000
  Ni  Ni5       1.0  0.9972968230745635  0.49699146794026205  0.002256046910680699  1.0000
  Ni  Ni6       1.0  0.4971358084514038  0.49867036325993314  0.4984835889117816  1.0000
  H   H1        1.0  0.4637109805011407  0.473966003027378  0.0161867735051615  1.0000
  H   H2        1.0  0.0988480649159911  0.5424994157719141  0.5995885446036977  1.0000
  H   H3        1.0  0.5937090706099326  0.5437755063211113  0.8932017972757575  1.0000
  H   H4        1.0  0.9657008343436575  0.4760841904793337  0.48093064368346444  1.0000
  H   H5        1.0  0.28514344153290955  0.3761312305954547  0.0508848711298313  1.0000
  H   H6        1.0  0.22277490420906082  0.6348960617786048  0.5413860733641298  1.0000
  H   H7        1.0  0.7236420018683417  0.6295457759388011  0.9533608676904775  1.0000
  H   H8        1.0  0.7851602835539212  0.3752452363208079  0.45025238695018277  1.0000
  H   H9        1.0  0.3606672084117193  0.05024010986132768  0.011499443279433297  1.0000
  H   H10       1.0  0.1381026074737122  0.9489922289512548  0.5099246908584973  1.0000
  H   H11       1.0  0.6362074930384763  0.9488235804690103  0.9898148512672691  1.0000
  H   H12       1.0  0.8586356313689762  0.05006170594320739  0.48942549145780123  1.0000
  H   H13       1.0  0.14189098067200223  0.8596184301906432  0.0639797637490176  1.0000
  H   H14       1.0  0.35936830562172883  0.138499574537299  0.5620213738015847  1.0000
  H   H15       1.0  0.8573659689130012  0.13827545444309658  0.9376575346165478  1.0000
  H   H16       1.0  0.637320804624821  0.8603400372006859  0.4371466298093124  1.0000
  H   H17       1.0  0.729822593781023  0.5026733799108526  0.3043867141114873  1.0000
  H   H18       1.0  0.7864795245087919  0.49137745453187137  0.8018633190602455  1.0000
  H   H19       1.0  0.2814003411475525  0.4922901586309365  0.698849877680466  1.0000
  H   H20       1.0  0.23020413300989864  0.5023916364448481  0.19542198932998633  1.0000
  H   H21       1.0  0.05844363278703928  0.8861324166550517  0.3344193222151758  1.0000
  H   H22       1.0  0.43399340850085366  0.11551411307041798  0.8339694563930633  1.0000
  H   H23       1.0  0.9344050764151746  0.11478512945677007  0.6662247656348936  1.0000
  H   H24       1.0  0.5602597250913207  0.885527295074212  0.16607847912622015  1.0000
  H   H25       1.0  0.9470469478294419  0.7225913370859728  0.10487329997302908  1.0000
  H   H26       1.0  0.5469036063187077  0.27748646286895  0.6038414297312967  1.0000
  H   H27       1.0  0.0502454538620469  0.2745685484865774  0.8967487967276991  1.0000
  H   H28       1.0  0.4467011954076767  0.721677869275311  0.39540722730180267  1.0000
  H   H29       1.0  0.026888489344450796  0.1610411915675982  0.10226708472509927  1.0000
  H   H30       1.0  0.4685788211614507  0.8385915757264256  0.602776847560328  1.0000
  H   H31       1.0  0.9696147167232069  0.8380091512078564  0.8983473622282145  1.0000
  H   H32       1.0  0.5313808398861114  0.1647275468201741  0.3970488924078097  1.0000
  H   H33       1.0  0.3953082286965143  0.240374967928524  0.22098883659513285  1.0000
  H   H34       1.0  0.09063733404663304  0.7637348238271712  0.7214884714382562  1.0000
  H   H35       1.0  0.5911201984844326  0.7623707397403974  0.7787291762049191  1.0000
  H   H36       1.0  0.8992432318847392  0.23841404272798875  0.279128671080059  1.0000
  H   H37       1.0  0.178086226748924  0.0597951921609763  0.2832398900136681  1.0000
  H   H38       1.0  0.3097665528499077  0.9433502270811399  0.7835530922568167  1.0000
  H   H39       1.0  0.811093108439067  0.9413917449221996  0.7167265702768402  1.0000
  H   H40       1.0  0.6802783881801419  0.0584711041081292  0.21698368782426056  1.0000
  C   C1        1.0  0.31585459645248193  0.04759175144415199  0.07151294053552698  1.0000
  C   C2        1.0  0.18048667811824975  0.952661134489297  0.5703282386455084  1.0000
  C   C3        1.0  0.6793361731314603  0.9521265002714255  0.929548420476749  1.0000
  C   C4        1.0  0.8146301392568064  0.04714473076582238  0.4292583021653299  1.0000
  C   C5        1.0  0.19101240778508796  0.9415714032943325  0.10168674232109957  1.0000
  C   C6        1.0  0.3063899042926011  0.0581987888346873  0.6004945096270404  1.0000
  C   C7        1.0  0.8053962413035834  0.05751678434188528  0.8993840172221181  1.0000
  C   C8        1.0  0.6886802844200943  0.941581454762094  0.39914986327116947  1.0000
  C   C9        1.0  0.7583332482503096  0.48704802030531624  0.15210420649871276  1.0000
  C   C10       1.0  0.7462391434327884  0.5097126860898485  0.6505339282162337  1.0000
  C   C11       1.0  0.24444572521028357  0.5088758793000706  0.8500540375223052  1.0000
  C   C12       1.0  0.2589737024185368  0.486060564206781  0.3477299077145587  1.0000
  C   C13       1.0  0.02006576183377011  0.8210501330249682  0.21476653728588954  1.0000
  C   C14       1.0  0.4752739290878694  0.179085748251353  0.7139446511321025  1.0000
  C   C15       1.0  0.9762840205077482  0.17773947482530866  0.7862943962068056  1.0000
  C   C16       1.0  0.5198329796022205  0.8204634288443413  0.2856812271068492  1.0000
  C   C17       1.0  0.8106956663152047  0.5914025918101089  0.2793957497602335  1.0000
  C   C18       1.0  0.695534251963771  0.4051553278619051  0.7779247984322948  1.0000
  C   C19       1.0  0.19295647918740844  0.4050800023949605  0.7226833232729744  1.0000
  C   C20       1.0  0.3111460002251718  0.5909397273040325  0.22059653795460574  1.0000
  C   C21       1.0  0.8384100783035109  0.6011560238421719  0.19977226262480485  1.0000
  C   C22       1.0  0.6637853054096824  0.3965510347350261  0.698472581603191  1.0000
  C   C23       1.0  0.16303889567344496  0.3954493097319868  0.802189182240532  1.0000
  C   C24       1.0  0.3386291438632724  0.6004353821969558  0.30025014601160643  1.0000
  C   C25       1.0  0.9950936892742349  0.8081537659801652  0.2954581997900334  1.0000
  C   C26       1.0  0.5004393938647098  0.19202220102857834  0.794587463151103  1.0000
  C   C27       1.0  0.0007729654379957852  0.1913108902249618  0.7056240586353225  1.0000
  C   C28       1.0  0.4961142706264925  0.8075749190121755  0.20492230594611974  1.0000
  C   C29       1.0  0.8854063611509132  0.6956074710658696  0.3272076800169755  1.0000
  C   C30       1.0  0.6151389151041329  0.30289710281883936  0.8262455170251639  1.0000
  C   C31       1.0  0.1140941975347545  0.3028551387952803  0.6741254042437176  1.0000
  C   C32       1.0  0.3865784246564985  0.6951716594276149  0.17296060530954793  1.0000
  C   C33       1.0  0.8335192595354286  0.6806165850680655  0.41102670691356735  1.0000
  C   C34       1.0  0.6645988403508981  0.3174489378494698  0.9107349937253415  1.0000
  C   C35       1.0  0.16371594690210858  0.31866076919384057  0.5897370191467174  1.0000
  C   C36       1.0  0.3358771085730864  0.6803542818548532  0.08900773186000069  1.0000
  C   C37       1.0  0.13837619617189026  0.9382758534230716  0.17993334497712243  1.0000
  C   C38       1.0  0.35544483815237277  0.06244697815991168  0.679155675632316  1.0000
  C   C39       1.0  0.855896797026908  0.0611531412012454  0.8209093183013321  1.0000
  C   C40       1.0  0.6378392901760251  0.9377201167657602  0.3206498676246312  1.0000
  C   C41       1.0  0.9361814016964303  0.7167549890805985  0.1674807250094048  1.0000
  C   C42       1.0  0.5604036652714796  0.2826410150544874  0.6663981885672141  1.0000
  C   C43       1.0  0.062001103433750863  0.280746037071978  0.8341535913249343  1.0000
  C   C44       1.0  0.4359215921894161  0.7159907154979589  0.33278598142791777  1.0000
  C   C45       1.0  0.952135380961245  0.22959652080576382  0.08068039683811888  1.0000
  C   C46       1.0  0.5429560527044899  0.7700859330819653  0.5807728905230858  1.0000
  C   C47       1.0  0.043488834769988195  0.7688079905778054  0.9197373478545783  1.0000
  C   C48       1.0  0.45431968982590826  0.23098838525193333  0.4198687352087162  1.0000
  C   C49       1.0  0.3356107953314549  0.15335618659668168  0.18851340970734035  1.0000
  C   C50       1.0  0.1537970259333007  0.8494930501877814  0.6885284394074629  1.0000
  C   C51       1.0  0.6541544486918625  0.8482300092733791  0.8116416367467421  1.0000
  C   C52       1.0  0.8377533864708725  0.15189980145446916  0.3117731146846053  1.0000
  C   C53       1.0  0.2120767181889178  0.0503303940224029  0.22273304644915015  1.0000
  C   C54       1.0  0.27802069089455017  0.9519794102218949  0.72269609552265  1.0000
  C   C55       1.0  0.7788302086747977  0.9504814827240721  0.7774724600610127  1.0000
  C   C56       1.0  0.7134211477530316  0.0492224166470692  0.2776228061338982  1.0000
  N   N1        1.0  0.390531804206141  0.15203646400817658  0.11431397600153297  1.0000
  N   N2        1.0  0.10210051423825904  0.8499623435789583  0.6138262563778909  1.0000
  N   N3        1.0  0.6018346324499291  0.8490282829125632  0.8861993499419966  1.0000
  N   N4        1.0  0.8917389985813459  0.15072391918502598  0.38615282802228984  1.0000
  O   O1        1.0  0.6838969730734874  0.5979692044429541  0.4234875054880546  1.0000
  O   O2        1.0  0.8141701388473025  0.40093592729482436  0.9234153204673132  1.0000
  O   O3        1.0  0.3091981919842013  0.4064235596133868  0.5771281297128822  1.0000
  O   O4        1.0  0.1834923204275185  0.6009583312311619  0.0763049887695502  1.0000
  O   O5        1.0  0.05086985258580509  0.3284407918361437  0.0467585162158244  1.0000
  O   O6        1.0  0.44770446353907545  0.675658867535155  0.542119720535595  1.0000
  O   O7        1.0  0.9463561272368821  0.6713960319557088  0.9552602207389  1.0000
  O   O8        1.0  0.5501852158947642  0.328195225175314  0.45626857820147376  1.0000
  O   O9        1.0  0.7846079709800975  0.48593097897101245  0.07798175761529787  1.0000
  O   O10       1.0  0.7118974433419964  0.5144828139051683  0.5776944354677693  1.0000
  O   O11       1.0  0.21258305010493928  0.513261337338207  0.9231052688246988  1.0000
  O   O12       1.0  0.2854545893187889  0.4848332410547725  0.42185648667074094  1.0000
  O   O13       1.0  0.6555609123029171  0.38823629657409936  0.1831557478918882  1.0000
  O   O14       1.0  0.8598618926698762  0.6049216745422825  0.68107858072684  1.0000
  O   O15       1.0  0.355268064794295  0.6052023253783786  0.8191393007954274  1.0000
  O   O16       1.0  0.15637397615950732  0.38722789793372664  0.3166740597976271  1.0000
  O   O17       1.0  0.7823232636702288  0.19861701741800183  0.09205737238644217  1.0000
  O   O18       1.0  0.7107648515609101  0.7970056054159825  0.5967515694471998  1.0000
  O   O19       1.0  0.2125264723797783  0.7980404550097115  0.9061712852293693  1.0000
  O   O20       1.0  0.2849870872822676  0.19926564847773412  0.4073012437270903  1.0000
  O   O21       1.0  0.9378718259368383  0.7504978178766492  0.4610331496356323  1.0000
  O   O22       1.0  0.5581024030031471  0.24924939774108168  0.9600269048805429  1.0000
  O   O23       1.0  0.06140453160143978  0.24768145353387175  0.5402785245607404  1.0000
  O   O24       1.0  0.44391600628249256  0.7474133787294547  0.039118575251940485  1.0000
  O   O25       1.0  0.4174562360401453  0.41521104535969755  0.05944215034658378  1.0000
  O   O26       1.0  0.09079109321464776  0.5916236494343889  0.553065113146175  1.0000
  O   O27       1.0  0.5907163188898322  0.5880024744236394  0.9421154238522149  1.0000
  O   O28       1.0  0.9170732761830109  0.412989462749728  0.44001598030801137  1.0000
