data_image0
_chemical_formula_structural       Li8H32C24N8O28
_chemical_formula_sum              "Li8 H32 C24 N8 O28"
_cell_length_a       7.407582489364114
_cell_length_b       7.899427002501809
_cell_length_c       16.347615768060624
_cell_angle_alpha    90.00017925059711
_cell_angle_beta     89.9997341183263
_cell_angle_gamma    93.22977430212579

_space_group_name_H-M_alt    "P 1"
_space_group_IT_number       1

loop_
  _space_group_symop_operation_xyz
  'x, y, z'

loop_
  _atom_site_type_symbol
  _atom_site_label
  _atom_site_symmetry_multiplicity
  _atom_site_fract_x
  _atom_site_fract_y
  _atom_site_fract_z
  _atom_site_occupancy
  Li  Li1       1.0  0.0846755123455836  0.7835397613505393  0.5444639973298848  1.0000
  Li  Li2       1.0  0.9153236713025307  0.7164605554755424  0.0444635533386162  1.0000
  Li  Li3       1.0  0.91532335116203  0.21645991810654405  0.4555365754763159  1.0000
  Li  Li4       1.0  0.08467398686065762  0.28354165628807226  0.9555357960507749  1.0000
  Li  Li5       1.0  0.043628877700413723  0.5789512947308213  0.36848042499243405  1.0000
  Li  Li6       1.0  0.9563723677907279  0.9210484283877773  0.8684816862077723  1.0000
  Li  Li7       1.0  0.9563725413420556  0.4210458559476961  0.6315183126791624  1.0000
  Li  Li8       1.0  0.0436279907111015  0.0789537904572555  0.1315201100187622  1.0000
  H   H1        1.0  0.9915629667813803  0.8989209398648582  0.4089956677857529  1.0000
  H   H2        1.0  0.008439229512589507  0.6010790278611678  0.9089947730978309  1.0000
  H   H3        1.0  0.008435969141693504  0.101080007514021  0.5910042933113288  1.0000
  H   H4        1.0  0.9915609841733968  0.39892065513116376  0.0910051879969487  1.0000
  H   H5        1.0  0.834627202253266  0.7736913729827748  0.4443385070197152  1.0000
  H   H6        1.0  0.16537329547039556  0.7263088015053327  0.9443374709128705  1.0000
  H   H7        1.0  0.16537158884793263  0.22630703854704845  0.5556608423656044  1.0000
  H   H8        1.0  0.8346255680342054  0.27369087795356956  0.0556637136033231  1.0000
  H   H9        1.0  0.28344331724128585  0.5821373116471873  0.6206374346534458  1.0000
  H   H10       1.0  0.7165563932787223  0.9178621940472946  0.12063771430250368  1.0000
  H   H11       1.0  0.716555546266335  0.41786236780990277  0.3793631381527475  1.0000
  H   H12       1.0  0.2834425426413462  0.08213875333341039  0.8793628585045781  1.0000
  H   H13       1.0  0.20797204809138492  0.5158789896650617  0.5328540209084736  1.0000
  H   H14       1.0  0.792027250006015  0.9841212580768185  0.032853018256084006  1.0000
  H   H15       1.0  0.7920295157639147  0.48412069686797554  0.46714716360487774  1.0000
  H   H16       1.0  0.20797175832649373  0.015880957227501796  0.9671475545518788  1.0000
  H   H17       1.0  0.3240455406563855  0.022889957463277693  0.5013639184867245  1.0000
  H   H18       1.0  0.6759535740689698  0.4771089074056434  0.0013631499209197  1.0000
  H   H19       1.0  0.6759546730265812  0.9771097255308727  0.4986366543180552  1.0000
  H   H20       1.0  0.3240440840881861  0.5228933043616164  0.9986374228884642  1.0000
  H   H21       1.0  0.417491347092053  0.8578818542136515  0.5312238515661176  1.0000
  H   H22       1.0  0.5825106674169336  0.6421183909076545  0.031224608439082105  1.0000
  H   H23       1.0  0.5825088665909135  0.1421178287804992  0.4687767212386618  1.0000
  H   H24       1.0  0.41748556815544197  0.35788254939709657  0.9687753526608418  1.0000
  H   H25       1.0  0.5212665063282742  0.7038436829786858  0.8914370099279125  1.0000
  H   H26       1.0  0.4787340783945809  0.7961485691941729  0.3914376068370657  1.0000
  H   H27       1.0  0.47873363494225163  0.29615473209184273  0.108563562875986  1.0000
  H   H28       1.0  0.5212670509950854  0.20384350979168178  0.6085617425409993  1.0000
  H   H29       1.0  0.29119184541600873  0.585006704497694  0.7865778347984927  1.0000
  H   H30       1.0  0.7088126905594481  0.9149887345766459  0.28657751472387366  1.0000
  H   H31       1.0  0.7088112134455714  0.41499552141601  0.2134221262952067  1.0000
  H   H32       1.0  0.2911885112456786  0.08500461233101218  0.7134212229450795  1.0000
  C   C1        1.0  0.9139309776537986  0.8901460093027821  0.6966291243046356  1.0000
  C   C2        1.0  0.08606940635389289  0.6098552200263042  0.196630267202039  1.0000
  C   C3        1.0  0.08607058620150099  0.10985367723026228  0.3033720602087229  1.0000
  C   C4        1.0  0.913929529569188  0.39014572735257497  0.8033696938950426  1.0000
  C   C5        1.0  0.7459030980735406  0.7841201459359367  0.7220384311042024  1.0000
  C   C6        1.0  0.25409696304782164  0.7158799666612835  0.222039380151358  1.0000
  C   C7        1.0  0.25409846578779144  0.21587954059346254  0.277961529989156  1.0000
  C   C8        1.0  0.7459018280563895  0.28411844486672067  0.7779593575239687  1.0000
  C   C9        1.0  0.5502235034380475  0.7060846361981344  0.826098401141671  1.0000
  C   C10       1.0  0.4497753146626096  0.7939122918144647  0.32609966742027297  1.0000
  C   C11       1.0  0.44977550489747387  0.2939175791043738  0.1739015599562919  1.0000
  C   C12       1.0  0.5502246817890467  0.206083587405189  0.6738996819618635  1.0000
  C   C13       1.0  0.4252234527637952  0.6381576262671514  0.7691195303922667  1.0000
  C   C14       1.0  0.5747774220129501  0.8618415020894048  0.2691206359014515  1.0000
  C   C15       1.0  0.5747769781625467  0.36184586049422046  0.2308798189951631  1.0000
  C   C16       1.0  0.42522271926360133  0.13815691297748595  0.730878713482447  1.0000
  C   C17       1.0  0.628008951065688  0.7016733794725453  0.6652840394533186  1.0000
  C   C18       1.0  0.3719918867498109  0.7983301991946448  0.16528608809446146  1.0000
  C   C19       1.0  0.3719940353834374  0.2983275785175436  0.334715921639507  1.0000
  C   C20       1.0  0.628007049173263  0.20167074818424163  0.8347138730026202  1.0000
  C   C21       1.0  0.6799816720518451  0.6716473440976782  0.5771487855299782  1.0000
  C   C22       1.0  0.32002003456215533  0.828355710142915  0.07715160085700748  1.0000
  C   C23       1.0  0.3200185416401666  0.3283523388910154  0.42284995214480864  1.0000
  C   C24       1.0  0.6799813844773015  0.1716414405374209  0.9228477485245887  1.0000
  N   N1        1.0  0.7080032638466562  0.781137004310082  0.8022232503937159  1.0000
  N   N2        1.0  0.2919944394323225  0.7188597781006009  0.302224124057183  1.0000
  N   N3        1.0  0.29199694983932295  0.21886267868224957  0.1977767107010635  1.0000
  N   N4        1.0  0.7080029290810759  0.28113736196853967  0.6977752253286695  1.0000
  N   N5        1.0  0.46575579012993973  0.634026803374816  0.6891096520072892  1.0000
  N   N6        1.0  0.534243390235531  0.8659756455998815  0.1891114609238969  1.0000
  N   N7        1.0  0.5342471239067451  0.36597288669165096  0.3108903090846481  1.0000
  N   N8        1.0  0.46575419551219005  0.1340252982419301  0.810888500174606  1.0000
  O   O1        1.0  0.010658768668513107  0.9582100894106986  0.7518779397023891  1.0000
  O   O2        1.0  0.9893424209035758  0.5417914721950579  0.2518770754857584  1.0000
  O   O3        1.0  0.9893429400116818  0.04179213296958299  0.2481232448127315  1.0000
  O   O4        1.0  0.010656442610070403  0.4582082072583872  0.7481222739004423  1.0000
  O   O5        1.0  0.9376797572928057  0.9073718430306883  0.6194117358997033  1.0000
  O   O6        1.0  0.0623228104868971  0.5926301982909263  0.11941167938531548  1.0000
  O   O7        1.0  0.0623206012120363  0.09263037581252576  0.38058944861683847  1.0000
  O   O8        1.0  0.9376801759682606  0.40737075969551734  0.88058705828751  1.0000
  O   O9        1.0  0.785900897284648  0.5537707190575388  0.5659506215285219  1.0000
  O   O10       1.0  0.2141007024831154  0.9462284647776045  0.0659526150084702  1.0000
  O   O11       1.0  0.21409931640736352  0.4462289639311549  0.4340481161462648  1.0000
  O   O12       1.0  0.785896955671028  0.05377374699147448  0.9340485695109066  1.0000
  O   O13       1.0  0.6117010504642834  0.756401399520527  0.5199338504032838  1.0000
  O   O14       1.0  0.3883094660301297  0.7436038713443764  0.019936393590327794  1.0000
  O   O15       1.0  0.3882990908152807  0.24359701554454452  0.4800648872706148  1.0000
  O   O16       1.0  0.6116854917853729  0.2563983333432844  0.9800623440919054  1.0000
  O   O17       1.0  0.9650355240879734  0.7828538641472347  0.43317283390992856  1.0000
  O   O18       1.0  0.03496508369212141  0.717146243908303  0.9331738939850281  1.0000
  O   O19       1.0  0.03496476201045339  0.21714708676871905  0.5668271271857321  1.0000
  O   O20       1.0  0.9650337798124796  0.28285343555059933  0.06682729053116529  1.0000
  O   O21       1.0  0.17275173048983555  0.5687933706853482  0.5855015306906992  1.0000
  O   O22       1.0  0.8272471210395409  0.9312084582486119  0.0855009854691531  1.0000
  O   O23       1.0  0.8272470606023176  0.4312050408499386  0.4144996538246133  1.0000
  O   O24       1.0  0.1727518872929679  0.0687937570557153  0.9144995873388098  1.0000
  O   O25       1.0  0.3026150302414195  0.9168284587274157  0.5319880430156799  1.0000
  O   O26       1.0  0.6973854093234166  0.5831679836321156  0.0319884685619698  1.0000
  O   O27       1.0  0.6973838332692069  0.08317122072784848  0.4680119180805136  1.0000
  O   O28       1.0  0.30261210400885113  0.41683169228790007  0.9680121042456519  1.0000
