data_image0
_chemical_formula_structural       Li4H40C20N4O20
_chemical_formula_sum              "Li4 H40 C20 N4 O20"
_cell_length_a       7.312440310636328
_cell_length_b       9.70301581087101
_cell_length_c       10.262180218003454
_cell_angle_alpha    89.99990747873831
_cell_angle_beta     90.00002813258898
_cell_angle_gamma    97.58537772774

_space_group_name_H-M_alt    "P 1"
_space_group_IT_number       1

loop_
  _space_group_symop_operation_xyz
  'x, y, z'

loop_
  _atom_site_type_symbol
  _atom_site_label
  _atom_site_symmetry_multiplicity
  _atom_site_fract_x
  _atom_site_fract_y
  _atom_site_fract_z
  _atom_site_occupancy
  Li  Li1       1.0  0.5410321873955299  0.8574568788865097  0.36232108287476444  1.0000
  Li  Li2       1.0  0.5410321775150209  0.3574581590683579  0.13767816713581738  1.0000
  Li  Li3       1.0  0.4589684563610917  0.1425426089534625  0.6376783062419022  1.0000
  Li  Li4       1.0  0.45896864324872416  0.642542368469158  0.86232219643189  1.0000
  H   H1        1.0  0.9785515908844434  0.683906372019223  0.0105451651567421  1.0000
  H   H2        1.0  0.978552914219172  0.18390602925029498  0.4894554755978574  1.0000
  H   H3        1.0  0.021447861676549024  0.31609415163753607  0.9894551984107237  1.0000
  H   H4        1.0  0.021447729537257515  0.8160934585904869  0.5105429390670082  1.0000
  H   H5        1.0  0.13453853127481355  0.6107429276825656  0.2766727340452704  1.0000
  H   H6        1.0  0.13453992417548483  0.11074406879187389  0.22332870047954853  1.0000
  H   H7        1.0  0.8654609212861788  0.38925759597418624  0.7233276295222026  1.0000
  H   H8        1.0  0.8654608965880615  0.8892564587464591  0.7766706886363577  1.0000
  H   H9        1.0  0.7524948967449491  0.6627845558862191  0.18953342346242855  1.0000
  H   H10       1.0  0.7524961478182493  0.16278451185871035  0.31046619677562143  1.0000
  H   H11       1.0  0.2475043788091115  0.3372149280721716  0.8104669401058117  1.0000
  H   H12       1.0  0.2475043189314406  0.8372139362828934  0.6895331923418053  1.0000
  H   H13       1.0  0.9688994638020888  0.5035814087295236  0.1850501296369913  1.0000
  H   H14       1.0  0.9689007166858448  0.0035813572172785006  0.31495175733053316  1.0000
  H   H15       1.0  0.031101179954923508  0.4964180791088211  0.8149512083832775  1.0000
  H   H16       1.0  0.0311001040777015  0.9964191703210543  0.6850476317853733  1.0000
  H   H17       1.0  0.2854253117872077  0.7932310105723347  0.047728093580864994  1.0000
  H   H18       1.0  0.28542679711726754  0.2932317695623254  0.45227214034345303  1.0000
  H   H19       1.0  0.7145739637666678  0.20676847338687313  0.9522712955355672  1.0000
  H   H20       1.0  0.7145738466395459  0.7067677182768366  0.5477282232250145  1.0000
  H   H21       1.0  0.14202789164928487  0.9120273658730439  0.051219438936705296  1.0000
  H   H22       1.0  0.1420264621571548  0.41202708323138637  0.448779589638761  1.0000
  H   H23       1.0  0.8579727521073366  0.08797212196692782  0.9487799501799614  1.0000
  H   H24       1.0  0.8579728133967208  0.5879724007278213  0.5512197994776784  1.0000
  H   H25       1.0  0.8971938560440905  0.7776550949973925  0.2879919709113636  1.0000
  H   H26       1.0  0.8971923309623268  0.2776552075400076  0.21200849864336385  1.0000
  H   H27       1.0  0.10280696471965463  0.2223454325401235  0.7120083926563437  1.0000
  H   H28       1.0  0.10280557638878923  0.7223442725384359  0.7879908904728338  1.0000
  H   H29       1.0  0.2265638228061776  0.8605295961906024  0.1949072832369367  1.0000
  H   H30       1.0  0.22656370350728855  0.3605295572511693  0.3050928276319524  1.0000
  H   H31       1.0  0.7734369979573688  0.13947093134772365  0.8050921058789696  1.0000
  H   H32       1.0  0.7734371172564565  0.6394709702863467  0.694907535935755  1.0000
  H   H33       1.0  0.3971795108373542  0.6217498156283199  0.4311165604917305  1.0000
  H   H34       1.0  0.3971791191691097  0.12174913123554629  0.0688839737481075  1.0000
  H   H35       1.0  0.602819941723638  0.37825070802843197  0.5688838030757424  1.0000
  H   H36       1.0  0.6028203333918825  0.8782513924212055  0.9311163898193655  1.0000
  H   H37       1.0  0.56809457708642  0.569889301309047  0.35940184932061203  1.0000
  H   H38       1.0  0.5680955825736477  0.0698885011013957  0.1405988232293822  1.0000
  H   H39       1.0  0.4319046984676476  0.43011018264935075  0.640598514247621  1.0000
  H   H40       1.0  0.43190369298042  0.930110982856995  0.859401540338851  1.0000
  C   C1        1.0  0.8602730316830574  0.753300812591199  0.185891846697487  1.0000
  C   C2        1.0  0.8602730930308911  0.25330179830258714  0.31410864722536047  1.0000
  C   C3        1.0  0.13972624387101015  0.24669867136719154  0.8141085168707531  1.0000
  C   C4        1.0  0.1397263595299023  0.7466987253549817  0.6858907418903114  1.0000
  C   C5        1.0  0.7709115697217754  0.8717454380810565  0.1267698011777938  1.0000
  C   C6        1.0  0.7709114779314206  0.3717452854165301  0.3732304810988864  1.0000
  C   C7        1.0  0.22908770583209304  0.12825404587815112  0.8732295879386384  1.0000
  C   C8        1.0  0.22908797462957156  0.6282552382402216  0.6267698824685864  1.0000
  C   C9        1.0  0.08858761364133734  0.5842908733721829  0.1764591485554874  1.0000
  C   C10       1.0  0.08858750179061302  0.0842908036407479  0.32354231041156817  1.0000
  C   C11       1.0  0.9114130301154759  0.415708614466972  0.8235412150129803  1.0000
  C   C12       1.0  0.9114133189729333  0.9157097238975853  0.6764570787043382  1.0000
  C   C13       1.0  0.022514316222547782  0.7094846301719641  0.11076929677851408  1.0000
  C   C14       1.0  0.022513216703025318  0.20948652631775394  0.3892309738567333  1.0000
  C   C15       1.0  0.9774849593315197  0.29051485378642644  0.8892310667897191  1.0000
  C   C16       1.0  0.9774876040605209  0.7905140012205792  0.610768415259173  1.0000
  C   C17       1.0  0.24060577800960206  0.5215369031920289  0.104975387498655  1.0000
  C   C18       1.0  0.2406070632209136  0.0215367180319888  0.39502524540144884  1.0000
  C   C19       1.0  0.7593955737743344  0.47846674344300777  0.8950220527113611  1.0000
  C   C20       1.0  0.7593954797598317  0.9784658927813865  0.6049770670685746  1.0000
  N   N1        1.0  0.17810381960980243  0.825725673677603  0.10087660036354859  1.0000
  N   N2        1.0  0.17810373827322223  0.32572547779530947  0.3991245212715171  1.0000
  N   N3        1.0  0.8218956329513887  0.17427484997833181  0.8991247376557253  1.0000
  N   N4        1.0  0.821895714287571  0.6742750458622595  0.6008748678441549  1.0000
  O   O1        1.0  0.6533521194631292  0.923932915656309  0.1966905555721397  1.0000
  O   O2        1.0  0.6533504542346337  0.423931836114079  0.30330960637446214  1.0000
  O   O3        1.0  0.34664870130041703  0.0760676118820243  0.8033088335437668  1.0000
  O   O4        1.0  0.3466491753330914  0.5760697272418439  0.6966897827404495  1.0000
  O   O5        1.0  0.2972571756328506  0.4150458682083882  0.15732302931253628  1.0000
  O   O6        1.0  0.2972571775824947  0.9150446208141576  0.3426770228697151  1.0000
  O   O7        1.0  0.7027434681239626  0.5849536196307668  0.8426773342559315  1.0000
  O   O8        1.0  0.7027444803630233  0.0849527915098562  0.6573223662487135  1.0000
  O   O9        1.0  0.29968659082496174  0.5760058964309281  0.999097248904789  1.0000
  O   O10       1.0  0.29968890811682775  0.0760053332637298  0.5009023256638158  1.0000
  O   O11       1.0  0.7003140529320504  0.4239935914074168  0.0009040891154868  1.0000
  O   O12       1.0  0.7003131038419499  0.9239941584594434  0.4990941400976752  1.0000
  O   O13       1.0  0.8144891319143498  0.909126403735151  0.0108889464355428  1.0000
  O   O14       1.0  0.8144890869074575  0.4091260576595844  0.4891112939046138  1.0000
  O   O15       1.0  0.18550996663278604  0.09087204052487859  0.9891114171334506  1.0000
  O   O16       1.0  0.18551001163948652  0.5908723866012549  0.5108880952125787  1.0000
  O   O17       1.0  0.5185263141389669  0.6550251278302072  0.3912955832563937  1.0000
  O   O18       1.0  0.5185274837569409  0.15502542055331497  0.10870494224294446  1.0000
  O   O19       1.0  0.48147313842222433  0.3449753958257348  0.60870575476288  1.0000
  O   O20       1.0  0.4814733370068041  0.8449751069842008  0.8912954213247629  1.0000
