data_image0
_chemical_formula_structural       Sm2H20C22N2O14
_chemical_formula_sum              "Sm2 H20 C22 N2 O14"
_cell_length_a       8.398730623262121
_cell_length_b       9.072933640680104
_cell_length_c       10.505902905347105
_cell_angle_alpha    104.82364945507062
_cell_angle_beta     101.32060988030632
_cell_angle_gamma    95.65910064511496

_space_group_name_H-M_alt    "P 1"
_space_group_IT_number       1

loop_
  _space_group_symop_operation_xyz
  'x, y, z'

loop_
  _atom_site_type_symbol
  _atom_site_label
  _atom_site_symmetry_multiplicity
  _atom_site_fract_x
  _atom_site_fract_y
  _atom_site_fract_z
  _atom_site_occupancy
  Sm  Sm1       1.0  0.4170298258470879  0.2926312157600395  0.030770315981463646  1.0000
  Sm  Sm2       1.0  0.5829751142993161  0.7073670577055399  0.9692325659578885  1.0000
  H   H1        1.0  0.7495836634079397  0.18880664205435957  0.3790369915616694  1.0000
  H   H2        1.0  0.25041943347223145  0.811195084154939  0.6209644411304965  1.0000
  H   H3        1.0  0.6536566224497165  0.29149512538473504  0.5844882860381517  1.0000
  H   H4        1.0  0.3463402323001432  0.7085054228437997  0.41550996202593643  1.0000
  H   H5        1.0  0.761230451428553  0.7532943358701165  0.5563548970378137  1.0000
  H   H6        1.0  0.23876055931833665  0.2467073413419102  0.4436388333439183  1.0000
  H   H7        1.0  0.8602444528762305  0.6556364801581227  0.35102386163237753  1.0000
  H   H8        1.0  0.1397524124329834  0.34436406711732576  0.6489734360697454  1.0000
  H   H9        1.0  0.9455725310054391  0.15512161746804765  0.2819606677284839  1.0000
  H   H10       1.0  0.05443717445430712  0.8448835965455432  0.7180454676233623  1.0000
  H   H11       1.0  0.99748130420727  0.18726376354481297  0.13704567480291985  1.0000
  H   H12       1.0  0.002521405104914716  0.8127356547471439  0.8629561405815593  1.0000
  H   H13       1.0  0.9954330835347849  0.3983847533390448  0.08865252468216066  1.0000
  H   H14       1.0  0.00457243268391491  0.6016169824790939  0.9113502583996934  1.0000
  H   H15       1.0  0.03610159260536249  0.5558384017346115  0.23475590743839805  1.0000
  H   H16       1.0  0.9639006557751273  0.4441656299703356  0.7652468432715124  1.0000
  H   H17       1.0  0.5542118132528202  0.15319974843335168  0.7878447515174402  1.0000
  H   H18       1.0  0.4457849263564456  0.8467927240296265  0.21215266007872202  1.0000
  H   H19       1.0  0.5340565788012627  0.32386374882006674  0.7793627389256913  1.0000
  H   H20       1.0  0.4659375318464357  0.676127561505027  0.22063493916988364  1.0000
  C   C1        1.0  0.8196653001687864  0.4139340006964432  0.3499906094904901  1.0000
  C   C2        1.0  0.18033399503831765  0.5860665552347587  0.6500070882393558  1.0000
  C   C3        1.0  0.7565122505685623  0.31314637273520435  0.4178442516593465  1.0000
  C   C4        1.0  0.24348723314285792  0.6868553376312081  0.5821537299053291  1.0000
  C   C5        1.0  0.7015822372601124  0.37102814138718543  0.5339088419459017  1.0000
  C   C6        1.0  0.29841341310016395  0.6289724015603897  0.4660882557423633  1.0000
  C   C7        1.0  0.7051271370135767  0.530269774607007  0.5874841065836023  1.0000
  C   C8        1.0  0.2948688903553247  0.4697330772109965  0.4125135587743074  1.0000
  C   C9        1.0  0.7611444183939043  0.629826465568492  0.5172416003187835  1.0000
  C   C10       1.0  0.23884496871733774  0.3701729013044784  0.4827542134653342  1.0000
  C   C11       1.0  0.8167444625602158  0.5740707238374442  0.40133094322219165  1.0000
  C   C12       1.0  0.18325118780006022  0.4259298191101238  0.5986661544660734  1.0000
  C   C13       1.0  0.6559609336160224  0.5915589513786091  0.7146652262475258  1.0000
  C   C14       1.0  0.34403331329099984  0.40844043280586834  0.2853313875920521  1.0000
  C   C15       1.0  0.9013254638766599  0.19844524640372205  0.19489599969314503  1.0000
  C   C16       1.0  0.09868245056183873  0.8015565009294295  0.8051100345023345  1.0000
  C   C17       1.0  0.7459021722863852  0.08974488480566833  0.1058728057827381  1.0000
  C   C18       1.0  0.25410166749986024  0.9102545454388464  0.8941368125113341  1.0000
  C   C19       1.0  0.9390114406407833  0.4622544604834929  0.16756472050230542  1.0000
  C   C20       1.0  0.06099268268401665  0.5377461156184682  0.8324366283688961  1.0000
  C   C21       1.0  0.8100114427334335  0.5382677751304573  0.09567618448136274  1.0000
  C   C22       1.0  0.18999113087124903  0.46173048396085664  0.9043205952584686  1.0000
  N   N1        1.0  0.8826157707208256  0.3588771593556218  0.23883280077912167  1.0000
  N   N2        1.0  0.11738854110828363  0.6411245711815641  0.7611688319269021  1.0000
  O   O1        1.0  0.6212141360776544  0.14820268753100416  0.06612191783947456  1.0000
  O   O2        1.0  0.3787913907004067  0.8517990473340548  0.9338799148804142  1.0000
  O   O3        1.0  0.7549481871781297  0.9471885057876795  0.07680415033959787  1.0000
  O   O4        1.0  0.24505445721371188  0.05281208981354272  0.9232207575668812  1.0000
  O   O5        1.0  0.6553122600234718  0.4885388472788462  0.07178566207873159  1.0000
  O   O6        1.0  0.3446890880728973  0.5114594084376735  0.9282118680091997  1.0000
  O   O7        1.0  0.8605741467083519  0.6535089826828157  0.05908224740872473  1.0000
  O   O8        1.0  0.13942860484127104  0.3464904317967952  0.940915766527894  1.0000
  O   O9        1.0  0.6068623837671225  0.4984892836702033  0.7798438469451625  1.0000
  O   O10       1.0  0.3931381263889265  0.501511276588879  0.22015405079855552  1.0000
  O   O11       1.0  0.665648568235895  0.7372954820454469  0.767148350228986  1.0000
  O   O12       1.0  0.334345646993043  0.26270390499828983  0.2328511146964871  1.0000
  O   O13       1.0  0.48413308776097363  0.23195715282219012  0.8032169919779905  1.0000
  O   O14       1.0  0.5158634527846148  0.76803416615865  0.1967810861453146  1.0000
