data_image0
_chemical_formula_structural       Cu4H44C44S4N12
_chemical_formula_sum              "Cu4 H44 C44 S4 N12"
_cell_length_a       5.795206809
_cell_length_b       10.543350644864965
_cell_length_c       18.39279346900843
_cell_angle_alpha    89.99926996597426
_cell_angle_beta     89.99970221622614
_cell_angle_gamma    99.84643405956099

_space_group_name_H-M_alt    "P 1"
_space_group_IT_number       1

loop_
  _space_group_symop_operation_xyz
  'x, y, z'

loop_
  _atom_site_type_symbol
  _atom_site_label
  _atom_site_symmetry_multiplicity
  _atom_site_fract_x
  _atom_site_fract_y
  _atom_site_fract_z
  _atom_site_occupancy
  Cu  Cu1       1.0  0.9049230405382788  0.5307936461508547  0.5606886207091222  1.0000
  Cu  Cu2       1.0  0.09511911986979982  0.9691974080642822  0.0606851809651729  1.0000
  Cu  Cu3       1.0  0.09513250454821076  0.46919887769197277  0.43931390924915087  1.0000
  Cu  Cu4       1.0  0.9049470068890814  0.0307903027655954  0.9393086499338565  1.0000
  H   H1        1.0  0.3220162459065961  0.351895178074443  0.58040775693771  1.0000
  H   H2        1.0  0.6780158322028385  0.1481086971204562  0.0803852880016649  1.0000
  H   H3        1.0  0.67800973589749  0.648102158368502  0.4196203265070864  1.0000
  H   H4        1.0  0.3220320556679823  0.8518924912350485  0.9195884263228676  1.0000
  H   H5        1.0  0.5447068302735402  0.2002221715750281  0.6422912333135073  1.0000
  H   H6        1.0  0.4552966077955531  0.29977385889896613  0.1422655022302521  1.0000
  H   H7        1.0  0.4552802904488473  0.7997722767458626  0.3577444618081316  1.0000
  H   H8        1.0  0.5447172249800474  0.7002177030311144  0.8577071247118795  1.0000
  H   H9        1.0  0.4536766115733998  0.1320098407947157  0.7705691919734079  1.0000
  H   H10       1.0  0.5462936294295062  0.3679818308463183  0.2705429171989522  1.0000
  H   H11       1.0  0.5462642184715776  0.8679855702246472  0.22946432838341477  1.0000
  H   H12       1.0  0.4536787183273816  0.6320039551459402  0.7294324281991891  1.0000
  H   H13       1.0  0.14966806643688102  0.21609998658550464  0.8410419019685307  1.0000
  H   H14       1.0  0.8503032679186404  0.2839026722924842  0.3410194330324856  1.0000
  H   H15       1.0  0.8502720795419733  0.7839098642850714  0.1589845504026641  1.0000
  H   H16       1.0  0.14966599955995724  0.7160898521496222  0.6589586308216653  1.0000
  H   H17       1.0  0.6949269766498888  0.5231088634210151  0.7173227940427651  1.0000
  H   H18       1.0  0.3050692818044213  0.9768899197608789  0.2173231601372407  1.0000
  H   H19       1.0  0.3050557101812359  0.4768990629182356  0.282672667929873  1.0000
  H   H20       1.0  0.6949386180214319  0.023110305363459798  0.7826744766002136  1.0000
  H   H21       1.0  0.7483927509578977  0.2959479301112395  0.8650627229924055  1.0000
  H   H22       1.0  0.25158980287348237  0.2040545142566472  0.3650571084836471  1.0000
  H   H23       1.0  0.2515678028814535  0.7040609587134128  0.13493926327466  1.0000
  H   H24       1.0  0.7483861383756222  0.7959428229986543  0.6349378097977834  1.0000
  H   H25       1.0  0.6324136618888475  0.4360951583175918  0.8435923574001194  1.0000
  H   H26       1.0  0.3675742771507302  0.06391122582551388  0.3435851118177524  1.0000
  H   H27       1.0  0.3675469632768796  0.5639195062850675  0.1564134347053709  1.0000
  H   H28       1.0  0.6324164385585932  0.9360947752765939  0.6564081753900766  1.0000
  H   H29       1.0  0.012315774287408522  0.5742416133217603  0.8776089411845547  1.0000
  H   H30       1.0  0.9876734240641555  0.9257570192002191  0.3775951713077532  1.0000
  H   H31       1.0  0.9876654146521632  0.4257614993786305  0.12240337521537012  1.0000
  H   H32       1.0  0.012322853325727603  0.0742335798316276  0.6223877857672235  1.0000
  H   H33       1.0  0.1416522976596184  0.43622877362444956  0.8907472390963703  1.0000
  H   H34       1.0  0.8583197906446501  0.06377048730194448  0.3907378187491943  1.0000
  H   H35       1.0  0.8583000843472135  0.5637704885750167  0.1092618151563371  1.0000
  H   H36       1.0  0.14165375477253417  0.9362191489382  0.6092511189290164  1.0000
  H   H37       1.0  0.7450713339268233  0.5114129576280746  0.9828980047231894  1.0000
  H   H38       1.0  0.2549074666244167  0.9885689651914615  0.4828847785375956  1.0000
  H   H39       1.0  0.2549000292442116  0.48858630453143803  0.0171126806031268  1.0000
  H   H40       1.0  0.7450869423520743  0.0114100820845877  0.5170987222285888  1.0000
  H   H41       1.0  0.8525705895549864  0.3649520411925593  0.9920521335020566  1.0000
  H   H42       1.0  0.1474311239584551  0.1350422569920369  0.49204162577247246  1.0000
  H   H43       1.0  0.14740287014763  0.6350539595366627  0.0079563770594504  1.0000
  H   H44       1.0  0.8525714565621031  0.8649464166162204  0.5079467682145307  1.0000
  C   C1        1.0  0.10907506183354344  0.36789681765166193  0.6758168639419537  1.0000
  C   C2        1.0  0.8909476085039714  0.1321091218503128  0.1758052688299685  1.0000
  C   C3        1.0  0.8909386847161471  0.6321111082481181  0.3241965398403721  1.0000
  C   C4        1.0  0.10907379654631912  0.8678901408418938  0.8241836688482422  1.0000
  C   C5        1.0  0.28350216452337657  0.3215281284544104  0.636308455319643  1.0000
  C   C6        1.0  0.7165131132928837  0.1784720455009108  0.1362903359132233  1.0000
  C   C7        1.0  0.7165079877998508  0.6784682454365552  0.3637158222867356  1.0000
  C   C8        1.0  0.2835131691751585  0.8215262547724861  0.8636893590145363  1.0000
  C   C9        1.0  0.40616201188282736  0.2367596146503104  0.6716190241663611  1.0000
  C   C10       1.0  0.5938438336640175  0.26324171757754294  0.1715949241567145  1.0000
  C   C11       1.0  0.5938314836375156  0.7632386843712595  0.3284117777344449  1.0000
  C   C12       1.0  0.4061666192838231  0.7367556201039137  0.8283825960062359  1.0000
  C   C13       1.0  0.3565244519981832  0.19896534706725788  0.7442664989720456  1.0000
  C   C14       1.0  0.6434608619535567  0.30102761291515623  0.24424783587442533  1.0000
  C   C15       1.0  0.6434463118248033  0.8010319894422793  0.2557588660167411  1.0000
  C   C16       1.0  0.35653541543632633  0.6989629861166903  0.7557351212005514  1.0000
  C   C17       1.0  0.18544129840950063  0.24536674247009674  0.7847437653174651  1.0000
  C   C18       1.0  0.8145474541794187  0.2546415621813765  0.2847261896022459  1.0000
  C   C19       1.0  0.8145258576773103  0.7546411831899746  0.2152794249065124  1.0000
  C   C20       1.0  0.18544311890337184  0.7453528873913413  0.7152583985463394  1.0000
  C   C21       1.0  0.06336621302427402  0.3303508943403202  0.7492070209304416  1.0000
  C   C22       1.0  0.9366311557486356  0.16965915113412677  0.24919216367123911  1.0000
  C   C23       1.0  0.9366190973898514  0.6696599194551284  0.2508080139254929  1.0000
  C   C24       1.0  0.06337936840758125  0.8303439622054898  0.7507940555509549  1.0000
  C   C25       1.0  0.831242161451236  0.4646032048648224  0.7146086875591848  1.0000
  C   C26       1.0  0.16876258003362923  0.035404684654096706  0.2146057915064361  1.0000
  C   C27       1.0  0.16875207660748973  0.5354085719087608  0.2853927550166873  1.0000
  C   C28       1.0  0.8312531205784525  0.9645984284458109  0.7853902141574025  1.0000
  C   C29       1.0  0.7951181908401139  0.395788184208044  0.845906850849758  1.0000
  C   C30       1.0  0.20487293142831936  0.1042286760484359  0.3458832945313119  1.0000
  C   C31       1.0  0.20485315823119526  0.6042332185115455  0.1541152519918114  1.0000
  C   C32       1.0  0.795122205777041  0.8957859893266331  0.6540909634844212  1.0000
  C   C33       1.0  0.9759702244324802  0.47347531398008147  0.8959710241713453  1.0000
  C   C34       1.0  0.024024942834614607  0.0265265790700866  0.3959577979857514  1.0000
  C   C35       1.0  0.02400413364319579  0.5265335745649011  0.1040423796109806  1.0000
  C   C36       1.0  0.9759742581072999  0.9734678705425779  0.6040251590892254  1.0000
  C   C37       1.0  0.9020581720142147  0.4664325804486325  0.9754385614229547  1.0000
  C   C38       1.0  0.09790368468198102  0.0335538675623326  0.4754378401350223  1.0000
  C   C39       1.0  0.09789016008044632  0.5335647566734991  0.0245617937705092  1.0000
  C   C40       1.0  0.9020668655552201  0.9664261420126792  0.524559796602432  1.0000
  C   C41       1.0  0.5531436506391502  0.3650286175458177  0.45960935815253384  1.0000
  C   C42       1.0  0.4469402014052123  0.13497112037195788  0.959605729910848  1.0000
  C   C43       1.0  0.4469169860015612  0.6349802713720578  0.5403888222761211  1.0000
  C   C44       1.0  0.5531217184661231  0.8650252541582403  0.0403924505178068  1.0000
  S   S1        1.0  0.7980292511492237  0.3266789625764943  0.4905513681860327  1.0000
  S   S2        1.0  0.2020450082819707  0.1733154089730604  0.9905471962531465  1.0000
  S   S3        1.0  0.2020244118043806  0.6733241504568213  0.5094473559338226  1.0000
  S   S4        1.0  0.7980160131638598  0.8266780776881004  0.0094482657194916  1.0000
  N   N1        1.0  0.9590894162263484  0.4518553676010697  0.6559889894728386  1.0000
  N   N2        1.0  0.0409243844103244  0.0481476924302697  0.1559866371112975  1.0000
  N   N3        1.0  0.0409254571554953  0.5481506332746449  0.3440135404854345  1.0000
  N   N4        1.0  0.959106546741026  0.9518544579844815  0.8440109996261498  1.0000
  N   N5        1.0  0.8852575375847922  0.3939407539856106  0.7719621288345735  1.0000
  N   N6        1.0  0.11472177743871732  0.10606913930365641  0.2719510774137888  1.0000
  N   N7        1.0  0.11470998971876162  0.6060739104972015  0.22804855649173558  1.0000
  N   N8        1.0  0.8852582140765721  0.8939301233885502  0.7280378602644149  1.0000
  N   N9        1.0  0.3734068563970325  0.3918041248292781  0.43946070587386293  1.0000
  N   N10       1.0  0.626686367189805  0.10820141336550651  0.9394570776321771  1.0000
  N   N11       1.0  0.6266664581854258  0.6082066893790099  0.560537474554792  1.0000
  N   N12       1.0  0.3734045878111232  0.8917939985594359  0.0605394717228691  1.0000
