data_image0
_chemical_formula_structural       Mg6H30C48O27
_chemical_formula_sum              "Mg6 H30 C48 O27"
_cell_length_a       6.8429966713508925
_cell_length_b       28.24909656491217
_cell_length_c       28.246758430293273
_cell_angle_alpha    119.36069828080198
_cell_angle_beta     94.63041863486785
_cell_angle_gamma    94.645514475995

_space_group_name_H-M_alt    "P 1"
_space_group_IT_number       1

loop_
  _space_group_symop_operation_xyz
  'x, y, z'

loop_
  _atom_site_type_symbol
  _atom_site_label
  _atom_site_symmetry_multiplicity
  _atom_site_fract_x
  _atom_site_fract_y
  _atom_site_fract_z
  _atom_site_occupancy
  Mg  Mg1       1.0  0.4973185572969642  0.3003108787331286  0.6739627626970872  1.0000
  Mg  Mg2       1.0  0.2066361396239742  0.6265234997718991  0.32664525074943646  1.0000
  Mg  Mg3       1.0  0.8234116521325279  0.3260320244030909  0.6263400389229972  1.0000
  Mg  Mg4       1.0  0.879949817479343  0.6733887850138772  0.29985186186879537  1.0000
  Mg  Mg5       1.0  0.19707866190140078  0.37365072091974144  0.6996944838693083  1.0000
  Mg  Mg6       1.0  0.5801542079626573  0.7001616335549626  0.3735255706074553  1.0000
  H   H1        1.0  0.8180877505305092  0.5625939921000978  0.166077285178666  1.0000
  H   H2        1.0  0.5004182993852668  0.6200694336437493  0.14852097297071504  1.0000
  H   H3        1.0  0.24033036863215781  0.5752252799850481  0.06561201636056076  1.0000
  H   H4        1.0  0.6114123175533736  0.5311016837830211  0.08703932481426346  1.0000
  H   H5        1.0  0.7536574183475794  0.4758704369534854  0.07621035688517007  1.0000
  H   H6        1.0  0.6190486491285725  0.5336862333681651  0.9877662353094224  1.0000
  H   H7        1.0  0.3994407572735313  0.5176424784633583  0.01205955967665767  1.0000
  H   H8        1.0  0.26842716421381146  0.40136787014992603  0.8352588761869058  1.0000
  H   H9        1.0  0.9900147877314966  0.45579671070220945  0.8550167701435712  1.0000
  H   H10       1.0  0.826175910319698  0.4875255236130656  0.9383384167319876  1.0000
  H   H11       1.0  0.6522797199556225  0.833989433516216  0.39669443409172817  1.0000
  H   H12       1.0  0.352385911926561  0.8514512167863018  0.4714556036781588  1.0000
  H   H13       1.0  0.17566363252112174  0.9344277758890697  0.5095405792892364  1.0000
  H   H14       1.0  0.5250141142368322  0.9129552889790774  0.4441824444869057  1.0000
  H   H15       1.0  0.6781092919023524  0.9238118511593357  0.39980639731746964  1.0000
  H   H16       1.0  0.6312109336621603  0.012251624451899097  0.5460596392235857  1.0000
  H   H17       1.0  0.3875237223219514  0.9878220186769866  0.5055834390142024  1.0000
  H   H18       1.0  0.4328420185766433  0.16463710461140832  0.5660945567747078  1.0000
  H   H19       1.0  0.13481096397261896  0.14502333208081103  0.6008026615005164  1.0000
  H   H20       1.0  0.887661147497113  0.061654892154976416  0.5492671592313059  1.0000
  H   H21       1.0  0.25524813208709685  0.6032851994405563  0.43720220540556204  1.0000
  H   H22       1.0  0.8802800657798217  0.5284634837268385  0.3798206350674036  1.0000
  H   H23       1.0  0.6653075570690347  0.49035318144994733  0.42465362006477386  1.0000
  H   H24       1.0  0.0804279165300343  0.5558453165510855  0.468766222472631  1.0000
  H   H25       1.0  0.27779276929182833  0.6003042570453588  0.5240230824266163  1.0000
  H   H26       1.0  0.08572969475189038  0.45402264747674786  0.46622852739433535  1.0000
  H   H27       1.0  0.8818990203333926  0.49426130289060666  0.4821992067886924  1.0000
  H   H28       1.0  0.867247807426125  0.4339811328455808  0.5986234340572948  1.0000
  H   H29       1.0  0.5346139926744442  0.39933110626964907  0.5443927379607487  1.0000
  H   H30       1.0  0.3390332146117672  0.4507756247428034  0.5124679618475056  1.0000
  C   C1        1.0  0.016480964013098332  0.5635253078412177  0.10989747989670923  1.0000
  C   C2        1.0  0.9671132275335738  0.5739945290434108  0.16079479535792976  1.0000
  C   C3        1.0  0.10814460663841885  0.6018464827164111  0.20845740862488074  1.0000
  C   C4        1.0  0.3074904531437141  0.616510116641912  0.20310923760506225  1.0000
  C   C5        1.0  0.34956418975083636  0.6067960470111514  0.15116276306567752  1.0000
  C   C6        1.0  0.20826831856722822  0.5818419865063335  0.10535307595075248  1.0000
  C   C7        1.0  0.470764305105  0.6411545265721159  0.2485752038376958  1.0000
  C   C8        1.0  0.7114344916370076  0.5033683919319432  0.06111783621015121  1.0000
  C   C9        1.0  0.5175053213695975  0.5007414168822278  0.9868480992385571  1.0000
  C   C10       1.0  0.5342444584832649  0.4473074902899583  0.8911562006053444  1.0000
  C   C11       1.0  0.4270904530105498  0.41312961999694414  0.839420606232629  1.0000
  C   C12       1.0  0.5198982909140071  0.3929079337166641  0.7919820960419415  1.0000
  C   C13       1.0  0.7287138107516072  0.40954303856496216  0.7981631005276242  1.0000
  C   C14       1.0  0.8313678291846146  0.44416623212040207  0.8512868339945214  1.0000
  C   C15       1.0  0.7394223109404692  0.4628942673340646  0.897978637617676  1.0000
  C   C16       1.0  0.8417841859946764  0.39190220006813803  0.7516535387082613  1.0000
  C   C17       1.0  0.9071368416268231  0.8901425326600503  0.4536910106842598  1.0000
  C   C18       1.0  0.8066685724263183  0.8392464538825737  0.4132979595357257  1.0000
  C   C19       1.0  0.8999111131046932  0.7915709534993383  0.393431670802201  1.0000
  C   C20       1.0  0.10459648734502751  0.7969092130778679  0.4134038321002366  1.0000
  C   C21       1.0  0.19888556292245607  0.8488567274090358  0.45558144342162177  1.0000
  C   C22       1.0  0.10357386137621945  0.8946789439132492  0.4764767280146956  1.0000
  C   C23       1.0  0.2222502803583098  0.7514290580123346  0.39256334529082454  1.0000
  C   C24       1.0  0.650930012645027  0.9388936566005838  0.4423893130645453  1.0000
  C   C25       1.0  0.5307706331713434  0.013106847876699097  0.5139766903460412  1.0000
  C   C26       1.0  0.6428792948281341  0.10880399372727821  0.5561845222376007  1.0000
  C   C27       1.0  0.5874045938470402  0.16052442099591963  0.5737036571854475  1.0000
  C   C28       1.0  0.7276833105036787  0.20798953171959061  0.6008909798248254  1.0000
  C   C29       1.0  0.9303294848820942  0.20182793644731595  0.6113504980543354  1.0000
  C   C30       1.0  0.9798868873788109  0.14871529235863082  0.5928792962034493  1.0000
  C   C31       1.0  0.8412684629458624  0.1020039669985238  0.5649493053493586  1.0000
  C   C32       1.0  0.08991011435016821  0.24834769904293813  0.6402080465831901  1.0000
  C   C33       1.0  0.4529326412048891  0.5462913386870271  0.4363568807007426  1.0000
  C   C34       1.0  0.39297547415210243  0.5866709796987166  0.4258391909812858  1.0000
  C   C35       1.0  0.5062295614888086  0.6065719705527571  0.3980778013584967  1.0000
  C   C36       1.0  0.690933346260053  0.5865959430047241  0.3834375662273573  1.0000
  C   C37       1.0  0.7427015585430751  0.5443474596408252  0.3931117072341479  1.0000
  C   C38       1.0  0.6264135781854067  0.5234577561198535  0.4180391455791295  1.0000
  C   C39       1.0  0.8296101631257645  0.6074930854794262  0.3588829301328148  1.0000
  C   C40       1.0  0.20815124661253756  0.5576864284042955  0.49652295129880747  1.0000
  C   C41       1.0  0.01692114378486308  0.4860199701673906  0.4991439041537902  1.0000
  C   C42       1.0  0.08721435211023737  0.443859843431973  0.5526931521290663  1.0000
  C   C43       1.0  0.014197006072713193  0.4263707109241325  0.5869059968172792  1.0000
  C   C44       1.0  0.12713845088184436  0.3991727740279743  0.6071837009091539  1.0000
  C   C45       1.0  0.3193857789824365  0.38874547615643706  0.5905842904356221  1.0000
  C   C46       1.0  0.3875457951449519  0.4072379327027349  0.5559695564943112  1.0000
  C   C47       1.0  0.2768727096426318  0.43512177947298614  0.5371515171082848  1.0000
  C   C48       1.0  0.4499265259613382  0.3598247005153398  0.6081715830754391  1.0000
  O   O1        1.0  0.02347919689496076  0.4110026374970488  0.7583579499967071  1.0000
  O   O2        1.0  0.7528454145219214  0.3556017392062501  0.7032614201850153  1.0000
  O   O3        1.0  0.4086640219201101  0.3592530610884949  0.7434422562126103  1.0000
  O   O4        1.0  0.6462564016551653  0.6530107409628627  0.24162589789199265  1.0000
  O   O5        1.0  0.4348982450139332  0.6498879239735801  0.2964489154607009  1.0000
  O   O6        1.0  0.04604131030843207  0.6133245797318523  0.25635111290589657  1.0000
  O   O7        1.0  0.8889785227936285  0.5358780980540133  0.062200128605624634  1.0000
  O   O8        1.0  0.6247271899809308  0.47107802630078777  0.007088235613352406  1.0000
  O   O9        1.0  0.4231952638855461  0.46387238397241487  0.9339774504786716  1.0000
  O   O10       1.0  0.26488050243787603  0.24164509903445724  0.6525968945490633  1.0000
  O   O11       1.0  0.04942612228870763  0.29673199943506756  0.6522866686631588  1.0000
  O   O12       1.0  0.6650340018188743  0.2565220932787255  0.6157773568444397  1.0000
  O   O13       1.0  0.4046847814281947  0.7583601588931546  0.4113564353603892  1.0000
  O   O14       1.0  0.13834975146164652  0.7035713964065949  0.35341426522506936  1.0000
  O   O15       1.0  0.7897545218980183  0.7436916055738152  0.35700462981926506  1.0000
  O   O16       1.0  0.8274260126795314  0.937839890385824  0.4738000856410168  1.0000
  O   O17       1.0  0.6181312206077366  0.9929028827549402  0.46412697736118963  1.0000
  O   O18       1.0  0.48909153511512937  0.0659378375356283  0.5299204197447196  1.0000
  O   O19       1.0  0.6124766940491002  0.347404988170652  0.5890679681114008  1.0000
  O   O20       1.0  0.3971314928164631  0.34767613838972994  0.644416540662661  1.0000
  O   O21       1.0  0.0493412867862659  0.38425726470571675  0.6407846045008512  1.0000
  O   O22       1.0  0.993444004123994  0.5887890779361129  0.3471347697051641  1.0000
  O   O23       1.0  0.7848769223907655  0.6466148181772696  0.3501438392846197  1.0000
  O   O24       1.0  0.4327532300266412  0.6430422650191829  0.38668567261430553  1.0000
  O   O25       1.0  0.3532603643995671  0.5262854583937441  0.4640609465004673  1.0000
  O   O26       1.0  0.15369555612427632  0.5359700117858637  0.5288227285488531  1.0000
  O   O27       1.0  0.9595255355477691  0.47002822916793  0.5360233611908924  1.0000
