data_image0
_chemical_formula_structural       Na4H16C16N32O2
_chemical_formula_sum              "Na4 H16 C16 N32 O2"
_cell_length_a       6.07145416559259
_cell_length_b       7.066683611917691
_cell_length_c       18.69813004454406
_cell_angle_alpha    93.46884750337527
_cell_angle_beta     89.99794671962347
_cell_angle_gamma    115.46063188580312

_space_group_name_H-M_alt    "P 1"
_space_group_IT_number       1

loop_
  _space_group_symop_operation_xyz
  'x, y, z'

loop_
  _atom_site_type_symbol
  _atom_site_label
  _atom_site_symmetry_multiplicity
  _atom_site_fract_x
  _atom_site_fract_y
  _atom_site_fract_z
  _atom_site_occupancy
  Na  Na1       1.0  0.07320851246380757  0.7245001970646567  0.7755288327408181  1.0000
  Na  Na2       1.0  0.3484281758265482  0.2752769311868164  0.7244909175853209  1.0000
  Na  Na3       1.0  0.926789703582486  0.2754992160532765  0.2244709626080663  1.0000
  Na  Na4       1.0  0.6515766385814956  0.7247225021755809  0.2755083434134917  1.0000
  H   H1        1.0  0.39052143452111926  0.30556728481104056  0.5662766295267332  1.0000
  H   H2        1.0  0.08536050863924768  0.6943374696957604  0.9337579714506887  1.0000
  H   H3        1.0  0.6094783902025895  0.6944320518114752  0.4337253031550858  1.0000
  H   H4        1.0  0.9146449299810798  0.3056697975421656  0.0662420361020537  1.0000
  H   H5        1.0  0.6709939437530112  0.213897702505804  0.43998329813800313  1.0000
  H   H6        1.0  0.4576982343104989  0.7860092031276695  0.06001726967923561  1.0000
  H   H7        1.0  0.3290050579345731  0.7861032813306607  0.5600165396532335  1.0000
  H   H8        1.0  0.5422926351275947  0.2139854010947886  0.9399850700255783  1.0000
  H   H9        1.0  0.04970159989105841  0.23979992225969937  0.49754178314265124  1.0000
  H   H10       1.0  0.8106248127174143  0.7602517309863828  0.0024420389429878  1.0000
  H   H11       1.0  0.9503007624387223  0.7601979017409518  0.5024585040862135  1.0000
  H   H12       1.0  0.18936934257320104  0.23974614926521545  0.9975566453030068  1.0000
  H   H13       1.0  0.5350052675995017  0.9472186615553823  0.7113108917940423  1.0000
  H   H14       1.0  0.5878134023134791  0.0527673017549546  0.7886878535344052  1.0000
  H   H15       1.0  0.4649922579598993  0.0527760780501794  0.2886877075553542  1.0000
  H   H16       1.0  0.41218161451963925  0.9472290080417879  0.2113107882652727  1.0000
  C   C1        1.0  0.7436007742179316  0.3258950246221134  0.5874988647705948  1.0000
  C   C2        1.0  0.4180732760428541  0.6740081719723604  0.9124824064281398  1.0000
  C   C3        1.0  0.25640561147269386  0.6741075501773395  0.4125004811129287  1.0000
  C   C4        1.0  0.5819265871872333  0.32599124140924823  0.0875173889167797  1.0000
  C   C5        1.0  0.31305616438324796  0.19177997003611574  0.4246752606667314  1.0000
  C   C6        1.0  0.12189655949151762  0.8081871177705435  0.0753305333996224  1.0000
  C   C7        1.0  0.6869380379287975  0.808214711472779  0.5753249416932605  1.0000
  C   C8        1.0  0.8780966679819857  0.1918154932990675  0.924667743847145  1.0000
  C   C9        1.0  0.5248264363611099  0.2326672647436681  0.46866221152307463  1.0000
  C   C10       1.0  0.2927351399630211  0.7672181838698647  0.0313377312458911  1.0000
  C   C11       1.0  0.47517963498656  0.7673445608679967  0.531342198034487  1.0000
  C   C12       1.0  0.707261314491902  0.2327842933986872  0.9686642863325189  1.0000
  C   C13       1.0  0.5401011705387333  0.2858025520867713  0.5396273081631691  1.0000
  C   C14       1.0  0.2547646243049402  0.7140942338516967  0.9603867453903375  1.0000
  C   C15       1.0  0.45989958311363205  0.7141953484092908  0.46037084173276105  1.0000
  C   C16       1.0  0.7452342918548497  0.2859098719683714  0.0396137116238009  1.0000
  N   N1        1.0  0.10195795671528168  0.19541331232247924  0.4461882349752742  1.0000
  N   N2        1.0  0.9072615182188176  0.8046276028526979  0.053794829572325405  1.0000
  N   N3        1.0  0.8980402497044225  0.8045860816056774  0.5538120947078298  1.0000
  N   N4        1.0  0.09273339383330642  0.19537179054810852  0.9462055001187012  1.0000
  N   N5        1.0  0.9553088446431702  0.31246364844611213  0.5732288289243996  1.0000
  N   N6        1.0  0.6432958360563958  0.6875430290229901  0.9267367870612375  1.0000
  N   N7        1.0  0.04469916897805611  0.6875388882374766  0.4267715856236123  1.0000
  N   N8        1.0  0.35670081833391987  0.3124532618476508  0.0732623890687094  1.0000
  N   N9        1.0  0.7425545247738868  0.3892770160695492  0.6570877519208055  1.0000
  N   N10       1.0  0.35358582342357897  0.6106311658419017  0.8429005133441905  1.0000
  N   N11       1.0  0.2574567735883306  0.6107255019516131  0.3429131969535035  1.0000
  N   N12       1.0  0.6464123167215164  0.38937138844941194  0.1570993668933625  1.0000
  N   N13       1.0  0.061891816561491474  0.11017112344895708  0.33412347840825163  1.0000
  N   N14       1.0  0.9522399914869623  0.8897463093603404  0.1658615645713652  1.0000
  N   N15       1.0  0.9381063898582128  0.8898282704792065  0.6658768512748523  1.0000
  N   N16       1.0  0.0477492222522855  0.1102515701002318  0.8341371196865168  1.0000
  N   N17       1.0  0.28806288978283595  0.13769119356128812  0.3539952114673284  1.0000
  N   N18       1.0  0.1509074020196979  0.8622371957881827  0.14601164916712153  1.0000
  N   N19       1.0  0.7119378253631582  0.8623066301756952  0.6460050757654942  1.0000
  N   N20       1.0  0.8490850109327397  0.137763786993581  0.8539881886399598  1.0000
  N   N21       1.0  0.9480346653840711  0.1441254300007841  0.3893001970821429  1.0000
  N   N22       1.0  0.8045336001139632  0.8558621533624731  0.1106641211029569  1.0000
  N   N23       1.0  0.05196361693684534  0.8558708227539922  0.6107000477122854  1.0000
  N   N24       1.0  0.1954597032607452  0.1441373165337509  0.889334071255135  1.0000
  N   N25       1.0  0.957905559361585  0.417389575599195  0.6852347656142115  1.0000
  N   N26       1.0  0.5407978703542542  0.5825427295415866  0.8147370008830066  1.0000
  N   N27       1.0  0.04210418697123699  0.5826098393644514  0.3147650297069404  1.0000
  N   N28       1.0  0.4591979224935585  0.4174551317839103  0.185262217693257  1.0000
  N   N29       1.0  0.08562188751185575  0.3705721738366634  0.6352428537304606  1.0000
  N   N30       1.0  0.7154163618295898  0.6294187093063927  0.8647175416530715  1.0000
  N   N31       1.0  0.9143862116371723  0.6294272408633149  0.36475694159464933  1.0000
  N   N32       1.0  0.2845802925607259  0.37057758156424814  0.13528163447686836  1.0000
  O   O1        1.0  0.4591009989286477  0.9999260411537136  0.7500069991813589  1.0000
  O   O2        1.0  0.5408964699827337  7.187800476770051e-05  0.2499906163882741  1.0000
