data_image0
_chemical_formula_structural       Zn8H40C72N40O32
_chemical_formula_sum              "Zn8 H40 C72 N40 O32"
_cell_length_a       14.627282092801526
_cell_length_b       14.627292571006587
_cell_length_c       18.299222592012622
_cell_angle_alpha    90.00006916794683
_cell_angle_beta     90.00011907037582
_cell_angle_gamma    90.07293853941299

_space_group_name_H-M_alt    "P 1"
_space_group_IT_number       1

loop_
  _space_group_symop_operation_xyz
  'x, y, z'

loop_
  _atom_site_type_symbol
  _atom_site_label
  _atom_site_symmetry_multiplicity
  _atom_site_fract_x
  _atom_site_fract_y
  _atom_site_fract_z
  _atom_site_occupancy
  Zn  Zn1       1.0  0.1804774549408066  0.7529811315151562  0.47009097553045354  1.0000
  Zn  Zn2       1.0  0.7529787043451394  0.1804775616797301  0.5299090372474423  1.0000
  Zn  Zn3       1.0  0.6804764120409106  0.25297758872469706  0.029907987261395902  1.0000
  Zn  Zn4       1.0  0.2529797682085402  0.6804763189685945  0.9700925719855462  1.0000
  Zn  Zn5       1.0  0.258567045621831  0.2585672113536148  8.919909789e-07  1.0000
  Zn  Zn6       1.0  0.7585696551594053  0.7585683526741748  0.49999875695770857  1.0000
  Zn  Zn7       1.0  0.1798575458526841  0.17985857182878112  0.4999985301050742  1.0000
  Zn  Zn8       1.0  0.6798567461377445  0.6798576428971046  0.9999991274243953  1.0000
  H   H1        1.0  0.12112272757216401  0.750039337337853  0.3093239841867542  1.0000
  H   H2        1.0  0.7500386677428424  0.12112415352151372  0.6906759453472944  1.0000
  H   H3        1.0  0.6211241239715761  0.2500394709481456  0.19067760603810058  1.0000
  H   H4        1.0  0.2500372773348687  0.621122652626191  0.809323962909211  1.0000
  H   H5        1.0  0.23015031392194632  0.12052444723015303  0.6630874405740598  1.0000
  H   H6        1.0  0.1205260021301982  0.2301500987257229  0.33691288638367917  1.0000
  H   H7        1.0  0.7301497857118238  0.620523955658392  0.8369118864211771  1.0000
  H   H8        1.0  0.6205243541875732  0.7301493366724331  0.16308759093516298  1.0000
  H   H9        1.0  0.1701385043485075  0.98471145391369  0.4407062220693946  1.0000
  H   H10       1.0  0.984713982330952  0.17013675606088446  0.5592940865541323  1.0000
  H   H11       1.0  0.6701409324459675  0.4847127610217257  0.0592934900060271  1.0000
  H   H12       1.0  0.4847115482434319  0.6701368162387242  0.9407062721468405  1.0000
  H   H13       1.0  0.9862379921047121  0.759425473678583  0.5374267727220285  1.0000
  H   H14       1.0  0.7594257315911577  0.9862353874312791  0.4625737789238187  1.0000
  H   H15       1.0  0.4862358594012406  0.2594250379971045  0.96257367359987  1.0000
  H   H16       1.0  0.259425260899377  0.4862356823958225  0.03742663469999741  1.0000
  H   H17       1.0  0.257494262193994  0.15159628309329776  0.7792295712261392  1.0000
  H   H18       1.0  0.1515942096200362  0.2574888355843684  0.2207681014297052  1.0000
  H   H19       1.0  0.7574907110128067  0.6515949142762455  0.7207687394509393  1.0000
  H   H20       1.0  0.6515949010032215  0.7574889469130711  0.27923026948811724  1.0000
  H   H21       1.0  0.2927480940886014  0.9382454451825456  0.9382219760721853  1.0000
  H   H22       1.0  0.9382421869343247  0.2927465094393471  0.0617778878247606  1.0000
  H   H23       1.0  0.7927457638466535  0.43824194354495927  0.5617788540250926  1.0000
  H   H24       1.0  0.4382431558682852  0.7927486360598479  0.438219916927423  1.0000
  H   H25       1.0  0.23558337516350752  0.8673423975395381  0.7143522735799833  1.0000
  H   H26       1.0  0.8673424930267188  0.23558360559487573  0.2856490585994251  1.0000
  H   H27       1.0  0.7355822722367763  0.3673433450025386  0.7856489371366777  1.0000
  H   H28       1.0  0.367343607928781  0.7355799235571967  0.21434966268492422  1.0000
  H   H29       1.0  0.8677729447453474  0.7500429592818921  0.25773882854922897  1.0000
  H   H30       1.0  0.7500407449555127  0.8677746681858809  0.7422604593130018  1.0000
  H   H31       1.0  0.367775722526126  0.25004358388641634  0.24226100018647398  1.0000
  H   H32       1.0  0.2500374177181683  0.36777323081621927  0.7577380443312264  1.0000
  H   H33       1.0  0.15185124199842903  0.7219531997331998  0.19445409010774736  1.0000
  H   H34       1.0  0.7219518766318415  0.1518538990049195  0.8055474823712033  1.0000
  H   H35       1.0  0.6518529355613155  0.22195145860330007  0.3055464333092672  1.0000
  H   H36       1.0  0.22194813811226774  0.6518542612523319  0.694453499753358  1.0000
  H   H37       1.0  0.9391302070412878  0.6863626448267512  0.034861631948473394  1.0000
  H   H38       1.0  0.6863670745791239  0.939129435313575  0.9651387591194903  1.0000
  H   H39       1.0  0.4391314840369418  0.18636565061869  0.4651366195311936  1.0000
  H   H40       1.0  0.18636248358390622  0.43913243772551896  0.5348602493652946  1.0000
  C   C1        1.0  0.1236056778017556  0.6894378263108579  0.0526381897419412  1.0000
  C   C2        1.0  0.6894396908611071  0.12360390321281053  0.9473633015436391  1.0000
  C   C3        1.0  0.6236056642242289  0.18943902567941964  0.4473628005933321  1.0000
  C   C4        1.0  0.1894389968310719  0.6236081691231662  0.5526370512803284  1.0000
  C   C5        1.0  0.2823280100409278  0.12300734125771841  0.9224362090367323  1.0000
  C   C6        1.0  0.12300580141877762  0.2823258175526817  0.0775630980170021  1.0000
  C   C7        1.0  0.7823288851263543  0.623005779842771  0.577563210100763  1.0000
  C   C8        1.0  0.6230061714146088  0.7823254610239161  0.42243470088288854  1.0000
  C   C9        1.0  0.2769315116489111  0.05189801738997351  0.8642080138791358  1.0000
  C   C10       1.0  0.051896919735824616  0.2769276624597056  0.1357906444692034  1.0000
  C   C11       1.0  0.7769277502754194  0.5518958345899563  0.6357929676899302  1.0000
  C   C12       1.0  0.5518964480245572  0.7769299473268633  0.3642059339984911  1.0000
  C   C13       1.0  0.20211917654396666  0.0045915158517289  0.6066407010540119  1.0000
  C   C14       1.0  0.0045919615493659  0.2021175449685657  0.3933588870535942  1.0000
  C   C15       1.0  0.7021187839547879  0.5045924781450141  0.8933579208771077  1.0000
  C   C16       1.0  0.504592915573177  0.7021146608674301  0.10664136410243688  1.0000
  C   C17       1.0  0.2440802116782379  0.013274093626883105  0.737805329723379  1.0000
  C   C18       1.0  0.0132744475291702  0.2440762613691589  0.2621943260574042  1.0000
  C   C19       1.0  0.7440760777809816  0.5132734681274229  0.7621955585533513  1.0000
  C   C20       1.0  0.5132743543310455  0.7440756216494724  0.2378043405668677  1.0000
  C   C21       1.0  0.004311092101048101  0.7603483180773056  0.3688242304596017  1.0000
  C   C22       1.0  0.760349267949458  0.0043093417159738995  0.6311755567562898  1.0000
  C   C23       1.0  0.5043109719318224  0.260348352694237  0.13117662211788433  1.0000
  C   C24       1.0  0.2603452832366743  0.5043099675527288  0.868823711566094  1.0000
  C   C25       1.0  0.2601192663486742  0.07893259811397259  0.7923191660010217  1.0000
  C   C26       1.0  0.0789316596916549  0.2601168995621706  0.20767950600812668  1.0000
  C   C27       1.0  0.7601177332741571  0.5789312208155336  0.7076801729646077  1.0000
  C   C28       1.0  0.5789330675594899  0.7601170348317584  0.2923192888588204  1.0000
  C   C29       1.0  0.2811483804863286  0.9591360561409914  0.8819348854333028  1.0000
  C   C30       1.0  0.9591325538543174  0.2811446704725498  0.11806389793511582  1.0000
  C   C31       1.0  0.7811455048116827  0.4591333206155782  0.6180653981207626  1.0000
  C   C32       1.0  0.4591326949362725  0.7811473905376334  0.38193283877399864  1.0000
  C   C33       1.0  0.24819674882726875  0.9200056563625482  0.7550873733101325  1.0000
  C   C34       1.0  0.9200066558814299  0.24819402755073844  0.24491349962561057  1.0000
  C   C35       1.0  0.7481941883881903  0.42000379904222757  0.7449133627684005  1.0000
  C   C36       1.0  0.42000581305051554  0.7481924473283428  0.2550847778062674  1.0000
  C   C37       1.0  0.26805940911768295  0.8937738466385027  0.8271893480025198  1.0000
  C   C38       1.0  0.893772787109917  0.26805775825881284  0.17281151642094977  1.0000
  C   C39       1.0  0.7680580290988459  0.39377325374278643  0.6728113972822599  1.0000
  C   C40       1.0  0.3937734864713249  0.7680576636438875  0.3271861883124886  1.0000
  C   C41       1.0  0.9203818292360921  0.7367232094665399  0.2171103655609485  1.0000
  C   C42       1.0  0.7367222618786968  0.9203836162192404  0.7828895212752371  1.0000
  C   C43       1.0  0.420383344641948  0.23672320501446362  0.28288899454216226  1.0000
  C   C44       1.0  0.2367181490655881  0.420382112667248  0.7171095560047931  1.0000
  C   C45       1.0  0.013617689729216004  0.7383343346902226  0.2350431349556743  1.0000
  C   C46       1.0  0.7383349786581519  0.0136194954137068  0.7649577282235497  1.0000
  C   C47       1.0  0.5136192694849839  0.23833526587633005  0.26495716620923554  1.0000
  C   C48       1.0  0.23832998665106692  0.5136171776159912  0.7350431504950875  1.0000
  C   C49       1.0  0.0793158567118653  0.7214590230047053  0.1808354161462731  1.0000
  C   C50       1.0  0.7214588146856329  0.0793168388284755  0.8191655122731304  1.0000
  C   C51       1.0  0.5793175784504855  0.22145867004921638  0.31916443552388774  1.0000
  C   C52       1.0  0.2214550420009544  0.5793171801877719  0.680834853479844  1.0000
  C   C53       1.0  0.9597209848108433  0.7007012771015939  0.09080337722772922  1.0000
  C   C54       1.0  0.7007021305717417  0.959721605111554  0.909195967570909  1.0000
  C   C55       1.0  0.4597234917536356  0.2007035211760737  0.40919546980253324  1.0000
  C   C56       1.0  0.20069837255556425  0.4597226462653978  0.5908030851816192  1.0000
  C   C57       1.0  0.8943625225645633  0.7160334376241198  0.1451411557648115  1.0000
  C   C58       1.0  0.7160330928983215  0.8943635088344026  0.8548581221835078  1.0000
  C   C59       1.0  0.39436353487496933  0.21603353969460673  0.35485759340159717  1.0000
  C   C60       1.0  0.21602810390658786  0.39436462560289  0.6451408947289109  1.0000
  C   C61       1.0  0.052322255309015006  0.703907212223811  0.10909681789508599  1.0000
  C   C62       1.0  0.7039078361405943  0.05232179848572831  0.8909035045276283  1.0000
  C   C63       1.0  0.5523234733743294  0.2039069654375894  0.39090297062047336  1.0000
  C   C64       1.0  0.20390456114052574  0.5523234009624646  0.609096258858507  1.0000
  C   C65       1.0  0.7952571566359766  0.7100811069059604  0.12529104408742603  1.0000
  C   C66       1.0  0.7100831821098337  0.7952586538108691  0.874710279361274  1.0000
  C   C67       1.0  0.29525958304866157  0.21008193079722304  0.3747091683054861  1.0000
  C   C68       1.0  0.21007539375032283  0.2952631428866469  0.6252902723835517  1.0000
  C   C69       1.0  0.2700466988560706  0.7945470513430382  0.8471846874318841  1.0000
  C   C70       1.0  0.7945465010354978  0.270044771928184  0.1528165935233829  1.0000
  C   C71       1.0  0.7700438923949593  0.2945484709782563  0.6528170597553568  1.0000
  C   C72       1.0  0.29454793420917  0.7700447118480371  0.34718258178546796  1.0000
  N   N1        1.0  0.18562603253599264  0.047898332117789315  0.5418335828014803  1.0000
  N   N2        1.0  0.04790062569101391  0.1856250722201338  0.4581660411387816  1.0000
  N   N3        1.0  0.6856257935474517  0.5479014447427346  0.9581645055071205  1.0000
  N   N4        1.0  0.5479007274920562  0.6856234521376621  0.0418342688347906  1.0000
  N   N5        1.0  0.1760620064506497  0.8974409337459763  0.5286350575725436  1.0000
  N   N6        1.0  0.8974420122642499  0.17606286841536442  0.4713656888193754  1.0000
  N   N7        1.0  0.6760647906759945  0.39744150174671244  0.9713644399721345  1.0000
  N   N8        1.0  0.3974412909609839  0.6760595774365613  0.028635759948961895  1.0000
  N   N9        1.0  0.0476328367741345  0.7606910495119339  0.4347855399595558  1.0000
  N   N10       1.0  0.7606940364947976  0.047632045070123814  0.5652153985493911  1.0000
  N   N11       1.0  0.5476332317780431  0.2606916704645102  0.0652159339564591  1.0000
  N   N12       1.0  0.2606915845581881  0.5476327798093126  0.9347855510226637  1.0000
  N   N13       1.0  0.8980353285870849  0.7686805345591454  0.4494726916198815  1.0000
  N   N14       1.0  0.7686813888209372  0.8980347853167958  0.5505272080595559  1.0000
  N   N15       1.0  0.3980362610541733  0.2686801737056896  0.0505282998685104  1.0000
  N   N16       1.0  0.268676485663967  0.39803499772419587  0.9494724494063788  1.0000
  N   N17       1.0  0.04933538189639111  0.7543609966427312  0.3054549076644832  1.0000
  N   N18       1.0  0.7543614659357302  0.0493362572696157  0.6945454781881111  1.0000
  N   N19       1.0  0.549336779016791  0.254363187116006  0.19454547021405227  1.0000
  N   N20       1.0  0.2543580118819477  0.5493354224876869  0.8054549156374192  1.0000
  N   N21       1.0  0.22385897670755384  0.04910314895793991  0.6679116498229618  1.0000
  N   N22       1.0  0.04910443237886851  0.22385521691487759  0.332088026815235  1.0000
  N   N23       1.0  0.7238563794611823  0.5491040056779894  0.8320875983564234  1.0000
  N   N24       1.0  0.5491048534718034  0.7238531065693653  0.16791068220906882  1.0000
  N   N25       1.0  0.1704942409060948  0.9774954240685148  0.4960965501367696  1.0000
  N   N26       1.0  0.9774955786487142  0.1704944788125857  0.5039037493183471  1.0000
  N   N27       1.0  0.6704965360313153  0.47749527893088844  0.0039026092093123995  1.0000
  N   N28       1.0  0.4774953494409361  0.6704912173294275  0.9960976902459534  1.0000
  N   N29       1.0  0.19405950880658196  0.9113458314931153  0.5978533207024768  1.0000
  N   N30       1.0  0.9113467708558717  0.19406015644975141  0.40214746831995996  1.0000
  N   N31       1.0  0.6940614327367385  0.4113469731030862  0.9021456745740933  1.0000
  N   N32       1.0  0.4113475875050413  0.6940576630121525  0.09785347503615328  1.0000
  N   N33       1.0  0.9780435644520794  0.7658130297899746  0.48220857597682704  1.0000
  N   N34       1.0  0.7658156694507242  0.9780430220035115  0.5177914267862461  1.0000
  N   N35       1.0  0.4780423638475568  0.26581260712979576  0.017791457501097296  1.0000
  N   N36       1.0  0.2658108514153668  0.47804260097913  0.9822088483840261  1.0000
  N   N37       1.0  0.9114458824874204  0.7665248303202719  0.3786177795527053  1.0000
  N   N38       1.0  0.7665252479124265  0.9114456314083696  0.6213821351661933  1.0000
  N   N39       1.0  0.41144630606829224  0.26652525792303555  0.12138214001534918  1.0000
  N   N40       1.0  0.2665208536409835  0.4114450553591312  0.8786180778276956  1.0000
  O   O1        1.0  0.20605954665965243  0.6710787286703809  0.07397631687823751  1.0000
  O   O2        1.0  0.6710782512645892  0.2060602392819676  0.9260247135841624  1.0000
  O   O3        1.0  0.7060622111494581  0.17108059441444823  0.42602643726829825  1.0000
  O   O4        1.0  0.17107830639265845  0.706061807213118  0.5739740467267679  1.0000
  O   O5        1.0  0.2957533783131936  0.20706881507361166  0.9023015254666189  1.0000
  O   O6        1.0  0.20706857255573402  0.29575028419333904  0.09770009774334201  1.0000
  O   O7        1.0  0.7957522529664232  0.7070672729460057  0.5976969038490835  1.0000
  O   O8        1.0  0.7070681994022081  0.7957519438433994  0.4022989515189863  1.0000
  O   O9        1.0  0.2692100536785986  0.10315836220279812  0.9889248051769498  1.0000
  O   O10       1.0  0.1031596447257357  0.2692076182270569  0.0110750042971333  1.0000
  O   O11       1.0  0.7692100843029338  0.6031553276556638  0.5110756654354205  1.0000
  O   O12       1.0  0.6031601815247285  0.7692073636796266  0.4889232944386562  1.0000
  O   O13       1.0  0.3026582571122134  0.7769166547893821  0.9122246285473777  1.0000
  O   O14       1.0  0.7769154226990621  0.3026547621481228  0.0877766724256759  1.0000
  O   O15       1.0  0.8026566607691239  0.27691661510981197  0.5877787973828886  1.0000
  O   O16       1.0  0.2769170040673358  0.8026582200425737  0.41222141064917384  1.0000
  O   O17       1.0  0.7798427828362476  0.6649092690541282  0.06486330566543329  1.0000
  O   O18       1.0  0.6649153995273663  0.7798459177625718  0.9351412156548236  1.0000
  O   O19       1.0  0.2798446742067712  0.16491086541020653  0.43513847661755284  1.0000
  O   O20       1.0  0.16490611023671425  0.27984620456120274  0.564861976054452  1.0000
  O   O21       1.0  0.1059770784856511  0.6967969196989401  0.9848040072137677  1.0000
  O   O22       1.0  0.696796773509007  0.105974909628614  0.015196923875585399  1.0000
  O   O23       1.0  0.6059732550985331  0.19679538981098696  0.515195178731055  1.0000
  O   O24       1.0  0.19679990126525837  0.6059791702216587  0.4848024735311895  1.0000
  O   O25       1.0  0.24123255983885636  0.7350061900817481  0.8037040986679785  1.0000
  O   O26       1.0  0.7350031645027569  0.24123510403686052  0.19629870363361587  1.0000
  O   O27       1.0  0.7412305491053103  0.23500699663190977  0.6962997281465845  1.0000
  O   O28       1.0  0.2350038259063751  0.7412301878966049  0.30370143473798805  1.0000
  O   O29       1.0  0.7347648981066046  0.7452580214287183  0.1644779194017261  1.0000
  O   O30       1.0  0.7452587849806422  0.734766248510333  0.8355222772746201  1.0000
  O   O31       1.0  0.23476517526481192  0.24525877361927684  0.3355222223919085  1.0000
  O   O32       1.0  0.2452510919430821  0.23477148133880385  0.6644810097650476  1.0000
