data_image0
_chemical_formula_structural       Cu2H28C18N6O8
_chemical_formula_sum              "Cu2 H28 C18 N6 O8"
_cell_length_a       7.184465557295736
_cell_length_b       7.901856187428929
_cell_length_c       11.596113892345056
_cell_angle_alpha    72.4871518031806
_cell_angle_beta     88.54691477101548
_cell_angle_gamma    66.30257658282184

_space_group_name_H-M_alt    "P 1"
_space_group_IT_number       1

loop_
  _space_group_symop_operation_xyz
  'x, y, z'

loop_
  _atom_site_type_symbol
  _atom_site_label
  _atom_site_symmetry_multiplicity
  _atom_site_fract_x
  _atom_site_fract_y
  _atom_site_fract_z
  _atom_site_occupancy
  Cu  Cu1       1.0  0.5789549529465531  0.0630465543254601  0.40403856790432263  1.0000
  Cu  Cu2       1.0  0.4210518284600511  0.936957439335664  0.595956279706286  1.0000
  H   H1        1.0  0.031855974361327796  0.0112926692904693  0.3161490020935531  1.0000
  H   H2        1.0  0.9681552670129178  0.9887011270304099  0.6838496020229314  1.0000
  H   H3        1.0  0.4702184397868905  0.39874198163774816  0.1083520725105416  1.0000
  H   H4        1.0  0.5297851350156577  0.6012503600509049  0.8916547348630104  1.0000
  H   H5        1.0  0.26495286416972164  0.12314963223845872  0.1720769064032837  1.0000
  H   H6        1.0  0.7350445835881129  0.8768470451462349  0.8279204909510582  1.0000
  H   H7        1.0  0.14619898669753434  0.3544730664961903  0.0594013234667159  1.0000
  H   H8        1.0  0.8538006257937454  0.6455250859335989  0.9405991779763881  1.0000
  H   H9        1.0  0.08294684663265883  0.2034491188459739  0.9136185171905638  1.0000
  H   H10       1.0  0.917055016759342  0.7965534086558178  0.08637844913772605  1.0000
  H   H11       1.0  0.18923092466501845  0.9701263200536018  0.024336930803158886  1.0000
  H   H12       1.0  0.8107701695304286  0.029874738525528202  0.975657766964936  1.0000
  H   H13       1.0  0.42170076604840995  0.05568695175235659  0.8653651193943759  1.0000
  H   H14       1.0  0.5783023830928185  0.9443126686383181  0.13463501300132213  1.0000
  H   H15       1.0  0.43172454370407815  0.21968464292982054  0.9362717652146414  1.0000
  H   H16       1.0  0.5682765788358423  0.7803164314973046  0.06372810295114563  1.0000
  H   H17       1.0  0.5331216314167476  0.479836094062982  0.6306149435983955  1.0000
  H   H18       1.0  0.466862991466371  0.5201678967270311  0.3693975579411841  1.0000
  H   H19       1.0  0.7945744775564308  0.3250967620706859  0.6430310013794696  1.0000
  H   H20       1.0  0.20541216720392438  0.6749057720415408  0.35698090265707094  1.0000
  H   H21       1.0  0.6434529939561172  0.2757026023289341  0.7646403133272274  1.0000
  H   H22       1.0  0.3565300905339015  0.7242984506157627  0.2353676510919769  1.0000
  H   H23       1.0  0.1798236594297933  0.5948137783377233  0.6098965267636771  1.0000
  H   H24       1.0  0.8201810044841479  0.40518876669160875  0.3901038340876539  1.0000
  H   H25       1.0  0.06997472205609516  0.4996377435318137  0.7419622003939921  1.0000
  H   H26       1.0  0.9300237144736203  0.5003662292426582  0.25803280444286963  1.0000
  H   H27       1.0  0.07359233120349974  0.42599943631450543  0.6115879798476911  1.0000
  H   H28       1.0  0.9264148664162731  0.5739972733619325  0.3884118192748716  1.0000
  C   C1        1.0  0.9161947471858056  0.12014074272485689  0.24294494937664268  1.0000
  C   C2        1.0  0.08381169068557165  0.8798545033115843  0.7570543046516319  1.0000
  C   C3        1.0  0.6333533037476542  0.3183790029945825  0.1365705841460141  1.0000
  C   C4        1.0  0.36664834479309844  0.6816177006814216  0.8634319049928934  1.0000
  C   C5        1.0  0.15016277129902278  0.20704352677866916  0.0924658364013595  1.0000
  C   C6        1.0  0.8498396039215734  0.7929546220480077  0.9075311657012008  1.0000
  C   C7        1.0  0.19975229175098258  0.11183939373135841  0.9921598914366713  1.0000
  C   C8        1.0  0.8002508337698513  0.8881602134526505  0.007835932294284486  1.0000
  C   C9        1.0  0.4129344890026728  0.0825491228599802  0.9532810790634372  1.0000
  C   C10       1.0  0.5870658690647657  0.9174504852858122  0.046717382275105  1.0000
  C   C11       1.0  0.5890625536842719  0.20761118025152567  0.6050192166718986  1.0000
  C   C12       1.0  0.4109164728790443  0.792392778124736  0.39498735755454106  1.0000
  C   C13       1.0  0.6448850830575807  0.3274012719607953  0.6659540249377329  1.0000
  C   C14       1.0  0.35510154280646583  0.6726012515861155  0.334054432167008  1.0000
  C   C15       1.0  0.852082825563059  0.7162175319156747  0.5900543235834519  1.0000
  C   C16       1.0  0.14792042391767515  0.2837849964259007  0.4099417548075123  1.0000
  C   C17       1.0  0.05745895044745444  0.5494190620345094  0.6424309254171732  1.0000
  C   C18       1.0  0.9425477211714932  0.45058201839304973  0.35756625273226916  1.0000
  N   N1        1.0  0.7147213521403728  0.17695041945808757  0.24591850392926767  1.0000
  N   N2        1.0  0.2852844782869751  0.823046299943897  0.7540856300624128  1.0000
  N   N3        1.0  0.9534524654372234  0.22282116355567183  0.13632748957535062  1.0000
  N   N4        1.0  0.04655054557186819  0.7771755277534497  0.863669802961489  1.0000
  N   N5        1.0  0.7734267926895485  0.35082878640250204  0.06658867589475652  1.0000
  N   N6        1.0  0.22657129558086098  0.6491664361059577  0.9334098736268216  1.0000
  O   O1        1.0  0.6385789960352782  0.2157721188993307  0.4976990052875366  1.0000
  O   O2        1.0  0.36142214540095075  0.7842289660931173  0.502304309810043  1.0000
  O   O3        1.0  0.49688862124710914  0.10670063126889318  0.6649898794143211  1.0000
  O   O4        1.0  0.5030920015321102  0.8933091491316034  0.3350094223312254  1.0000
  O   O5        1.0  0.8415772780502094  0.8321946492499921  0.4838629702709837  1.0000
  O   O6        1.0  0.15843555481586688  0.1678049664537937  0.5161274996316507  1.0000
  O   O7        1.0  0.7044218997606391  0.7277477338345265  0.6552183440839414  1.0000
  O   O8        1.0  0.2955877872314971  0.2722591879463678  0.3447767057779245  1.0000
