data_image0
_chemical_formula_structural       Zn8H16C84O50F8
_chemical_formula_sum              "Zn8 H16 C84 O50 F8"
_cell_length_a       20.931077561719142
_cell_length_b       20.94632704824445
_cell_length_c       20.946308959798287
_cell_angle_alpha    103.22154910501872
_cell_angle_beta     112.51996198617977
_cell_angle_gamma    112.51996249733934

_space_group_name_H-M_alt    "P 1"
_space_group_IT_number       1

loop_
  _space_group_symop_operation_xyz
  'x, y, z'

loop_
  _atom_site_type_symbol
  _atom_site_label
  _atom_site_symmetry_multiplicity
  _atom_site_fract_x
  _atom_site_fract_y
  _atom_site_fract_z
  _atom_site_occupancy
  Zn  Zn1       1.0  0.5670750077899315  0.2754299125651799  0.7025218906987475  1.0000
  Zn  Zn2       1.0  0.5684123480542383  0.8644971714463312  0.2930963975973384  1.0000
  Zn  Zn3       1.0  0.5694311115604478  0.2957652692174407  0.8611693208387263  1.0000
  Zn  Zn4       1.0  0.4315855460864173  0.7069011014384048  0.13550142349443206  1.0000
  Zn  Zn5       1.0  0.4305663816002648  0.1388284602753487  0.7042321820242063  1.0000
  Zn  Zn6       1.0  0.42774941095258606  0.7226016195838341  0.28831005769925594  1.0000
  Zn  Zn7       1.0  0.4329236038157305  0.29747746704657624  0.7245689278214511  1.0000
  Zn  Zn8       1.0  0.5722481005088439  0.7116886535115938  0.27739680531580996  1.0000
  H   H1        1.0  0.3945557295764316  0.5319982484314635  0.9634637192379497  1.0000
  H   H2        1.0  0.910876219722553  0.7781408848905544  0.48553492821657307  1.0000
  H   H3        1.0  0.9400911350056731  0.4573426918362387  0.8046931239049256  1.0000
  H   H4        1.0  0.0891232764953642  0.5144662675663484  0.22185712522138343  1.0000
  H   H5        1.0  0.059909877821951306  0.19531189789915265  0.5426560047882701  1.0000
  H   H6        1.0  0.2834435609117137  0.5029992217222273  0.61501904610909  1.0000
  H   H7        1.0  0.6863328361614904  0.5841277607977845  0.4478677478805223  1.0000
  H   H8        1.0  0.7165580437219959  0.38498731246821916  0.49700982970589525  1.0000
  H   H9        1.0  0.6074222568966406  0.46720551579446135  0.04260551689856127  1.0000
  H   H10       1.0  0.31366463354931534  0.5521317154708001  0.4158720287038732  1.0000
  H   H11       1.0  0.5254211121381546  0.6151440935052009  0.8748397590541755  1.0000
  H   H12       1.0  0.46572549526788987  0.37324839136248045  0.12629463434595317  1.0000
  H   H13       1.0  0.4745770985773561  0.12516500293319407  0.38485986154330465  1.0000
  H   H14       1.0  0.534274070357256  0.8737046966252394  0.6267507593409005  1.0000
  H   H15       1.0  0.605441718469521  0.0365361153678592  0.4679993579197371  1.0000
  H   H16       1.0  0.3925781942277384  0.9573937160843047  0.5327949952326491  1.0000
  C   C1        1.0  0.5000006063747692  0.14214169691214812  0.8578566460092387  1.0000
  C   C2        1.0  0.6833777105345149  0.5824927141442516  0.2935476709346857  1.0000
  C   C3        1.0  0.5017431860735259  0.6139872434139166  0.11217887757785408  1.0000
  C   C4        1.0  0.4970200099757634  0.10809331324903582  0.6099078212898235  1.0000
  C   C5        1.0  0.4982563408422465  0.8878210347386712  0.38601070170750496  1.0000
  C   C6        1.0  0.5029795536784009  0.3900920781973981  0.8919067929571937  1.0000
  C   C7        1.0  0.2818258808109562  0.14621521459562106  0.6402136308098887  1.0000
  C   C8        1.0  0.7209891286174184  0.8641799197533616  0.35774010363788716  1.0000
  C   C9        1.0  0.7181741620315307  0.3597861373977551  0.8537818489463261  1.0000
  C   C10       1.0  0.27900926092346623  0.642259171666254  0.13582038805616753  1.0000
  C   C11       1.0  0.7073612115999097  0.28779306212463507  0.5950883996883077  1.0000
  C   C12       1.0  0.8053543272377441  0.403916758600822  0.8969860674490204  1.0000
  C   C13       1.0  0.1917377929680982  0.5986090495099818  0.09094117479695298  1.0000
  C   C14       1.0  0.19464487291501342  0.10300892368064041  0.5960855251535688  1.0000
  C   C15       1.0  0.8082605208008999  0.9090563413674674  0.4013914300416061  1.0000
  C   C16       1.0  0.31662140738423256  0.7064510161712221  0.4175059714529466  1.0000
  C   C17       1.0  0.8797413281548714  0.44155847733174625  0.9345146935222528  1.0000
  C   C18       1.0  0.11732895930923341  0.5612052979976169  0.0532038968774556  1.0000
  C   C19       1.0  0.1202565911952078  0.0654820374236778  0.5584422331159258  1.0000
  C   C20       1.0  0.8826706264583424  0.9467925191188872  0.4388016453702761  1.0000
  C   C21       1.0  0.9610682744710317  0.48260480831885405  0.9748750629603574  1.0000
  C   C22       1.0  0.2926412222588368  0.40491626283719034  0.7122085260641737  1.0000
  C   C23       1.0  0.035978466937684896  0.5202890879385221  0.012239591422392806  1.0000
  C   C24       1.0  0.03893059957325561  0.025123506352279903  0.5173983666007229  1.0000
  C   C25       1.0  0.9640198690540701  0.9877534909273256  0.4797148589197489  1.0000
  C   C26       1.0  0.5000004540218513  0.4049317381940511  0.59507297944031  1.0000
  C   C27       1.0  0.4999972050050587  0.5987770443672745  0.4012183198637587  1.0000
  C   C28       1.0  0.500001024845254  0.4422554120674036  0.55774943885293  1.0000
  C   C29       1.0  0.499999545631006  0.5614189051481588  0.4385768023271908  1.0000
  C   C30       1.0  0.14976011811911152  0.2940504883072421  0.6169433923995982  1.0000
  C   C31       1.0  0.83019615180622  0.6828886639435084  0.39878048208788625  1.0000
  C   C32       1.0  0.8502407962245897  0.38305442653938115  0.7059528684138169  1.0000
  C   C33       1.0  0.16980408672012004  0.6012204673894743  0.317111553608484  1.0000
  C   C34       1.0  0.2892502068838923  0.4277133346665139  0.6479890609395723  1.0000
  C   C35       1.0  0.6672980304164469  0.552078145509725  0.3471980963372871  1.0000
  C   C36       1.0  0.7107538358092355  0.3520137725406016  0.5722947284627151  1.0000
  C   C37       1.0  0.3327004897528241  0.6528004837170229  0.4479213953973085  1.0000
  C   C38       1.0  0.4335331523200524  0.5178955333609141  0.7993457936033508  1.0000
  C   C39       1.0  0.5380125375231088  0.4799745645396101  0.18971865783645814  1.0000
  C   C40       1.0  0.56646764344368  0.20065751287710754  0.4821076658765405  1.0000
  C   C41       1.0  0.4619874809254299  0.8102792887070296  0.5200255079000227  1.0000
  C   C42       1.0  0.3627461953155375  0.44878778598622665  0.7863185293614874  1.0000
  C   C43       1.0  0.62068564918075  0.5448164632016274  0.21618430016886234  1.0000
  C   C44       1.0  0.6372551479714941  0.21368356721088588  0.5512145433057892  1.0000
  C   C45       1.0  0.4999986574051078  0.8608580308242111  0.1391406369389117  1.0000
  C   C46       1.0  0.3793131097389378  0.7838145711299874  0.4551820000887047  1.0000
  C   C47       1.0  0.3678206724409918  0.4235294926941934  0.8442625710515511  1.0000
  C   C48       1.0  0.6304554759177067  0.5718632454159406  0.16303669088708259  1.0000
  C   C49       1.0  0.6321796982225437  0.15573733437808102  0.576470459216047  1.0000
  C   C50       1.0  0.3695447797032473  0.83696337892075  0.4281375028551223  1.0000
  C   C51       1.0  0.30144250233625064  0.3551857625387386  0.8254337319989842  1.0000
  C   C52       1.0  0.7050176457805291  0.6357412907430913  0.1891556245158979  1.0000
  C   C53       1.0  0.6985578089543552  0.1745620403488104  0.6448107716341837  1.0000
  C   C54       1.0  0.2949821100693769  0.810844188197649  0.3642587795284269  1.0000
  C   C55       1.0  0.231630987572963  0.3117940151321578  0.7521841379776575  1.0000
  C   C56       1.0  0.7680813506487286  0.6731109374337554  0.26585615378586885  1.0000
  C   C57       1.0  0.7683696955883406  0.24781054315497644  0.6882031121607709  1.0000
  C   C58       1.0  0.23191805649398126  0.7341437656292412  0.3268887883174329  1.0000
  C   C59       1.0  0.22582922535676886  0.3360479965574541  0.6944234780582902  1.0000
  C   C60       1.0  0.4999979669173272  0.48304442094094935  0.516951867338818  1.0000
  C   C61       1.0  0.7583904660020765  0.6473164002396601  0.3190720825971737  1.0000
  C   C62       1.0  0.7741713261653445  0.3055732637933133  0.663953551313959  1.0000
  C   C63       1.0  0.2416088047454182  0.6809282625926657  0.35268293486328156  1.0000
  C   C64       1.0  0.4410792988782291  0.5172842437165175  0.9802291070725173  1.0000
  C   C65       1.0  0.5612711746179713  0.48241759106079485  0.025751652673591387  1.0000
  C   C66       1.0  0.5589185836682233  0.0197709177349168  0.4827143166815019  1.0000
  C   C67       1.0  0.49999915479345  0.520617268832183  0.47938215103996373  1.0000
  C   C68       1.0  0.43872827677154197  0.9742481718241507  0.5175827197968487  1.0000
  C   C69       1.0  0.5027933269648488  0.5545826928073085  0.0577044361903631  1.0000
  C   C70       1.0  0.5002663098620701  0.4462256805776975  0.9479694317893104  1.0000
  C   C71       1.0  0.4972055971378567  0.9422956795102237  0.44541515696534617  1.0000
  C   C72       1.0  0.49973303698328664  0.05203032592062581  0.5537740199081396  1.0000
  C   C73       1.0  0.5636511848971253  0.5362379402371504  0.0813545608379016  1.0000
  C   C74       1.0  0.4387814819050035  0.46361505572285494  0.924645453733177  1.0000
  C   C75       1.0  0.4363492274051096  0.9186451938054391  0.4637623625148278  1.0000
  C   C76       1.0  0.5612170870973685  0.07535477278033652  0.5363842518350239  1.0000
  C   C77       1.0  0.49999882076530616  0.36122677997692426  0.6387726037528265  1.0000
  C   C78       1.0  0.49999877468464154  0.6424837091929874  0.3575133241285116  1.0000
  C   C79       1.0  0.500004318624903  0.0984057320327381  0.90159483559038  1.0000
  C   C80       1.0  0.4999982619051266  0.9046100533457351  0.09538774857731616  1.0000
  C   C81       1.0  0.5000019553279884  0.061075187709860826  0.9389266493095999  1.0000
  C   C82       1.0  0.4999980903244889  0.9419480921173503  0.05805138309607114  1.0000
  C   C83       1.0  0.5000023542628114  0.020297075888159103  0.9797065379264321  1.0000
  C   C84       1.0  0.5000004986588708  0.9827376846315377  0.01726416779725056  1.0000
  O   O1        1.0  0.499999202892603  0.2512651397808768  0.7487338131042517  1.0000
  O   O2        1.0  0.4550869923644002  0.7878692168699787  0.10017107010887122  1.0000
  O   O3        1.0  0.4793045973637718  0.8580320874557047  0.5880685818094165  1.0000
  O   O4        1.0  0.4485573833452604  0.10392998492958584  0.7856214294592615  1.0000
  O   O5        1.0  0.5449107832535205  0.8998271811584999  0.21212877022674076  1.0000
  O   O6        1.0  0.543318583435024  0.3311451973741057  0.6429394570980447  1.0000
  O   O7        1.0  0.4429459772793081  0.6564872960413412  0.3373596636603508  1.0000
  O   O8        1.0  0.45667949863642576  0.35705906072124804  0.668855522926769  1.0000
  O   O9        1.0  0.5570510076154492  0.6626369990851232  0.3435110499531361  1.0000
  O   O10       1.0  0.49999949487384754  0.7519355372949122  0.24806380732953667  1.0000
  O   O11       1.0  0.4477391218486843  0.0803902658802045  0.6315554081450043  1.0000
  O   O12       1.0  0.5537045283887212  0.9172895827169756  0.3714890969209322  1.0000
  O   O13       1.0  0.5522609090898527  0.36844492323862715  0.9196100771711284  1.0000
  O   O14       1.0  0.4462938338952398  0.6285072533545915  0.08270998894217023  1.0000
  O   O15       1.0  0.456183189563923  0.36884466623511974  0.820795526644886  1.0000
  O   O16       1.0  0.5564345563471277  0.6458833255085351  0.18298926237396518  1.0000
  O   O17       1.0  0.5438174401282012  0.17920359879609293  0.6311553167569881  1.0000
  O   O18       1.0  0.44356680536940024  0.8170121373329237  0.35411778647708986  1.0000
  O   O19       1.0  0.31533747261773476  0.10654663308759639  0.6470777512253318  1.0000
  O   O20       1.0  0.6853761905735567  0.9016823183849568  0.34627345898329037  1.0000
  O   O21       1.0  0.6846614597294689  0.35291880870877895  0.8934492623458323  1.0000
  O   O22       1.0  0.314622433458922  0.6537246031920105  0.09831677668850598  1.0000
  O   O23       1.0  0.3163215694178376  0.21934355293462462  0.6677734377092078  1.0000
  O   O24       1.0  0.6885415689760848  0.7917146693084264  0.3351452019779869  1.0000
  O   O25       1.0  0.683678009976319  0.3322263200374493  0.7806534730897281  1.0000
  O   O26       1.0  0.31145538860705824  0.6648535010436378  0.20828427874026534  1.0000
  O   O27       1.0  0.5514423268880934  0.21437767270747093  0.8960686725195469  1.0000
  O   O28       1.0  0.12701969411980948  0.32575521393672363  0.5792345390060019  1.0000
  O   O29       1.0  0.10838659614008611  0.21691974242068573  0.5931978923063352  1.0000
  O   O30       1.0  0.8563985421601145  0.6466516429840327  0.4261149380894834  1.0000
  O   O31       1.0  0.8633801068575764  0.7597430970342957  0.4353516410309266  1.0000
  O   O32       1.0  0.8729813825416671  0.4207640191900595  0.6742490237896844  1.0000
  O   O33       1.0  0.8916146965115387  0.40679952370166467  0.7830835755922148  1.0000
  O   O34       1.0  0.14360010045362512  0.5738841998932855  0.35334679950466336  1.0000
  O   O35       1.0  0.13661938514244557  0.5646492672744188  0.24025636343297652  1.0000
  O   O36       1.0  0.290150430152501  0.3916636694400851  0.5942231381909976  1.0000
  O   O37       1.0  0.284200732109028  0.49134204134383463  0.6579703151873131  1.0000
  O   O38       1.0  0.6271694132124565  0.4837668381578624  0.329485008156034  1.0000
  O   O39       1.0  0.6998675878237889  0.6090958644553127  0.4168018059112553  1.0000
  O   O40       1.0  0.7098506996625886  0.40577713938677823  0.608344762328322  1.0000
  O   O41       1.0  0.7157993977743828  0.3420336777903686  0.5086640026829768  1.0000
  O   O42       1.0  0.3728289219071004  0.6705146230650245  0.516233158954627  1.0000
  O   O43       1.0  0.300132084600719  0.5831976233751635  0.3909036456760048  1.0000
  O   O44       1.0  0.4483915594773721  0.5248355024823753  0.7495970302764474  1.0000
  O   O45       1.0  0.48112169436480906  0.573779696491201  0.8733514849857683  1.0000
  O   O46       1.0  0.4907703822553842  0.4883682468267949  0.20583393430270283  1.0000
  O   O47       1.0  0.5206960536006378  0.4119303072225123  0.14196819356163795  1.0000
  O   O48       1.0  0.5516095670383763  0.2504066357267973  0.4751679062209247  1.0000
  O   O49       1.0  0.5188768394819336  0.12665205157079384  0.4262225497326425  1.0000
  O   O50       1.0  0.5092276124054962  0.79416091497027  0.511632238233872  1.0000
  F   F1        1.0  0.30418360837411035  0.32800152453177844  0.8787409331966244  1.0000
  F   F2        1.0  0.8392496664195619  0.7337177278225654  0.286552828245604  1.0000
  F   F3        1.0  0.8297278373979895  0.25943558510532944  0.752623214978527  1.0000
  F   F4        1.0  0.16075050970712115  0.7134476022024785  0.2662816500390405  1.0000
  F   F5        1.0  0.17027490468152004  0.24737466461782284  0.7405613947142554  1.0000
  F   F6        1.0  0.7167984960281757  0.6642788559629552  0.14017572419691499  1.0000
  F   F7        1.0  0.6958161773966012  0.12125270588087032  0.671991214270946  1.0000
  F   F8        1.0  0.28320121553329614  0.8598233910608643  0.33572078219598467  1.0000
