data_image0
_chemical_formula_structural       Zn8H44C76O26
_chemical_formula_sum              "Zn8 H44 C76 O26"
_cell_length_a       15.109349430403185
_cell_length_b       20.11860569800286
_cell_length_c       22.546381464037843
_cell_angle_alpha    90.32037363623058
_cell_angle_beta     89.5341577988635
_cell_angle_gamma    89.47918861515174

_space_group_name_H-M_alt    "P 1"
_space_group_IT_number       1

loop_
  _space_group_symop_operation_xyz
  'x, y, z'

loop_
  _atom_site_type_symbol
  _atom_site_label
  _atom_site_symmetry_multiplicity
  _atom_site_fract_x
  _atom_site_fract_y
  _atom_site_fract_z
  _atom_site_occupancy
  Zn  Zn1       1.0  0.5641493030465766  0.5824249445284265  0.004034360266594199  1.0000
  Zn  Zn2       1.0  0.563262813352111  0.0817842811518972  0.4955617703136212  1.0000
  Zn  Zn3       1.0  0.5823957446385889  0.42311220582170245  0.00025021321338410064  1.0000
  Zn  Zn4       1.0  0.5806057913308322  0.921938549838252  0.5001391373467853  1.0000
  Zn  Zn5       1.0  0.42577108953401677  0.4980360113835972  0.9286550269650744  1.0000
  Zn  Zn6       1.0  0.4211645687519265  0.4926662347341733  0.0689873466914719  1.0000
  Zn  Zn7       1.0  0.41724343354962906  0.9961879015329701  0.43331558795298253  1.0000
  Zn  Zn8       1.0  0.43004372631863663  0.9938960510370051  0.5748162085326456  1.0000
  H   H1        1.0  0.46082067988250236  0.38197453151267513  0.777098786095564  1.0000
  H   H2        1.0  0.14412520689460714  0.04523724240414851  0.4407106747229078  1.0000
  H   H3        1.0  0.5556964263878185  0.23940087207404293  0.9034703342272932  1.0000
  H   H4        1.0  0.6716038954217113  0.31315273114145736  0.15152471023851175  1.0000
  H   H5        1.0  0.6621174095438604  0.8144982371712356  0.3477027184213739  1.0000
  H   H6        1.0  0.5623979290719491  0.7369386879924349  0.5968887875028698  1.0000
  H   H7        1.0  0.44635589102789197  0.34917406378096416  0.6705143086389285  1.0000
  H   H8        1.0  0.3233969736289525  0.2705114161460144  0.2689058918937164  1.0000
  H   H9        1.0  0.31479975293892437  0.7675715202204927  0.23333692046863763  1.0000
  H   H10       1.0  0.4508493896143478  0.8486135897310446  0.8309211592116128  1.0000
  H   H11       1.0  0.6784280260199438  0.7338716269054186  0.2638395334325735  1.0000
  H   H12       1.0  0.39553006401282437  0.3412394320476507  0.19273055042936693  1.0000
  H   H13       1.0  0.5578976233738331  0.6481082356878645  0.6735684634164087  1.0000
  H   H14       1.0  0.5526265373833185  0.1500968053717955  0.826396669077539  1.0000
  H   H15       1.0  0.6862992521461493  0.23222343735988463  0.23438593644482345  1.0000
  H   H16       1.0  0.32877785001883103  0.6793641053306273  0.1556454593124386  1.0000
  H   H17       1.0  0.45632504764358117  0.7613984108490752  0.9090103744689272  1.0000
  H   H18       1.0  0.45395231457176516  0.26153760170065254  0.5920895563146757  1.0000
  H   H19       1.0  0.3349703847060254  0.1816308415517724  0.34532839299244233  1.0000
  H   H20       1.0  0.6106577949906581  0.6706760363212679  0.18066284674974745  1.0000
  H   H21       1.0  0.5247719174810115  0.6133785511488697  0.777620579344955  1.0000
  H   H22       1.0  0.5194014001159034  0.11444354966557307  0.7228868206019212  1.0000
  H   H23       1.0  0.38514541545011827  0.838822850800923  0.3103754400943116  1.0000
  H   H24       1.0  0.6168318582750631  0.16983474760441203  0.3181131403797224  1.0000
  H   H25       1.0  0.8517287688643405  0.44524136383090956  0.0442931673649909  1.0000
  H   H26       1.0  0.8508064707117812  0.9437955437439952  0.5591451574887073  1.0000
  H   H27       1.0  0.9999135035126444  0.40927894792136493  0.08153165263397  1.0000
  H   H28       1.0  0.9988938057482244  0.9089242882275812  0.5974235890262418  1.0000
  H   H29       1.0  0.9169507027885117  0.6776748087668665  0.86439907188538  1.0000
  H   H30       1.0  0.9001654830673685  0.6084650455722667  0.8165914517965616  1.0000
  H   H31       1.0  0.8200085136137999  0.6734086867106583  0.8210497121112751  1.0000
  H   H32       1.0  0.7635334163796087  0.5783803275671743  0.8776420209758766  1.0000
  H   H33       1.0  0.7836331192168587  0.6444998656503459  0.9256002534208106  1.0000
  H   H34       1.0  0.4695817778270309  0.8809874558005006  0.7249583321591826  1.0000
  H   H35       1.0  0.9160115419246111  0.16983524398422387  0.37228295586348276  1.0000
  H   H36       1.0  0.8983287171785435  0.0991973857623947  0.326290535164425  1.0000
  H   H37       1.0  0.8183888817128419  0.16433992041539366  0.32982899259823023  1.0000
  H   H38       1.0  0.762654633293671  0.0710839045798082  0.3890230698023841  1.0000
  H   H39       1.0  0.7829729025434489  0.1388410997945257  0.43491892308333746  1.0000
  H   H40       1.0  0.9976312692753526  0.5925067992775865  0.8976346457962235  1.0000
  H   H41       1.0  0.9971535386518652  0.0855602346143272  0.40831641748346925  1.0000
  H   H42       1.0  0.16447143403854622  0.41456681796613987  0.07392830418444157  1.0000
  H   H43       1.0  0.1635892418628941  0.9164170863351442  0.5918052206407365  1.0000
  H   H44       1.0  0.144762292471718  0.5502311815775867  0.9277723780903384  1.0000
  C   C1        1.0  0.523594346887684  0.3810881023657871  0.11915967028930648  1.0000
  C   C2        1.0  0.4633469772498771  0.26809446204340037  0.24691543830202525  1.0000
  C   C3        1.0  0.45466579031642596  0.7669063689032924  0.2542953305460287  1.0000
  C   C4        1.0  0.49016965782066535  0.7815209313326862  0.7596268378898187  1.0000
  C   C5        1.0  0.4817441597607298  0.3312777271617763  0.7871071342290675  1.0000
  C   C6        1.0  0.4584762708189416  0.31659175250728566  0.20194167051682396  1.0000
  C   C7        1.0  0.4486660746954457  0.8151143251221029  0.30006511061102964  1.0000
  C   C8        1.0  0.4896892571346144  0.8300283791043058  0.7145429307901167  1.0000
  C   C9        1.0  0.5346213765532966  0.25003212994488416  0.8583868912581138  1.0000
  C   C10       1.0  0.6149703508603183  0.30063465033681774  0.17937019030683385  1.0000
  C   C11       1.0  0.6056766000447523  0.8012426930613333  0.32044977293889326  1.0000
  C   C12       1.0  0.5047962014019802  0.3686569218767133  0.8910146589008645  1.0000
  C   C13       1.0  0.5416170926940111  0.7480298357913782  0.6422819897138154  1.0000
  C   C14       1.0  0.5333169642010916  0.20099383121016254  0.8156072732939703  1.0000
  C   C15       1.0  0.622582084351187  0.25569981037807565  0.22487454382177666  1.0000
  C   C16       1.0  0.6142241228556172  0.7564887845320527  0.2743914402394907  1.0000
  C   C17       1.0  0.5393997377475799  0.6992378295565942  0.6848269688887567  1.0000
  C   C18       1.0  0.8333339043488978  0.518984383303092  0.9774334074535885  1.0000
  C   C19       1.0  0.832864934870983  0.0155638000530445  0.49068358755149427  1.0000
  C   C20       1.0  0.16346279124628177  0.4823881527809419  0.9996767892397782  1.0000
  C   C21       1.0  0.16253081149211107  0.9813118939252945  0.5154598948219017  1.0000
  C   C22       1.0  0.03176315297763921  0.44051756368352085  0.048330754442226  1.0000
  C   C23       1.0  0.5144158817259239  0.8672903121104342  0.6111281234139838  1.0000
  C   C24       1.0  0.030921665840466496  0.9396169349564473  0.5638962205454447  1.0000
  C   C25       1.0  0.12248395487310401  0.4428846851307002  0.044029153367461  1.0000
  C   C26       1.0  0.1217495215160795  0.9431425979703081  0.5606627260103991  1.0000
  C   C27       1.0  0.1123749698816496  0.5200288178893047  0.9614665746489806  1.0000
  C   C28       1.0  0.11155387758725509  0.016492227970559294  0.475346836511818  1.0000
  C   C29       1.0  0.489394625779866  0.6295411415928243  0.8933615947612522  1.0000
  C   C30       1.0  0.47947090711628704  0.6200233982729414  0.11543709558784337  1.0000
  C   C31       1.0  0.4836243392397321  0.12085325255831951  0.3838396173567986  1.0000
  C   C32       1.0  0.4861018334816123  0.1293898100310926  0.6073841973866364  1.0000
  C   C33       1.0  0.018918924829911497  0.5207675322419334  0.9666934116754291  1.0000
  C   C34       1.0  0.5137249090858232  0.8802402625220437  0.3829741436896654  1.0000
  C   C35       1.0  0.018151007084924203  0.016797364066690097  0.4798492998479418  1.0000
  C   C36       1.0  0.9778718984167013  0.4792489817816301  0.010201038274693998  1.0000
  C   C37       1.0  0.977163346270231  0.9765665560990513  0.5243186761352944  1.0000
  C   C38       1.0  0.8845112797438545  0.47838381974896294  0.013070121760137002  1.0000
  C   C39       1.0  0.8838172303055741  0.9757985919351312  0.5271147837264962  1.0000
  C   C40       1.0  0.8733908146614908  0.5629941615641343  0.9353535229573707  1.0000
  C   C41       1.0  0.8728241868145046  0.0577897565746142  0.4470233301206647  1.0000
  C   C42       1.0  0.9646923770441163  0.5614262816285847  0.9303968694915098  1.0000
  C   C43       1.0  0.9640760537314038  0.055823679419511094  0.44202453970562056  1.0000
  C   C44       1.0  0.7350965620785957  0.5143164751466146  0.985452951995029  1.0000
  C   C45       1.0  0.539617778154131  0.7379362550005836  0.24027233146922808  1.0000
  C   C46       1.0  0.7347448842828471  0.012091371279154798  0.4993033708779321  1.0000
  C   C47       1.0  0.2619509476792813  0.48489155885196306  0.9966195737947601  1.0000
  C   C48       1.0  0.2608338793977509  0.9847695592673418  0.5112116476335515  1.0000
  C   C49       1.0  0.5068059772464225  0.31566708500776736  0.8443746379181787  1.0000
  C   C50       1.0  0.5323531901435032  0.3322195663300107  0.16828492019853059  1.0000
  C   C51       1.0  0.5223050727490205  0.8316230173615367  0.3330152601457356  1.0000
  C   C52       1.0  0.5152671625757818  0.8140807881402381  0.6569967805510756  1.0000
  C   C53       1.0  0.4712345294492549  0.6708191010623777  0.16357141149730128  1.0000
  C   C54       1.0  0.4901325805951231  0.6822430756264879  0.8470555562587876  1.0000
  C   C55       1.0  0.48591957021828586  0.18266884482568455  0.6537064574174138  1.0000
  C   C56       1.0  0.5137070907294615  0.7142330761611148  0.7442626426136556  1.0000
  C   C57       1.0  0.4772983785191797  0.17165695969691802  0.3361833809135248  1.0000
  C   C58       1.0  0.3792057289061006  0.7455330565625218  0.22239988875259087  1.0000
  C   C59       1.0  0.4685836462956985  0.7973516855437095  0.8195865335044556  1.0000
  C   C60       1.0  0.46387261865044144  0.2980142926857853  0.6816777218623996  1.0000
  C   C61       1.0  0.38719435240600575  0.24758362092357086  0.27909750740088407  1.0000
  C   C62       1.0  0.38669413669377656  0.6972559419729123  0.17913896600663287  1.0000
  C   C63       1.0  0.4707775970745302  0.7492771815961773  0.862742642336549  1.0000
  C   C64       1.0  0.4671967131954773  0.24962858086249884  0.638284884474359  1.0000
  C   C65       1.0  0.39337092196910106  0.1990481662791409  0.3216196292909288  1.0000
  C   C66       1.0  0.5461583795232912  0.6914301502089231  0.19316107201048982  1.0000
  C   C67       1.0  0.5078124292685047  0.2155436884628301  0.7565109034872961  1.0000
  C   C68       1.0  0.5103063530462748  0.6651688314059  0.7888884386084598  1.0000
  C   C69       1.0  0.5050653066560429  0.16610920586729355  0.7117434360030827  1.0000
  C   C70       1.0  0.5528774807362706  0.1913897100682007  0.3062799934146412  1.0000
  C   C71       1.0  0.8175718763110992  0.6078545607584472  0.8967407632355557  1.0000
  C   C72       1.0  0.8667580915809694  0.6435985913139889  0.8470718787334305  1.0000
  C   C73       1.0  0.8168349814566939  0.10117741921488493  0.4071165487541391  1.0000
  C   C74       1.0  0.8655366327657817  0.13520487008785406  0.35624343541276454  1.0000
  C   C75       1.0  0.5476300593321711  0.23801799569250903  0.2596917458823497  1.0000
  C   C76       1.0  0.4839923835400981  0.2826569554011087  0.7415909668098591  1.0000
  O   O1        1.0  0.4996378248187057  0.4985566103890378  0.9997678612679974  1.0000
  O   O2        1.0  0.517362789669157  0.1443265194251921  0.5563092387656708  1.0000
  O   O3        1.0  0.7042859918015623  0.4558458612670506  0.9912683361094351  1.0000
  O   O4        1.0  0.7027181207122836  0.9542259803790926  0.5069576878921609  1.0000
  O   O5        1.0  0.29847860744034455  0.5048209362251581  0.9484960308485595  1.0000
  O   O6        1.0  0.3026508265115099  0.46689985320325184  0.0434510886675668  1.0000
  O   O7        1.0  0.29357130560121913  0.9945751005139057  0.4596914859468128  1.0000
  O   O8        1.0  0.3040674739641888  0.9780336324087812  0.5594513980806042  1.0000
  O   O9        1.0  0.553143150043944  0.3595848436833506  0.9366501193820153  1.0000
  O   O10       1.0  0.5810092230890403  0.37737557880727485  0.07733666407718688  1.0000
  O   O11       1.0  0.5747591160561001  0.8786604397421556  0.4218000095461178  1.0000
  O   O12       1.0  0.49837632766926987  0.9980508803835871  0.5007350556046573  1.0000
  O   O13       1.0  0.5561763702525795  0.8559959541590484  0.5623937785285519  1.0000
  O   O14       1.0  0.4148279583358203  0.5800096106544999  0.10923474302784089  1.0000
  O   O15       1.0  0.4618240935421412  0.5724422756940084  0.8773937614940834  1.0000
  O   O16       1.0  0.45532643747158374  0.0732089606320372  0.6229940536633265  1.0000
  O   O17       1.0  0.41936613557652436  0.08037298381836418  0.38849071348468556  1.0000
  O   O18       1.0  0.6907124001338262  0.5686709174492678  0.9869351343154232  1.0000
  O   O19       1.0  0.6915332011048106  0.0669099025728173  0.4995728594164674  1.0000
  O   O20       1.0  0.45880593629538413  0.4221823609585015  0.12293537632783817  1.0000
  O   O21       1.0  0.4547219316218972  0.4187694121603515  0.8811048499429575  1.0000
  O   O22       1.0  0.47190041642108577  0.9204576760445206  0.6244628281630327  1.0000
  O   O23       1.0  0.4461360546251854  0.919015924022446  0.382911967642805  1.0000
  O   O24       1.0  0.516734498811374  0.6456777999668759  0.9449823005343558  1.0000
  O   O25       1.0  0.5505766569500851  0.6203860426337826  0.08430997610866339  1.0000
  O   O26       1.0  0.5526026585349941  0.12190136171921748  0.4162038485618281  1.0000
