data_image0
_chemical_formula_structural       Zn4H48C24N8Cl8
_chemical_formula_sum              "Zn4 H48 C24 N8 Cl8"
_cell_length_a       6.489967444000253
_cell_length_b       11.58427120200049
_cell_length_c       11.590058543000108
_cell_angle_alpha    89.99998735129027
_cell_angle_beta     90.0000093616131
_cell_angle_gamma    90.00003070351553

_space_group_name_H-M_alt    "P 1"
_space_group_IT_number       1

loop_
  _space_group_symop_operation_xyz
  'x, y, z'

loop_
  _atom_site_type_symbol
  _atom_site_label
  _atom_site_symmetry_multiplicity
  _atom_site_fract_x
  _atom_site_fract_y
  _atom_site_fract_z
  _atom_site_occupancy
  Zn  Zn1       1.0  0.0252622142756849  0.22801863651312707  0.2500004387831041  1.0000
  Zn  Zn2       1.0  0.4747392854888375  0.7280182201767076  0.2499995412271474  1.0000
  Zn  Zn3       1.0  0.525261735008911  0.2719808520136695  0.7500005196009951  1.0000
  Zn  Zn4       1.0  0.974738806222483  0.7719812989167066  0.7499996220449461  1.0000
  H   H1        1.0  0.8100657965126032  0.0764856793529276  0.4303291749599438  1.0000
  H   H2        1.0  0.8100657437751267  0.0764857191103232  0.06967094493532498  1.0000
  H   H3        1.0  0.6899344633851284  0.576485177901681  0.43032911421401804  1.0000
  H   H4        1.0  0.3100666098505158  0.42351471777075733  0.9303291766386436  1.0000
  H   H5        1.0  0.18993368314565368  0.923514256076771  0.5696700230596221  1.0000
  H   H6        1.0  0.1899352767230411  0.9235142163195106  0.9303291158927182  1.0000
  H   H7        1.0  0.31006501627325633  0.4235147575279257  0.5696709466139538  1.0000
  H   H8        1.0  0.6899359514874277  0.5764852176593037  0.0696708841894704  1.0000
  H   H9        1.0  0.6013929673587627  0.141473775733111  0.3562630957893518  1.0000
  H   H10       1.0  0.6013944771221844  0.1414746624007535  0.1437369906914583  1.0000
  H   H11       1.0  0.8986073333237812  0.6414741998838308  0.3562639169004597  1.0000
  H   H12       1.0  0.10139371825140131  0.35852571211786  0.8562639746422746  1.0000
  H   H13       1.0  0.39860651229949445  0.8585261596965877  0.6437361022302142  1.0000
  H   H14       1.0  0.3986065433763883  0.8585261362685371  0.8562630701364923  1.0000
  H   H15       1.0  0.1013936871743795  0.358525735546003  0.6437361439275833  1.0000
  H   H16       1.0  0.8986073022468944  0.6414742233118815  0.1437369489941815  1.0000
  H   H17       1.0  0.42172374235533994  0.9694844054365247  0.35342004235658203  1.0000
  H   H18       1.0  0.42172371210987347  0.9694844282377844  0.1465789818817029  1.0000
  H   H19       1.0  0.07827801967171412  0.46948483761686777  0.3534209447520809  1.0000
  H   H20       1.0  0.9217230310719201  0.5305150750117064  0.8534201765508413  1.0000
  H   H21       1.0  0.5782772781426999  0.030515529993408598  0.6465791556630548  1.0000
  H   H22       1.0  0.5782773083881666  0.030515507192149002  0.853420216137934  1.0000
  H   H23       1.0  0.9217230008269937  0.5305159610523305  0.646579978884283  1.0000
  H   H24       1.0  0.07827798942582828  0.4694839971786707  0.1465798842773012  1.0000
  H   H25       1.0  0.6233703408022464  0.9008163178540798  0.43057583853458675  1.0000
  H   H26       1.0  0.6233702879924721  0.900816357665974  0.0694232192902149  1.0000
  H   H27       1.0  0.8766302308070949  0.40081683919819966  0.4305767681652526  1.0000
  H   H28       1.0  0.12337084250096808  0.5991830564196405  0.9305767747155755  1.0000
  H   H29       1.0  0.3766291388560176  0.09918361757561908  0.569423359484972  1.0000
  H   H30       1.0  0.3766291916653728  0.09918271452426101  0.9305759787294434  1.0000
  H   H31       1.0  0.1233707896911937  0.5991830962315348  0.5694241554712036  1.0000
  H   H32       1.0  0.8766301779971926  0.40081687901019336  0.0694232861124675  1.0000
  H   H33       1.0  0.906279252707158  0.812964491839203  0.3271009739898076  1.0000
  H   H34       1.0  0.906279230158873  0.8129645088377585  0.1728989918885659  1.0000
  H   H35       1.0  0.593721204226249  0.3129640653956259  0.3271010149867877  1.0000
  H   H36       1.0  0.40627983882019697  0.6870358530356526  0.8271010279425042  1.0000
  H   H37       1.0  0.09372022695122692  0.1870354435904034  0.6728990868381644  1.0000
  H   H38       1.0  0.093720249499512  0.18703542659184072  0.827101068939406  1.0000
  H   H39       1.0  0.40627981627203974  0.6870358700341086  0.6728999086496756  1.0000
  H   H40       1.0  0.5937227225178675  0.31296408239431633  0.1728998956940231  1.0000
  H   H41       1.0  0.0843090886898779  0.9866896005365859  0.1731638173529575  1.0000
  H   H42       1.0  0.08430911116069952  0.9866895835964228  0.3268360350895705  1.0000
  H   H43       1.0  0.41569109631263507  0.48668927031487635  0.1731638877409978  1.0000
  H   H44       1.0  0.5843099017145832  0.5133106820552129  0.6731630925420191  1.0000
  H   H45       1.0  0.9156903909680879  0.013309471653563798  0.8268362434751139  1.0000
  H   H46       1.0  0.9156903684976856  0.0133103518331765  0.6731640257384015  1.0000
  H   H47       1.0  0.5843099241855256  0.5133106651149576  0.8268361730870523  1.0000
  H   H48       1.0  0.4156911187834567  0.48668925337472047  0.3268361054776108  1.0000
  C   C1        1.0  0.7087817604878025  0.0685179723278253  0.35492920695025276  1.0000
  C   C2        1.0  0.7087817298011386  0.0685179954616899  0.1450709054605639  1.0000
  C   C3        1.0  0.7912200105434054  0.5685183643853479  0.35492915545002995  1.0000
  C   C4        1.0  0.2087810406418384  0.43148241115007824  0.8549292068676165  1.0000
  C   C5        1.0  0.2912177191705823  0.9314819631017812  0.6450708538777191  1.0000
  C   C6        1.0  0.29121929069702185  0.931481939968144  0.8549291553674792  1.0000
  C   C7        1.0  0.20878100995476254  0.4314815710444862  0.64507090537802  1.0000
  C   C8        1.0  0.7912199798563221  0.5685175242797555  0.1450708539604335  1.0000
  C   C9        1.0  0.5882145546350089  0.9535447135826376  0.3546003736242511  1.0000
  C   C10       1.0  0.5882145240444815  0.9535447366440338  0.1453995321440757  1.0000
  C   C11       1.0  0.9117875862594573  0.4535443821940601  0.354600443655869  1.0000
  C   C12       1.0  0.0882134648292379  0.5464555301743843  0.8546004586523493  1.0000
  C   C13       1.0  0.41178646586357104  0.0464560850866533  0.6453996872036996  1.0000
  C   C14       1.0  0.4117864964535586  0.04645519878589971  0.854599665875554  1.0000
  C   C15       1.0  0.0882134342388312  0.5464555532356812  0.6454004799805872  1.0000
  C   C16       1.0  0.911786014829147  0.4535444052552222  0.1453996021756296  1.0000
  C   C17       1.0  0.8674439397848276  0.8631972618674199  0.249999544210425  1.0000
  C   C18       1.0  0.6325580837071172  0.3631968470300536  0.2500004515609717  1.0000
  C   C19       1.0  0.36744293679075923  0.6368022251602241  0.750000472075584  1.0000
  C   C20       1.0  0.1325570807132124  0.1368026735625065  0.7499996538092119  1.0000
  C   C21       1.0  0.9865863493964399  0.978520891894739  0.24999953690215898  1.0000
  C   C22       1.0  0.5134142440663254  0.4785204414511241  0.24999957056829913  1.0000
  C   C23       1.0  0.4865867764317072  0.5214794939788021  0.7499996274513379  1.0000
  C   C24       1.0  0.013413130261817199  0.0214790435349599  0.7499996611174068  1.0000
  N   N1        1.0  0.8404542128704975  0.0777589819738651  0.2499996297897056  1.0000
  N   N2        1.0  0.6595475363528679  0.5777584714411576  0.2499995662698424  1.0000
  N   N3        1.0  0.34045348414530013  0.42224146398867657  0.7500004945582076  1.0000
  N   N4        1.0  0.15954680762754242  0.9222409534560609  0.7499995682299314  1.0000
  N   N5        1.0  0.6407586834330844  0.8844424143087224  0.24999953151579035  1.0000
  N   N6        1.0  0.8592418196328923  0.38444206721680974  0.2500004595592529  1.0000
  N   N7        1.0  0.1407592008653964  0.6155578682129316  0.7500004640772033  1.0000
  N   N8        1.0  0.35924079622517985  0.11555752112097652  0.7499996665037756  1.0000
  Cl  Cl1       1.0  0.20935868752462738  0.21627599971452574  0.4128607129936555  1.0000
  Cl  Cl2       1.0  0.2093586398959317  0.21627603562054523  0.0871401839735384  1.0000
  Cl  Cl3       1.0  0.2906428485854562  0.716275528360235  0.4128597986324323  1.0000
  Cl  Cl4       1.0  0.7093582195408601  0.283723507924222  0.9128599284074138  1.0000
  Cl  Cl5       1.0  0.7906407921338854  0.7837239357149814  0.5871402106427297  1.0000
  Cl  Cl6       1.0  0.790642380602229  0.7837238998092886  0.9128598768545046  1.0000
  Cl  Cl7       1.0  0.7093581719127044  0.2837244070695987  0.5871402621956108  1.0000
  Cl  Cl8       1.0  0.2906412601171127  0.7162755642659275  0.0871401324206573  1.0000
