data_image0
_chemical_formula_structural       Zn2H16C33I4N6O10
_chemical_formula_sum              "Zn2 H16 C33 I4 N6 O10"
_cell_length_a       9.74113737907199
_cell_length_b       11.052156603289932
_cell_length_c       19.13504008113124
_cell_angle_alpha    80.90297488025953
_cell_angle_beta     83.94329438964952
_cell_angle_gamma    81.26398461009776

_space_group_name_H-M_alt    "P 1"
_space_group_IT_number       1

loop_
  _space_group_symop_operation_xyz
  'x, y, z'

loop_
  _atom_site_type_symbol
  _atom_site_label
  _atom_site_symmetry_multiplicity
  _atom_site_fract_x
  _atom_site_fract_y
  _atom_site_fract_z
  _atom_site_occupancy
  Zn  Zn1       1.0  0.6454249974524658  0.48546580203453266  0.4883913860036839  1.0000
  Zn  Zn2       1.0  0.3489032197429651  0.5252725165267267  0.5062481285444418  1.0000
  H   H1        1.0  0.7342037236974548  0.40428816450621957  0.7155893653889223  1.0000
  H   H2        1.0  0.8376795022800749  0.8357127097141233  0.5103211780913668  1.0000
  H   H3        1.0  0.801955584775286  0.8853325776405969  0.419698626412888  1.0000
  H   H4        1.0  0.8378085961645855  0.05697564310206361  0.5261118380227002  1.0000
  H   H5        1.0  0.8478712494792121  0.32282924942944663  0.6217222458994414  1.0000
  H   H6        1.0  0.9412341438141711  0.22676753680641343  0.5596723697347554  1.0000
  H   H7        1.0  0.7235630052960575  0.36470073783863205  0.8479102364861005  1.0000
  H   H8        1.0  0.17014967583726556  0.27770451682973635  0.5926004617485034  1.0000
  H   H9        1.0  0.2927029669515235  0.528030327794369  0.8582240437298124  1.0000
  H   H10       1.0  0.3038820317241574  0.5636052152910908  0.7251415222329455  1.0000
  H   H11       1.0  0.705623129321822  0.37407454089017034  0.1527500626968035  1.0000
  H   H12       1.0  0.7027718171439475  0.4127929727221159  0.27866385561001283  1.0000
  H   H13       1.0  0.2580431681583449  0.5087409660678192  0.2880050311063299  1.0000
  H   H14       1.0  0.25958311234102643  0.4711159340952166  0.16210648674250894  1.0000
  H   H15       1.0  0.2809903442054775  0.12731810552055126  0.5499941130683722  1.0000
  H   H16       1.0  0.17117515216867926  0.7807868145171784  0.6337849867093366  1.0000
  C   C1        1.0  0.49703046508538756  0.2648348358707438  0.5182786400200355  1.0000
  C   C2        1.0  0.5177699495470877  0.4825230597852084  0.7125226820931232  1.0000
  C   C3        1.0  0.48469305864210815  0.40229267166908045  0.0752916700855124  1.0000
  C   C4        1.0  0.4966130066120798  0.41342094863505713  0.9390088215905334  1.0000
  C   C5        1.0  0.6082028442055291  0.40427387077726723  0.1825317199637908  1.0000
  C   C6        1.0  0.6068132850925637  0.4257788327974979  0.2521984915300521  1.0000
  C   C7        1.0  0.4806913119710003  0.4640176337612161  0.29025066977416  1.0000
  C   C8        1.0  0.35539019594451576  0.47975067711194447  0.2577266786208199  1.0000
  C   C9        1.0  0.3562167711205647  0.45897308314932433  0.18789687926032878  1.0000
  C   C10       1.0  0.4828386887376865  0.4211761240644807  0.1495853361215609  1.0000
  C   C11       1.0  0.6210375142685579  0.05144911891612484  0.501767486335943  1.0000
  C   C12       1.0  0.5181496809753342  0.4940337229338637  0.6334196127878897  1.0000
  C   C13       1.0  0.4998496161470386  0.12914238927861282  0.5190853452221162  1.0000
  C   C14       1.0  0.37883678483838423  0.07169996108783755  0.5353108800484776  1.0000
  C   C15       1.0  0.37861062144057916  0.9454705064595502  0.5339021428841803  1.0000
  C   C16       1.0  0.5006579811480735  0.8694521627372185  0.5109046527810434  1.0000
  C   C17       1.0  0.6202826162791626  0.9267297796410221  0.49640070533094155  1.0000
  C   C18       1.0  0.7748227312010985  0.9042397252653135  0.47436845272286376  1.0000
  C   C19       1.0  0.7762903523027378  0.042632661536337914  0.4842037264658287  1.0000
  C   C20       1.0  0.06337811730064401  0.45183768445314615  0.5368715310028946  1.0000
  C   C21       1.0  0.05749385952173473  0.6094226241961139  0.4455528452695318  1.0000
  C   C22       1.0  0.928465325427382  0.5779413387113551  0.428581111131642  1.0000
  C   C23       1.0  0.500339759515022  0.7400619917798397  0.4972595797082278  1.0000
  C   C24       1.0  0.9358495998328211  0.4253848661992095  0.5223157813410921  1.0000
  C   C25       1.0  0.9333788328588003  0.3154726929262354  0.579942456891004  1.0000
  C   C26       1.0  0.07839025279989197  0.3471592046961121  0.5974660103806286  1.0000
  C   C27       1.0  0.4812717244941281  0.48715024808586826  0.3651602403473575  1.0000
  C   C28       1.0  0.6373097566725862  0.429887806619064  0.7470704958994004  1.0000
  C   C29       1.0  0.6319903843842171  0.40877027762459767  0.8208274786010675  1.0000
  C   C30       1.0  0.5064204580558992  0.44142605250979733  0.8613042683738072  1.0000
  C   C31       1.0  0.3886913617880624  0.5005499594561017  0.8265645024233805  1.0000
  C   C32       1.0  0.3946387731745845  0.5203072984304812  0.752919451313758  1.0000
  C   C33       1.0  0.2446348353809498  0.8968875031348135  0.5615444701519436  1.0000
  I   I1        1.0  0.853903279358576  0.15927289127557748  0.39054902789269613  1.0000
  I   I2        1.0  0.13502249565468116  0.7655865028696456  0.38980002641852707  1.0000
  I   I3        1.0  0.8393850006565416  0.6610711501718214  0.3352525027811097  1.0000
  I   I4        1.0  0.07633233191158695  0.40072384560996  0.701481759744105  1.0000
  N   N1        1.0  0.3687615924831037  0.4269458371947367  0.9749143706913587  1.0000
  N   N2        1.0  0.3630182255764042  0.4221636855413351  0.04427769538504119  1.0000
  N   N3        1.0  0.6059916186090036  0.3553164939335503  0.041648512700227486  1.0000
  N   N4        1.0  0.6120899542154491  0.3617340198552911  0.9721278357182397  1.0000
  N   N5        1.0  0.12770665397766834  0.5432555196661968  0.500191266448553  1.0000
  N   N6        1.0  0.864060642893705  0.4877339321751891  0.4693718440286432  1.0000
  O   O1        1.0  0.6155351467266428  0.3022462465465382  0.5129635744915433  1.0000
  O   O2        1.0  0.3780318523621348  0.33116466138996276  0.5212123713296606  1.0000
  O   O3        1.0  0.6360307946803446  0.4823402381002639  0.5974520812908466  1.0000
  O   O4        1.0  0.39901434828421145  0.5125941720647591  0.6085611415785832  1.0000
  O   O5        1.0  0.6183873403042243  0.6762099483503194  0.48554535346368516  1.0000
  O   O6        1.0  0.38195370026024744  0.705374532134421  0.49618201474925877  1.0000
  O   O7        1.0  0.6000157872863243  0.47919541201313376  0.38903877365144973  1.0000
  O   O8        1.0  0.3642812585547121  0.5128803198017026  0.39982520677837385  1.0000
  O   O9        1.0  0.1305989701155212  0.938276736024513  0.5399246120459721  1.0000
  O   O10       1.0  0.2620551117333676  0.80881239630007  0.619282615788954  1.0000
