data_image0
_chemical_formula_structural       Er2Ag2H24C40N12O18
_chemical_formula_sum              "Er2 Ag2 H24 C40 N12 O18"
_cell_length_a       7.691220023415953
_cell_length_b       9.973245567065755
_cell_length_c       14.540661373194833
_cell_angle_alpha    92.58989089365829
_cell_angle_beta     92.21048634301174
_cell_angle_gamma    110.73760281988002

_space_group_name_H-M_alt    "P 1"
_space_group_IT_number       1

loop_
  _space_group_symop_operation_xyz
  'x, y, z'

loop_
  _atom_site_type_symbol
  _atom_site_label
  _atom_site_symmetry_multiplicity
  _atom_site_fract_x
  _atom_site_fract_y
  _atom_site_fract_z
  _atom_site_occupancy
  Er  Er1       1.0  0.4534704322430584  0.5102220336217939  0.28261121767224046  1.0000
  Er  Er2       1.0  0.5465350360281035  0.4897751019893448  0.7173883555163273  1.0000
  Ag  Ag1       1.0  0.9344108584123558  0.985824972975578  0.8719062268471731  1.0000
  Ag  Ag2       1.0  0.06558511264879739  0.0141828134796782  0.1280941354267213  1.0000
  H   H1        1.0  0.8294307726714434  0.6238354400912272  0.37030948844182626  1.0000
  H   H2        1.0  0.1705719045757732  0.3761670358100487  0.6296908650298079  1.0000
  H   H3        1.0  0.7138383873953629  0.5909409726892959  0.4649142715454104  1.0000
  H   H4        1.0  0.28616231818990906  0.40906577417202783  0.5350861614613862  1.0000
  H   H5        1.0  0.24300552487672175  0.1802126434125171  0.5239135561367405  1.0000
  H   H6        1.0  0.7569956963078963  0.8197865722313437  0.47607979660261884  1.0000
  H   H7        1.0  0.4085256401219368  0.0063330220253732  0.2806117020312159  1.0000
  H   H8        1.0  0.5914787036732037  0.9936587510698017  0.7193876950627285  1.0000
  H   H9        1.0  0.23583698939771114  0.7435573529185859  0.5093418130494953  1.0000
  H   H10       1.0  0.7641606475356753  0.25643974575122297  0.4906603441852226  1.0000
  H   H11       1.0  0.054377342645857085  0.1049298184144405  0.6504001467875824  1.0000
  H   H12       1.0  0.9456199623631105  0.895069390024247  0.3495965614787337  1.0000
  H   H13       1.0  0.29094026202907486  0.7788173231081571  0.6597016566502134  1.0000
  H   H14       1.0  0.709060138104327  0.22118299941743655  0.3402992751833125  1.0000
  H   H15       1.0  0.16433758418655495  0.7003668746739392  0.8725349902956195  1.0000
  H   H16       1.0  0.8356616351472822  0.2996452286481741  0.1274676265455597  1.0000
  H   H17       1.0  0.7016865291033981  0.5682439423580588  0.045583456034364596  1.0000
  H   H18       1.0  0.29831274604721597  0.4317510289170555  0.954419363208423  1.0000
  H   H19       1.0  0.2547830654184295  0.7705483729578901  0.1705018784975181  1.0000
  H   H20       1.0  0.7452125993462388  0.2294530079374509  0.8295024217762403  1.0000
  H   H21       1.0  0.4530896052592297  0.8226327118087794  0.8621703899580169  1.0000
  H   H22       1.0  0.5469037554123091  0.1773750610809799  0.13783060438639444  1.0000
  H   H23       1.0  0.5449787466190159  0.8303260393057598  0.1529059133921038  1.0000
  H   H24       1.0  0.4550199873043184  0.1696849785156047  0.8470945991498553  1.0000
  C   C1        1.0  0.22939100417475788  0.9595302705968931  0.5269625049731772  1.0000
  C   C2        1.0  0.7706100630170098  0.04046576104282449  0.4730362559392489  1.0000
  C   C3        1.0  0.25965504837570547  0.08909292663809508  0.4863050454540812  1.0000
  C   C4        1.0  0.740346019153911  0.9109030974912997  0.5136923397890882  1.0000
  C   C5        1.0  0.3224179055436522  0.10476950388814286  0.3969596303893894  1.0000
  C   C6        1.0  0.6775901736238905  0.8952276340230012  0.6030372472247835  1.0000
  C   C7        1.0  0.35754490125447075  0.9925096631748714  0.3495756637529439  1.0000
  C   C8        1.0  0.6424607474820972  0.007482122335794399  0.650424449057681  1.0000
  C   C9        1.0  0.3285064085115648  0.8640270619886931  0.3917952341325375  1.0000
  C   C10       1.0  0.6714984206940782  0.13596579660723046  0.6082062672606199  1.0000
  C   C11       1.0  0.26001933216755896  0.8463188567487376  0.4794989383042889  1.0000
  C   C12       1.0  0.7399804294070904  0.15367717749614224  0.5205018582299559  1.0000
  C   C13       1.0  0.1033647911510442  0.0216037200660324  0.673019384880746  1.0000
  C   C14       1.0  0.8966316943269986  0.9783965614579059  0.3269787119680956  1.0000
  C   C15       1.0  0.2239684297830563  0.8540062316418043  0.6789737016895927  1.0000
  C   C16       1.0  0.7760285409365794  0.14599513913805134  0.32102718729309027  1.0000
  C   C17       1.0  0.36245683395409856  0.24669739435707777  0.3562715600997138  1.0000
  C   C18       1.0  0.6375567990995633  0.7532976346300444  0.6437246874994571  1.0000
  C   C19       1.0  0.3761252598248531  0.7427677046494523  0.350029402832071  1.0000
  C   C20       1.0  0.6238735300841755  0.2572261773697447  0.6499706242768752  1.0000
  C   C21       1.0  0.2333121990119266  0.7434838908194548  0.020445291767856588  1.0000
  C   C22       1.0  0.76668477136986  0.256517487470731  0.9795569728840832  1.0000
  C   C23       1.0  0.11422111817829968  0.6928479542246889  0.94167844810395  1.0000
  C   C24       1.0  0.8857746999035356  0.3071566256954483  0.0583231953352481  1.0000
  C   C25       1.0  0.9223812067878681  0.6318123206242773  0.9509869239230755  1.0000
  C   C26       1.0  0.07761788739057347  0.3681880120168016  0.0490174192015189  1.0000
  C   C27       1.0  0.8509718504453473  0.6186020667005891  0.03847086254816649  1.0000
  C   C28       1.0  0.14902563367763827  0.3813918216789389  0.9615318880172268  1.0000
  C   C29       1.0  0.9710118766218298  0.6688285647191846  0.11746508044647899  1.0000
  C   C30       1.0  0.02898967598044777  0.33116855242128906  0.8825357847651603  1.0000
  C   C31       1.0  0.16308437649014004  0.7339199084466018  0.10834822695968431  1.0000
  C   C32       1.0  0.8369147180261434  0.2660804166841473  0.8916547404956674  1.0000
  C   C33       1.0  0.5195887556087512  0.8418684412053351  0.9310575691417143  1.0000
  C   C34       1.0  0.4804067295351331  0.15813827101466424  0.0689427523368522  1.0000
  C   C35       1.0  0.568720274180272  0.8469602934373056  0.08039896891693128  1.0000
  C   C36       1.0  0.4312797646844828  0.15305073679955677  0.9196022593417155  1.0000
  C   C37       1.0  0.8907646799239968  0.6469687491627099  0.2113738267143574  1.0000
  C   C38       1.0  0.10923492850240984  0.35302408230221966  0.7886289388198193  1.0000
  C   C39       1.0  0.7930874833742577  0.5749842385775138  0.8671878595723755  1.0000
  C   C40       1.0  0.20691452732136628  0.42502251694413923  0.1328126013164876  1.0000
  N   N1        1.0  0.700544173641596  0.9027720263827417  0.9515928626716176  1.0000
  N   N2        1.0  0.29945049230921933  0.09723575141217818  0.0484074717202176  1.0000
  N   N3        1.0  0.732221020574592  0.9061103056879107  0.04577417503969631  1.0000
  N   N4        1.0  0.2677775610451079  0.0938974905776817  0.9542248673290672  1.0000
  N   N5        1.0  0.42996544623136385  0.8060261617900364  0.010921903216271293  1.0000
  N   N6        1.0  0.5700295526574024  0.19397948370502857  0.9890797531362027  1.0000
  N   N7        1.0  0.09863617803488013  0.9800754386687273  0.7579456768397607  1.0000
  N   N8        1.0  0.9013576970535481  0.019924829289713796  0.2420530520795978  1.0000
  N   N9        1.0  0.17767646970155224  0.8755759574417751  0.7624163940128952  1.0000
  N   N10       1.0  0.8223170719421516  0.12442645408201969  0.2375830764496953  1.0000
  N   N11       1.0  0.18134808149957143  0.943841194928858  0.6199781453491937  1.0000
  N   N12       1.0  0.8186492230026302  0.056158024775314196  0.3800206264210003  1.0000
  O   O1        1.0  0.31986403320924944  0.34446153611334296  0.39873928308715995  1.0000
  O   O2        1.0  0.6801372161371402  0.6555291078742727  0.6012531391010612  1.0000
  O   O3        1.0  0.44424145431139545  0.2698816125457242  0.2800939259332651  1.0000
  O   O4        1.0  0.5557858682355813  0.7301177950805806  0.7199034236204085  1.0000
  O   O5        1.0  0.4633978212189546  0.7562905082444403  0.2754899697937674  1.0000
  O   O6        1.0  0.5366009686900738  0.24370337377475693  0.7245100573151788  1.0000
  O   O7        1.0  0.33588229024917376  0.6279643967833478  0.3925452876231503  1.0000
  O   O8        1.0  0.6641147088011508  0.37202839858510117  0.6074539829737731  1.0000
  O   O9        1.0  0.7170605682318296  0.5713793720534993  0.2101815773694327  1.0000
  O   O10       1.0  0.2829364584735003  0.42860486292418887  0.7898188261802375  1.0000
  O   O11       1.0  0.9914969642300947  0.7012163086204666  0.284010344755714  1.0000
  O   O12       1.0  0.008501978658252076  0.29878077993384977  0.7159884011879285  1.0000
  O   O13       1.0  0.6186717595386851  0.5151727647747109  0.8778401287096003  1.0000
  O   O14       1.0  0.3813248499123033  0.4848393137164137  0.12216105669820368  1.0000
  O   O15       1.0  0.8543872831158764  0.5858233308815173  0.7861682625882409  1.0000
  O   O16       1.0  0.14560725818630255  0.41417266496687677  0.21383173458314528  1.0000
  O   O17       1.0  0.7051149546030614  0.5813580001299813  0.3972873608377654  1.0000
  O   O18       1.0  0.29488787528563176  0.4186476898167442  0.6027130871378148  1.0000
