data_image0
_chemical_formula_structural       Cd2H20C24N8O14
_chemical_formula_sum              "Cd2 H20 C24 N8 O14"
_cell_length_a       7.458290757039956
_cell_length_b       9.959199338991432
_cell_length_c       10.263678247243726
_cell_angle_alpha    108.9069942174624
_cell_angle_beta     90.00037513873741
_cell_angle_gamma    89.99990940825437

_space_group_name_H-M_alt    "P 1"
_space_group_IT_number       1

loop_
  _space_group_symop_operation_xyz
  'x, y, z'

loop_
  _atom_site_type_symbol
  _atom_site_label
  _atom_site_symmetry_multiplicity
  _atom_site_fract_x
  _atom_site_fract_y
  _atom_site_fract_z
  _atom_site_occupancy
  Cd  Cd1       1.0  0.5855788177221939  0.6849867168402212  0.07891021283439409  1.0000
  Cd  Cd2       1.0  0.08557705057062039  0.315014063930974  0.9210898158775574  1.0000
  H   H1        1.0  0.5540542124648694  0.0375464657693172  0.22863448841936662  1.0000
  H   H2        1.0  0.05404967579404739  0.9624574411060751  0.7713693353625785  1.0000
  H   H3        1.0  0.5927405702970531  0.13075699767147603  0.6689939837887662  1.0000
  H   H4        1.0  0.09274297755045069  0.8692406028042897  0.33100504010950255  1.0000
  H   H5        1.0  0.5519299452831276  0.2155671709586998  0.46705456553704733  1.0000
  H   H6        1.0  0.0519276617607574  0.7844356454368651  0.5329508408380617  1.0000
  H   H7        1.0  0.7600558796711211  0.2712750861582053  0.29482925488179024  1.0000
  H   H8        1.0  0.26005393593835885  0.7287237138876035  0.7051670545956695  1.0000
  H   H9        1.0  0.7048261765841275  0.6721798097632005  0.7120037265277472  1.0000
  H   H10       1.0  0.2048186509004353  0.32782104350592073  0.287995915482611  1.0000
  H   H11       1.0  0.6460646538012469  0.9273406541298853  0.7581095304363072  1.0000
  H   H12       1.0  0.1460626313346793  0.07265799147652531  0.24189301019988108  1.0000
  H   H13       1.0  0.693279577636673  0.37738892772440386  0.11080179681271568  1.0000
  H   H14       1.0  0.19328891699014147  0.6226151318689687  0.8891968890315026  1.0000
  H   H15       1.0  0.7525363413229014  0.4297599345983087  0.543315645180513  1.0000
  H   H16       1.0  0.2525257906252918  0.5702399089443588  0.4566819439157469  1.0000
  H   H17       1.0  0.4649867066692863  0.9226646123939943  0.9945935514997967  1.0000
  H   H18       1.0  0.9649877950679696  0.0773352929633262  0.0054079858702281  1.0000
  H   H19       1.0  0.2789129294900548  0.8617929972074946  0.022046784467072117  1.0000
  H   H20       1.0  0.7789133025655561  0.138205741647063  0.9779544661996407  1.0000
  C   C1        1.0  0.575401371894756  0.0045242068664493  0.31907634269776947  1.0000
  C   C2        1.0  0.07539460364592539  0.9954797245511459  0.6809266156692356  1.0000
  C   C3        1.0  0.5955424276448297  0.05644737201755851  0.5641630887385389  1.0000
  C   C4        1.0  0.09554159912402578  0.9435533432055795  0.4358418376712904  1.0000
  C   C5        1.0  0.6918463814368322  0.6176764880731653  0.4889209560471102  1.0000
  C   C6        1.0  0.19183807437823927  0.38232332574096267  0.5110763362869333  1.0000
  C   C7        1.0  0.5735850975132947  0.10361056793622941  0.4525299380545673  1.0000
  C   C8        1.0  0.07358136006526193  0.8963913527423412  0.5474645598497572  1.0000
  C   C9        1.0  0.6603627321558037  0.6684475906307838  0.3764384236704642  1.0000
  C   C10       1.0  0.16036091731810836  0.3315468873357262  0.6235579514489871  1.0000
  C   C11       1.0  0.7290018527746015  0.3839195926727045  0.32314601375561103  1.0000
  C   C12       1.0  0.22900258039392438  0.6160865506104258  0.6768574191548848  1.0000
  C   C13       1.0  0.6231790936253603  0.9104276982911941  0.5418541163779265  1.0000
  C   C14       1.0  0.12317631009928928  0.089574148080743  0.45814741260266334  1.0000
  C   C15       1.0  0.6852287633724004  0.7138771388582583  0.627093292021847  1.0000
  C   C16       1.0  0.18521941577068188  0.28611415339662466  0.3729031346223123  1.0000
  C   C17       1.0  0.626798699824434  0.8180277081530746  0.40328999856107806  1.0000
  C   C18       1.0  0.12679562790291496  0.1819783991505233  0.5967119647822443  1.0000
  C   C19       1.0  0.6510010435083089  0.8547565971229928  0.6525979155754624  1.0000
  C   C20       1.0  0.15099579517740117  0.1452473572418143  0.34740638226483606  1.0000
  C   C21       1.0  0.6929930654023478  0.4426722677122826  0.2186450511489397  1.0000
  C   C22       1.0  0.19299486723775763  0.557320145960098  0.7813478809242012  1.0000
  C   C23       1.0  0.7275891782051075  0.4712703294811362  0.45864815587618296  1.0000
  C   C24       1.0  0.22758484770904627  0.5287242377589434  0.5413446687879284  1.0000
  N   N1        1.0  0.2230874540938927  0.5535600931616713  0.16608418535346908  1.0000
  N   N2        1.0  0.7230845092898334  0.4464364958094293  0.8339160990948427  1.0000
  N   N3        1.0  0.6006500769435733  0.8663369618344063  0.2954892745418006  1.0000
  N   N4        1.0  0.1006467455218925  0.13366705238113497  0.7045089583226483  1.0000
  N   N5        1.0  0.6603220079224384  0.5800617815250604  0.24451236538364893  1.0000
  N   N6        1.0  0.16032119418299118  0.419945389382967  0.7554910783003731  1.0000
  N   N7        1.0  0.9379755804797013  0.8323901893794741  0.04096678857570878  1.0000
  N   N8        1.0  0.4379744787766526  0.1676086414776421  0.9590342700926012  1.0000
  O   O1        1.0  0.09544163706828358  0.4651902840119391  0.15609596689819935  1.0000
  O   O2        1.0  0.5954332264761178  0.5348062424302853  0.8439036933617527  1.0000
  O   O3        1.0  0.2589848233721312  0.6458814944594662  0.2777576738704396  1.0000
  O   O4        1.0  0.7589824102042967  0.35411614519277623  0.7222450723181736  1.0000
  O   O5        1.0  0.3137739692233055  0.5423241099531708  0.05664990670126  1.0000
  O   O6        1.0  0.8137746720219283  0.45767782978285954  0.943352554277318  1.0000
  O   O7        1.0  0.40574402331682075  0.835164568887933  0.9984317111057093  1.0000
  O   O8        1.0  0.9057435450507113  0.16483529336306899  0.0015705063647217952  1.0000
  O   O9        1.0  0.7834820016389656  0.8285992633144091  0.987138775017449  1.0000
  O   O10       1.0  0.28348171274056005  0.1713963080592933  0.0128604883509027  1.0000
  O   O11       1.0  0.05646509996844169  0.9153813251850522  0.017475455308733925  1.0000
  O   O12       1.0  0.5564656314804424  0.0846162293490522  0.9825253307914179  1.0000
  O   O13       1.0  0.9741773191723341  0.7578225362455342  0.11460478294178233  1.0000
  O   O14       1.0  0.47417404726027707  0.24217733135537153  0.8853997087434632  1.0000
