data_image0
_chemical_formula_structural       Cd2H24C36N28
_chemical_formula_sum              "Cd2 H24 C36 N28"
_cell_length_a       7.569626840177671
_cell_length_b       9.76591925720804
_cell_length_c       13.746098266615268
_cell_angle_alpha    94.62824309198221
_cell_angle_beta     89.99924435003797
_cell_angle_gamma    89.99985677006248

_space_group_name_H-M_alt    "P 1"
_space_group_IT_number       1

loop_
  _space_group_symop_operation_xyz
  'x, y, z'

loop_
  _atom_site_type_symbol
  _atom_site_label
  _atom_site_symmetry_multiplicity
  _atom_site_fract_x
  _atom_site_fract_y
  _atom_site_fract_z
  _atom_site_occupancy
  Cd  Cd1       1.0  0.9999801924287937  0.9999945606296804  0.9999999321580902  1.0000
  Cd  Cd2       1.0  0.5000213421990125  2.3646785720992297e-06  0.4999998509510419  1.0000
  H   H1        1.0  0.9927845802110083  0.6809284355101041  0.1363373252407811  1.0000
  H   H2        1.0  0.4927842746613392  0.31907466743859897  0.36366211489330175  1.0000
  H   H3        1.0  0.0072207053280095995  0.3190639000198344  0.8636575928827169  1.0000
  H   H4        1.0  0.5072130842990957  0.6809321294544474  0.6363444920577592  1.0000
  H   H5        1.0  0.011544027849637897  0.8606368198795803  0.2747881617020056  1.0000
  H   H6        1.0  0.5115506979682819  0.13936856163294917  0.22521201326028262  1.0000
  H   H7        1.0  0.9884572944623641  0.13935655350453396  0.7252082671385125  1.0000
  H   H8        1.0  0.48844533991059785  0.8606361911943591  0.774795938921983  1.0000
  H   H9        1.0  0.9368202304929837  0.7967376374183102  0.4442277412331848  1.0000
  H   H10       1.0  0.43682633046577013  0.20326355887542033  0.055772006138433  1.0000
  H   H11       1.0  0.06317580755134598  0.20325573070105915  0.5557679598552596  1.0000
  H   H12       1.0  0.5631710285092594  0.7967370741847686  0.944234269860715  1.0000
  H   H13       1.0  0.8295698067683189  0.3943914455034871  0.3437908226469091  1.0000
  H   H14       1.0  0.32956287730065265  0.6056090070619646  0.1562096698651132  1.0000
  H   H15       1.0  0.1704315155585761  0.6056029446426406  0.6562042058086847  1.0000
  H   H16       1.0  0.6704358027757067  0.39439263221503734  0.8437937502005965  1.0000
  H   H17       1.0  0.0194881327000616  0.24371212911141524  0.21004939311026766  1.0000
  H   H18       1.0  0.5194898067878383  0.7562911398911889  0.28994551787578615  1.0000
  H   H19       1.0  0.9805065842862817  0.7562802064324924  0.7899455250526586  1.0000
  H   H20       1.0  0.4805194418560959  0.2437115161338496  0.7100565017655711  1.0000
  H   H21       1.0  0.7595433603427183  0.5247470754775134  0.03688099791826719  1.0000
  H   H22       1.0  0.2595454321443924  0.47526385636102475  0.4631234797371278  1.0000
  H   H23       1.0  0.24045399874605516  0.47524938509999964  0.9631163241847887  1.0000
  H   H24       1.0  0.7404506057472557  0.5247501211286404  0.5368820577858671  1.0000
  C   C1        1.0  0.9582325012742531  0.6573610903611993  0.21021146246037867  1.0000
  C   C2        1.0  0.45823783513061755  0.3426441532716992  0.2897876180089725  1.0000
  C   C3        1.0  0.04176617890824019  0.3426322777546815  0.7897842386182035  1.0000
  C   C4        1.0  0.5417608449075644  0.6573626383478696  0.7102182611653731  1.0000
  C   C5        1.0  0.9705120606003276  0.7570041536225032  0.2880884975796292  1.0000
  C   C6        1.0  0.4705169500641374  0.2430000460547034  0.2119126194240053  1.0000
  C   C7        1.0  0.02948926172413739  0.24299126382909716  0.7119065860346225  1.0000
  C   C8        1.0  0.5294830510157594  0.7570036847336181  0.788096005356607  1.0000
  C   C9        1.0  0.9303201246903824  0.7208441139994192  0.381702037954085  1.0000
  C   C10       1.0  0.4303271164707993  0.27915915408974706  0.1182978682321334  1.0000
  C   C11       1.0  0.06967591336017881  0.2791502761536933  0.6182929905212192  1.0000
  C   C12       1.0  0.5696702424906945  0.720843538853131  0.8817092458561077  1.0000
  C   C13       1.0  0.8694832996706906  0.49704228911795667  0.3261186513332888  1.0000
  C   C14       1.0  0.36948158918349344  0.5029611345577933  0.17388098104837718  1.0000
  C   C15       1.0  0.13051405944271718  0.5029510789996648  0.6738770497502246  1.0000
  C   C16       1.0  0.6305157698189062  0.4970425593319019  0.8261225493395659  1.0000
  C   C17       1.0  0.9068296963996969  0.5251651270503856  0.2300067879957055  1.0000
  C   C18       1.0  0.4068271174238305  0.4748371758524286  0.269993238341705  1.0000
  C   C19       1.0  0.09317294700252178  0.4748302851277442  0.7699875678418238  1.0000
  C   C20       1.0  0.5931742047646864  0.5251644792362671  0.7300123650295165  1.0000
  C   C21       1.0  0.957751677436164  0.2888567816216464  0.1489484843501074  1.0000
  C   C22       1.0  0.45775692069486235  0.7111474254336797  0.3510490890050235  1.0000
  C   C23       1.0  0.04224171847865679  0.711136581229482  0.851046488976401  1.0000
  C   C24       1.0  0.5422536489848467  0.28885832832123265  0.6489552794227293  1.0000
  C   C25       1.0  0.8256165092987614  0.43383622128061455  0.06029810465467019  1.0000
  C   C26       1.0  0.32562146590345975  0.5661714328596047  0.4397028034211701  1.0000
  C   C27       1.0  0.17437820767404588  0.5661581741459756  0.9396976515973563  1.0000
  C   C28       1.0  0.6743811773582492  0.43383945216144315  0.5603011130576405  1.0000
  C   C29       1.0  0.672349046300219  0.07543489507339979  0.8619774814242761  1.0000
  C   C30       1.0  0.17238107802397445  0.9245627365605099  0.6380212982629132  1.0000
  C   C31       1.0  0.3276218913174559  0.924555464966957  0.13802824308690728  1.0000
  C   C32       1.0  0.8276678026969009  0.07545632994110459  0.36197796491009643  1.0000
  C   C33       1.0  0.37312134341145503  0.10253620894570048  0.8808119662037157  1.0000
  C   C34       1.0  0.8731490503213665  0.8974577730524229  0.6191800555559723  1.0000
  C   C35       1.0  0.6268390257055501  0.8974541194782404  0.11918939171615511  1.0000
  C   C36       1.0  0.12689058301688758  0.10254789631638059  0.3808126684147197  1.0000
  N   N1        1.0  0.880283304560244  0.5938495024412586  0.4007988874808248  1.0000
  N   N2        1.0  0.38028106381508303  0.4061518486135113  0.0992020095447117  1.0000
  N   N3        1.0  0.11971537562848772  0.40614488770836477  0.599196140984624  1.0000
  N   N4        1.0  0.6197162951537151  0.5938477624129346  0.9008049390675693  1.0000
  N   N5        1.0  0.8942819723658957  0.4204798221814057  0.1518277410189128  1.0000
  N   N6        1.0  0.3942837763371613  0.5795245632298317  0.3481717614726704  1.0000
  N   N7        1.0  0.1057153867437108  0.5795114965969999  0.8481685775190826  1.0000
  N   N8        1.0  0.6057201880095986  0.4204832346013063  0.6518312617534576  1.0000
  N   N9        1.0  0.8453409269090884  0.31824861569159413  0.005140576728145196  1.0000
  N   N10       1.0  0.3453547397213653  0.6817589810156901  0.4948594563688502  1.0000
  N   N11       1.0  0.15464850578981523  0.6817447524365079  0.9948551243849407  1.0000
  N   N12       1.0  0.6546584720819195  0.31825293656859077  0.5051452430009675  1.0000
  N   N13       1.0  0.929474020018347  0.22726081104797652  0.0614599837432976  1.0000
  N   N14       1.0  0.4294888580897407  0.7727444927918652  0.4385371279570194  1.0000
  N   N15       1.0  0.07051409161390151  0.7727315297763936  0.9385356622160614  1.0000
  N   N16       1.0  0.5705309590922666  0.22726432705206173  0.56146522259683  1.0000
  N   N17       1.0  0.8113506479066572  0.021451764281614796  0.8670037429147543  1.0000
  N   N18       1.0  0.3113931809594845  0.9785444988845098  0.632997583271262  1.0000
  N   N19       1.0  0.18860972117460761  0.978542689179427  0.1330000189551015  1.0000
  N   N20       1.0  0.6886530575958503  0.021471506791094393  0.3670044255227936  1.0000
  N   N21       1.0  0.5261873042862674  0.1409493009652323  0.8507327230954829  1.0000
  N   N22       1.0  0.0262179740339619  0.8590456562787946  0.6492698927957504  1.0000
  N   N23       1.0  0.47377306475546266  0.8590472281936883  0.1492740601788398  1.0000
  N   N24       1.0  0.9738243013373874  0.1409641802974591  0.35073105728938003  1.0000
  N   N25       1.0  0.22786426366703694  0.07899576144485108  0.9052172636899274  1.0000
  N   N26       1.0  0.7278937909385305  0.9209893324889009  0.5947717066137557  1.0000
  N   N27       1.0  0.7720895001551823  0.9209914587127409  0.09478028991967587  1.0000
  N   N28       1.0  0.2721392371008378  0.07900399867945399  0.4052188999341554  1.0000
