data_image0
_chemical_formula_structural       Cu2H8C4N16O4
_chemical_formula_sum              "Cu2 H8 C4 N16 O4"
_cell_length_a       7.372643738755826
_cell_length_b       7.4090545702464405
_cell_length_c       7.405276008682456
_cell_angle_alpha    117.65432925557344
_cell_angle_beta     107.56006310927877
_cell_angle_gamma    93.55764342138285

_space_group_name_H-M_alt    "P 1"
_space_group_IT_number       1

loop_
  _space_group_symop_operation_xyz
  'x, y, z'

loop_
  _atom_site_type_symbol
  _atom_site_label
  _atom_site_symmetry_multiplicity
  _atom_site_fract_x
  _atom_site_fract_y
  _atom_site_fract_z
  _atom_site_occupancy
  Cu  Cu1       1.0  0.822210171931559  0.04989868502708109  0.2760259899959295  1.0000
  Cu  Cu2       1.0  0.17778908660569925  0.9501001925240401  0.7239718219835892  1.0000
  H   H1        1.0  0.9293603647754267  0.4251819848473771  0.633743004560948  1.0000
  H   H2        1.0  0.07063851510978479  0.5748153037300199  0.36625528891837417  1.0000
  H   H3        1.0  0.6892901952300009  0.33727732362934393  0.5350335089863306  1.0000
  H   H4        1.0  0.31070868465521073  0.6627199649480529  0.46496478449299156  1.0000
  H   H5        1.0  0.804109818705406  0.6608537512208129  0.01410331111616599  1.0000
  H   H6        1.0  0.195891147831226  0.3391466304631551  0.9858997974887415  1.0000
  H   H7        1.0  0.7844013388823968  0.7774815657475215  0.8686623560666006  1.0000
  H   H8        1.0  0.2155989162857423  0.22251567747517237  0.1313390473385496  1.0000
  C   C1        1.0  0.3986687756753254  0.7367773454914467  0.1319522198215707  1.0000
  C   C2        1.0  0.6013311023592323  0.2632245915485854  0.8680526337564132  1.0000
  C   C3        1.0  0.5569064604852656  0.7606130695130559  0.3196133738828877  1.0000
  C   C4        1.0  0.4430903802025838  0.23938744823501415  0.6803804049445289  1.0000
  N   N1        1.0  0.1471027659175874  0.6112263342040123  0.8361421138420224  1.0000
  N   N2        1.0  0.8528939599312652  0.3887740848286185  0.1638583354837735  1.0000
  N   N3        1.0  0.5461939497712365  0.6829314224179227  0.4484047123920049  1.0000
  N   N4        1.0  0.45380561851467144  0.31706898487765744  0.5515966203867463  1.0000
  N   N5        1.0  0.24709597983229506  0.5677200616377646  0.9876753805503852  1.0000
  N   N6        1.0  0.7529032557371665  0.43227879617026577  0.012323765528812298  1.0000
  N   N7        1.0  0.8452806298436357  0.8561717406107332  0.5633406131999834  1.0000
  N   N8        1.0  0.1547200269443465  0.14382711132877546  0.4366589746056916  1.0000
  N   N9        1.0  0.39423304058585273  0.8838790988250763  0.07440930027416211  1.0000
  N   N10       1.0  0.6057676391699333  0.11611977285751611  0.9255889534318342  1.0000
  N   N11       1.0  0.2362395054904808  0.8004304021010424  0.8903331871434543  1.0000
  N   N12       1.0  0.7637601087310204  0.19957004468071196  0.10966547743594654  1.0000
  N   N13       1.0  0.728410564829268  0.7452600232067395  0.5989919899441745  1.0000
  N   N14       1.0  0.27158867074018633  0.2547388346012979  0.4010071561350229  1.0000
  N   N15       1.0  0.741511709314679  0.8689451011523843  0.388975994166259  1.0000
  N   N16       1.0  0.25848894747330325  0.13105375078712458  0.6110235936394159  1.0000
  O   O1        1.0  0.8175561449383579  0.2974129064500558  0.5456062381663215  1.0000
  O   O2        1.0  0.1824431595345004  0.7025860105872395  0.45438890561385387  1.0000
  O   O3        1.0  0.8362269079981886  0.7987364744918608  0.02023727186548289  1.0000
  O   O4        1.0  0.16377517000832142  0.2012623715791193  0.9797627576666696  1.0000
