data_image0
_chemical_formula_structural       Ag8H56C56S8N16
_chemical_formula_sum              "Ag8 H56 C56 S8 N16"
_cell_length_a       8.116043539
_cell_length_b       11.240464828
_cell_length_c       18.055
_cell_angle_alpha    90.0
_cell_angle_beta     90.0
_cell_angle_gamma    90.0

_space_group_name_H-M_alt    "P 1"
_space_group_IT_number       1

loop_
  _space_group_symop_operation_xyz
  'x, y, z'

loop_
  _atom_site_type_symbol
  _atom_site_label
  _atom_site_symmetry_multiplicity
  _atom_site_fract_x
  _atom_site_fract_y
  _atom_site_fract_z
  _atom_site_occupancy
  Ag  Ag1       1.0  0.8126644427553984  0.8487620526363528  0.923165882027142  1.0000
  Ag  Ag2       1.0  0.8126508893534918  0.3487827291834122  0.5768330102464674  1.0000
  Ag  Ag3       1.0  0.312663428652904  0.6512230687974564  0.9231686513431187  1.0000
  Ag  Ag4       1.0  0.3126683571626927  0.15122951105772836  0.5768346718360533  1.0000
  Ag  Ag5       1.0  0.187336353322145  0.1512348489152728  0.076835779562451  1.0000
  Ag  Ag6       1.0  0.187336353322145  0.6512284066550009  0.4231625588479631  1.0000
  Ag  Ag7       1.0  0.6873312067874053  0.3487604881103081  0.0768368872888416  1.0000
  Ag  Ag8       1.0  0.6873250461501712  0.8487691697797429  0.4231625588479631  1.0000
  H   H1        1.0  0.9100850635542628  0.0012588447378761  0.7827887011908032  1.0000
  H   H2        1.0  0.9100912241914969  0.5012737539077889  0.7172157297147592  1.0000
  H   H3        1.0  0.4101049956183616  0.49873738193062417  0.7827859318748267  1.0000
  H   H4        1.0  0.410103763490909  0.9987389464566689  0.7172146219883686  1.0000
  H   H5        1.0  0.0899108040134919  0.9987362775278966  0.2172157297147592  1.0000
  H   H6        1.0  0.0898997148664762  0.4987382715735507  0.28278150096925714  1.0000
  H   H7        1.0  0.5898994968415252  0.5012577403351485  0.2172168374411498  1.0000
  H   H8        1.0  0.5898945683317365  0.0012632929524941  0.2827837164220455  1.0000
  H   H9        1.0  0.8887618659680996  0.12486672228213538  0.6564447521462213  1.0000
  H   H10       1.0  0.8887717229876699  0.624859390378937  0.8435602326225435  1.0000
  H   H11       1.0  0.3887620839930506  0.37513929045853434  0.6564425366934402  1.0000
  H   H12       1.0  0.3887645482479485  0.8751399653416526  0.8435591248961531  1.0000
  H   H13       1.0  0.111227840962421  0.87514708248505  0.34356134034893426  1.0000
  H   H14       1.0  0.1112352337271005  0.3751339526009829  0.15643921351426124  1.0000
  H   H15       1.0  0.6112337835747041  0.6248629489506357  0.34355967875934823  1.0000
  H   H16       1.0  0.6112387120844858  0.12485960513874518  0.15643921351426124  1.0000
  H   H17       1.0  0.0284448942259417  0.0141542189255119  0.6268928274716146  1.0000
  H   H18       1.0  0.0284522869906212  0.5141504455940122  0.8731121572971505  1.0000
  H   H19       1.0  0.5284557653480064  0.4858535731010106  0.6268928274716146  1.0000
  H   H20       1.0  0.5284496047107794  0.985848020483658  0.8731110495707526  1.0000
  H   H21       1.0  0.9715472769594768  0.985854247984129  0.3731110495707526  1.0000
  H   H22       1.0  0.9715571339790472  0.4858500145293121  0.1268895042924427  1.0000
  H   H23       1.0  0.4715499592393186  0.5141486663081593  0.3731088341179714  1.0000
  H   H24       1.0  0.471545030729537  0.014147101782114596  0.126890058155638  1.0000
  H   H25       1.0  0.8464543058435154  0.0394610015499595  0.5752450844641359  1.0000
  H   H26       1.0  0.8464715556277653  0.539455448932614  0.9247610080310196  1.0000
  H   H27       1.0  0.3464643808880368  0.46054945940532827  0.5752400996953781  1.0000
  H   H28       1.0  0.3464582202508097  0.9605447964309022  0.9247571309886453  1.0000
  H   H29       1.0  0.1535280083223327  0.9605536928601452  0.4247599003046219  1.0000
  H   H30       1.0  0.1535452581065826  0.4605450111907032  0.0752428690113547  1.0000
  H   H31       1.0  0.6535388794443975  0.5394527800038418  0.42475879257823124  1.0000
  H   H32       1.0  0.6535425758267337  0.0394485465490249  0.0752384381057851  1.0000
  H   H33       1.0  0.6818001866808387  0.8629358437061966  0.5851404043201356  1.0000
  H   H34       1.0  0.6818199007199794  0.3629262723938282  0.914862364995848  1.0000
  H   H35       1.0  0.1818004047057897  0.6370635120144001  0.5851415120465262  1.0000
  H   H36       1.0  0.1818065653430168  0.13706728534589976  0.9148607034062621  1.0000
  H   H37       1.0  0.3181858238673527  0.1370726232034443  0.4148623649958481  1.0000
  H   H38       1.0  0.3181944487594777  0.6370635120144001  0.0851376350041519  1.0000
  H   H39       1.0  0.8181979271168629  0.3629369481089242  0.4148629188590434  1.0000
  H   H40       1.0  0.8181966949894175  0.8629331747774245  0.0851376350041519  1.0000
  H   H41       1.0  0.554015017094649  0.7046826017611707  0.6633303793962925  1.0000
  H   H42       1.0  0.5540273383691101  0.2046828165209718  0.8366679590141218  1.0000
  H   H43       1.0  0.0540016817176934  0.7953123057448008  0.6633325948490736  1.0000
  H   H44       1.0  0.0540140029921545  0.2953178583621465  0.8366674051509264  1.0000
  H   H45       1.0  0.4459796183456604  0.29532230657677155  0.3366690667405123  1.0000
  H   H46       1.0  0.4459845468554491  0.7953140850306468  0.1633303793962924  1.0000
  H   H47       1.0  0.9459966501049593  0.20468815437852325  0.3366690667405123  1.0000
  H   H48       1.0  0.9459917215951776  0.7046843810470236  0.1633320409858783  1.0000
  H   H49       1.0  0.6167672679361687  0.70086336468718  0.7997468845195216  1.0000
  H   H50       1.0  0.6167685000636141  0.20087336551915058  0.7002481307117137  1.0000
  H   H51       1.0  0.1167551646866514  0.7991270946041664  0.7997518692882866  1.0000
  H   H52       1.0  0.1167662538336742  0.29912730936397475  0.7002497923012996  1.0000
  H   H53       1.0  0.383231063886484  0.2991317575785927  0.2002492384381043  1.0000
  H   H54       1.0  0.383222438994359  0.7991297635329458  0.2997479922459121  1.0000
  H   H55       1.0  0.8832370064987671  0.2008706965903784  0.2002520077540879  1.0000
  H   H56       1.0  0.8832357743713217  0.7008749300451952  0.2997496538355051  1.0000
  C   C1        1.0  0.1342378210226087  0.869436464554006  0.0244508446413718  1.0000
  C   C2        1.0  0.1342328925128271  0.3694482446718297  0.47555801716976026  1.0000
  C   C3        1.0  0.6342363708702123  0.6305459879510237  0.0244475214622  1.0000
  C   C4        1.0  0.6342363708702123  0.1305586577117666  0.4755530324009953  1.0000
  C   C5        1.0  0.8657642071823801  0.1305488716395971  0.9755508169482142  1.0000
  C   C6        1.0  0.8657666714372709  0.6305584429519655  0.5244453060094187  1.0000
  C   C7        1.0  0.3657693537171127  0.3694366793138072  0.9755497092218235  1.0000
  C   C8        1.0  0.3657656573347765  0.8694471402691022  0.5244464137358094  1.0000
  C   C9        1.0  0.8331226868742403  0.9363687499632292  0.7538283024093033  1.0000
  C   C10       1.0  0.8331337760212563  0.4363698543659567  0.7461716975906967  1.0000
  C   C11       1.0  0.3331266012815277  0.5636297161144412  0.7538244253669362  1.0000
  C   C12       1.0  0.3331204406443006  0.0636263723025436  0.7461755746330638  1.0000
  C   C13       1.0  0.166869484311178  0.0636334894459409  0.24617335918028263  1.0000
  C   C14       1.0  0.1668744128209667  0.5636279368285954  0.2538244253669362  1.0000
  C   C15       1.0  0.6668631056489929  0.4363698543659567  0.2461766823594544  1.0000
  C   C16       1.0  0.6668680341587816  0.9363696396061556  0.2538227637773502  1.0000
  C   C17       1.0  0.8090518450827631  0.9444440387870401  0.6770960952644672  1.0000
  C   C18       1.0  0.8090580057199972  0.4444442535468411  0.8229066740515094  1.0000
  C   C19       1.0  0.3090532952351595  0.5555562065764761  0.6770960952644672  1.0000
  C   C20       1.0  0.309054527362612  0.0555528627645856  0.8229000276931586  1.0000
  C   C21       1.0  0.1909440224849916  0.05556353847967439  0.3229039047355329  1.0000
  C   C22       1.0  0.1909452546124371  0.5555535376477038  0.1770966491276624  1.0000
  C   C23       1.0  0.6909487329698294  0.4444442535468411  0.32290445859872824  1.0000
  C   C24       1.0  0.6909487329698294  0.9444404802153413  0.1770944336748812  1.0000
  C   C25       1.0  0.7052093760336362  0.8599413056230247  0.6445787870395989  1.0000
  C   C26       1.0  0.7052155366708632  0.3599379618111271  0.8554156743284409  1.0000
  C   C27       1.0  0.2052095940585872  0.6400607190263442  0.644580448629192  1.0000
  C   C28       1.0  0.2052108261860326  0.140064492357844  0.8554245361395729  1.0000
  C   C29       1.0  0.294787723661571  0.140068940572462  0.3554217668235964  1.0000
  C   C30       1.0  0.2947914200439072  0.6400598293834179  0.1445754638604271  1.0000
  C   C31       1.0  0.7947985947836358  0.3599477478832966  0.3554250900027682  1.0000
  C   C32       1.0  0.7947899698915109  0.859933298836708  0.144577125450013  1.0000
  C   C33       1.0  0.6342474600172281  0.7713008432181211  0.6880276931597891  1.0000
  C   C34       1.0  0.634264709801478  0.2712948304774514  0.8119734145666018  1.0000
  C   C35       1.0  0.134241517404952  0.7286967332166299  0.6880304624757657  1.0000
  C   C36       1.0  0.1342476780421791  0.2286969479764309  0.8119678759346414  1.0000
  C   C37       1.0  0.3657508718054174  0.2287040651198211  0.3119695375242344  1.0000
  C   C38       1.0  0.365749639677972  0.7287011814312478  0.1880288008861797  1.0000
  C   C39       1.0  0.8657592786725914  0.2713046165496138  0.3119723068402109  1.0000
  C   C40       1.0  0.8657543501628098  0.7713026225039668  0.1880288008861797  1.0000
  C   C41       1.0  0.6687864565927129  0.768873007677719  0.7634843533647171  1.0000
  C   C42       1.0  0.6688061706318535  0.268875001723373  0.7365134311824946  1.0000
  C   C43       1.0  0.168784210362773  0.7311254583999512  0.7634832456383267  1.0000
  C   C44       1.0  0.1687879067451092  0.231124783516826  0.7365206314040408  1.0000
  C   C45       1.0  0.3312118752299398  0.23113012137437036  0.23651564663528293  1.0000
  C   C46       1.0  0.3312044824652602  0.7311201205423998  0.263478814732764  1.0000
  C   C47       1.0  0.831215353587325  0.2688732224375201  0.23651841595125941  1.0000
  C   C48       1.0  0.831215353587325  0.7688703387489467  0.2634810301855453  1.0000
  C   C49       1.0  0.8966351603501437  0.03593267771221059  0.6315458321794553  1.0000
  C   C50       1.0  0.8966437852422686  0.5359262354519387  0.8684574909997238  1.0000
  C   C51       1.0  0.3966440032672196  0.4640724453855327  0.6315419551370809  1.0000
  C   C52       1.0  0.3966390747574309  0.9640731202686509  0.8684574909997238  1.0000
  C   C53       1.0  0.1033557787078294  0.9640811270549675  0.36845804486291917  1.0000
  C   C54       1.0  0.103363171472509  0.4640679971709075  0.1315425090002762  1.0000
  C   C55       1.0  0.6033592570652146  0.5359297940236374  0.3684585987261144  1.0000
  C   C56       1.0  0.6033592570652146  0.03592467092589399  0.1315408474106903  1.0000
  S   S1        1.0  0.0576302970471261  0.7502696844878185  0.9840974799224611  1.0000
  S   S2        1.0  0.0576290649196807  0.2502832438914879  0.5159080587094991  1.0000
  S   S3        1.0  0.5576300790221751  0.7497154369459835  0.9840969260592659  1.0000
  S   S4        1.0  0.5576313111496205  0.24972187920625535  0.5159052893935225  1.0000
  S   S5        1.0  0.9423729632853082  0.2497147620628652  0.0159041816671248  1.0000
  S   S6        1.0  0.9423741954127536  0.7497278919469251  0.4840952644696728  1.0000
  S   S7        1.0  0.4423694849279229  0.2502707888905462  0.0158997507615624  1.0000
  S   S8        1.0  0.44237564556515  0.7502759119882896  0.4840963721960705  1.0000
  N   N1        1.0  0.1883085018772945  0.9539142877161453  0.0548485184159517  1.0000
  N   N2        1.0  0.1883146625145287  0.4539349642632046  0.4451653281639453  1.0000
  N   N3        1.0  0.6883058195974527  0.5460699440747376  0.0548413181944056  1.0000
  N   N4        1.0  0.6883144444895775  0.04607727597793599  0.44515535862642247  1.0000
  N   N5        1.0  0.8116873656904602  0.04606660026283999  0.9451575740792038  1.0000
  N   N6        1.0  0.811689829945351  0.5460850680044516  0.5548346718360548  1.0000
  N   N7        1.0  0.3116999049898794  0.4539198403334908  0.9451570202160086  1.0000
  N   N8        1.0  0.3116826552056295  0.9539258530741603  0.5548385488784291  1.0000
  N   N9        1.0  0.7663118082245146  0.8504434777632639  0.7961002492384353  1.0000
  N   N10       1.0  0.7662994869500537  0.3504623750244775  0.7038997507615647  1.0000
  N   N11       1.0  0.2663120262494658  0.6495514297427077  0.7960985876488493  1.0000
  N   N12       1.0  0.2663218832690362  0.1495534237883547  0.7039014123511507  1.0000
  N   N13       1.0  0.2336951484902556  0.14955164450250888  0.2038997507615647  1.0000
  N   N14       1.0  0.2336840593432399  0.6495523193856272  0.2960974799224587  1.0000
  N   N15       1.0  0.7336875377006251  0.3504463614518443  0.2039014123511507  1.0000
  N   N16       1.0  0.7336850734457343  0.8504488156208153  0.2960963721960681  1.0000
