data_image0
_chemical_formula_structural       Zn8H24C56O30
_chemical_formula_sum              "Zn8 H24 C56 O30"
_cell_length_a       15.944573142333809
_cell_length_b       16.007071380034535
_cell_length_c       17.145014264536467
_cell_angle_alpha    117.73666288672497
_cell_angle_beta     117.01636461947857
_cell_angle_gamma    89.95034738199953

_space_group_name_H-M_alt    "P 1"
_space_group_IT_number       1

loop_
  _space_group_symop_operation_xyz
  'x, y, z'

loop_
  _atom_site_type_symbol
  _atom_site_label
  _atom_site_symmetry_multiplicity
  _atom_site_fract_x
  _atom_site_fract_y
  _atom_site_fract_z
  _atom_site_occupancy
  Zn  Zn1       1.0  0.20570147722234824  0.10621698128709767  0.9104460919827632  1.0000
  Zn  Zn2       1.0  0.6074386340285756  0.7068574607650291  0.9129071444383144  1.0000
  Zn  Zn3       1.0  0.20663834459308825  0.3054644060723888  0.9112979846850211  1.0000
  Zn  Zn4       1.0  0.7933544051303233  0.6945307327196771  0.08869588428163405  1.0000
  Zn  Zn5       1.0  0.392558336701157  0.29313766701618243  0.08708851271808978  1.0000
  Zn  Zn6       1.0  0.7942998865887388  0.8937839854975491  0.089551611149389  1.0000
  Zn  Zn7       1.0  0.19490164735812238  0.2950347807709547  0.0909339353903746  1.0000
  Zn  Zn8       1.0  0.8050954082956711  0.7049632752487794  0.9090624348447208  1.0000
  H   H1        1.0  0.9343403222853157  0.45197585402210194  0.7385031692677232  1.0000
  H   H2        1.0  0.9750765087122987  0.5739615149390715  0.3531256804257127  1.0000
  H   H3        1.0  0.5495350528066113  0.6350147105239045  0.24744160143647778  1.0000
  H   H4        1.0  0.4504845888826879  0.36497298046984367  0.7525517358013689  1.0000
  H   H5        1.0  0.02498651685776567  0.42604879315560845  0.6468975685894662  1.0000
  H   H6        1.0  0.8985330441948353  0.07104870056814862  0.40045326442713514  1.0000
  H   H7        1.0  0.10146099951337817  0.928948633614837  0.5995420990431556  1.0000
  H   H8        1.0  0.6640717148607254  0.6123508711956306  0.5975182129942954  1.0000
  H   H9        1.0  0.0657216067721791  0.5480513012280214  0.26152453170375634  1.0000
  H   H10       1.0  0.33592804289342854  0.38764937331336574  0.40247966362199616  1.0000
  H   H11       1.0  0.08626870544171789  0.3162469327553623  0.5563260475186951  1.0000
  H   H12       1.0  0.9137757085903078  0.6837466086502318  0.4436896623259232  1.0000
  H   H13       1.0  0.4334613475971807  0.6331991350322637  0.2890787281507627  1.0000
  H   H14       1.0  0.5665477593916536  0.3667885317865966  0.7109007916415921  1.0000
  H   H15       1.0  0.7052277066178263  0.5945558546946331  0.2663701982216581  1.0000
  H   H16       1.0  0.8967428978071725  0.15002549818100158  0.6558297466558758  1.0000
  H   H17       1.0  0.10324523318778488  0.8499915563830385  0.3441564277284429  1.0000
  H   H18       1.0  0.7081352819734833  0.48275677377011317  0.453000902174921  1.0000
  H   H19       1.0  0.2918639401576328  0.5172442889984836  0.5470122640618059  1.0000
  H   H20       1.0  0.2948011365593217  0.40543482469656317  0.7336429153340661  1.0000
  H   H21       1.0  0.8688543546142854  0.3132823626094208  0.7424033392429126  1.0000
  H   H22       1.0  0.13116256373733384  0.6867448713132517  0.2575982774762054  1.0000
  H   H23       1.0  0.7852491802085171  0.5168806517261686  0.3696359323323649  1.0000
  H   H24       1.0  0.21476933293474326  0.48311893361760383  0.630391791370201  1.0000
  C   C1        1.0  0.3869914603975034  0.3928050958690791  0.2785125700384726  1.0000
  C   C2        1.0  0.09118801956019945  0.6976009408730377  0.2974297634856812  1.0000
  C   C3        1.0  0.4150352264394429  0.4630355654214497  0.6035322078194129  1.0000
  C   C4        1.0  0.9761114367867805  0.1951386167949707  0.6028814778867185  1.0000
  C   C5        1.0  0.023892044208210516  0.8048623250959963  0.3971136142261431  1.0000
  C   C6        1.0  0.5849653522869005  0.5369624652656952  0.39646273164533613  1.0000
  C   C7        1.0  0.9246295105929079  0.21116795157275453  0.6542797903621536  1.0000
  C   C8        1.0  0.07537529535136397  0.7888483620843304  0.34571956399980774  1.0000
  C   C9        1.0  0.6741457182187249  0.5169859204778575  0.40845000412872434  1.0000
  C   C10       1.0  0.325860940372941  0.4830165661370671  0.591562850772398  1.0000
  C   C11       1.0  0.7176756283187373  0.536791520544753  0.36207020627281156  1.0000
  C   C12       1.0  0.2823380039988095  0.4632029051060229  0.6379456410895658  1.0000
  C   C13       1.0  0.9088373677838393  0.3024211469595954  0.7025744022795595  1.0000
  C   C14       1.0  0.9451303362480772  0.3799043409801612  0.7000087097453475  1.0000
  C   C15       1.0  0.05492224824090641  0.6201221121808658  0.3000158863623882  1.0000
  C   C16       1.0  0.6728362162748597  0.5792954925075904  0.30396796523974273  1.0000
  C   C17       1.0  0.6130059900255774  0.607194421736651  0.7214840136589374  1.0000
  C   C18       1.0  0.3271850774244173  0.42069596209847754  0.6960463580919624  1.0000
  C   C19       1.0  0.9440243468448984  0.0408531772689003  0.445192834113506  1.0000
  C   C20       1.0  0.05596719159086653  0.95914270083351  0.5548014217995958  1.0000
  C   C21       1.0  0.5921437127911775  0.5616491473753271  0.5535517280008693  1.0000
  C   C22       1.0  0.4078542420781233  0.43834964244932445  0.4464459232755545  1.0000
  C   C23       1.0  0.11049666177327572  0.11102713467739281  0.721541187683073  1.0000
  C   C24       1.0  0.9500564709383994  0.945042625484298  0.39290601873228315  1.0000
  C   C25       1.0  0.0499392907305989  0.05495323514451661  0.6070888569991766  1.0000
  C   C26       1.0  0.5539004804512403  0.5478047788960225  0.6070373215218653  1.0000
  C   C27       1.0  0.4460952508975995  0.45219621549526334  0.39296033410006725  1.0000
  C   C28       1.0  0.8895000002246933  0.8889694565249685  0.27845438490401647  1.0000
  C   C29       1.0  0.007780475759758935  0.9027423993473178  0.4478050334442259  1.0000
  C   C30       1.0  0.992216191805497  0.09725417569816129  0.5521876182143971  1.0000
  C   C31       1.0  0.4599713389750164  0.48461966913827587  0.5534302272914504  1.0000
  C   C32       1.0  0.5400236922131398  0.5153813173940237  0.44656537774177013  1.0000
  C   C33       1.0  0.027155261775597177  0.47343957406696546  0.0006929921151624644  1.0000
  C   C34       1.0  0.9728363125476209  0.5265511541160989  0.9992955629789935  1.0000
  C   C35       1.0  0.47269116080953216  0.0263852210064286  0.9991201020401732  1.0000
  C   C36       1.0  0.5273074126367661  0.9736106387445673  0.0008771341891817152  1.0000
  C   C37       1.0  0.473142439244974  0.47289529798158003  0.999696406754623  1.0000
  C   C38       1.0  0.5268468397828698  0.5271079346068178  0.0003035543229258672  1.0000
  C   C39       1.0  0.408547453182699  0.09035923212217507  0.9982073853557978  1.0000
  C   C40       1.0  0.591449207701807  0.9096373623115571  0.0017887714169833016  1.0000
  C   C41       1.0  0.0918884694567126  0.4099660317692724  0.0017985323833116067  1.0000
  C   C42       1.0  0.9081031842232788  0.5900276408091898  0.9981936567180156  1.0000
  C   C43       1.0  0.4086270274253323  0.408419697009144  0.998670467508987  1.0000
  C   C44       1.0  0.5913648743460984  0.5915827796731181  0.0013273659425937208  1.0000
  C   C45       1.0  0.0918250498216722  0.09170564015740722  0.0018226195162399346  1.0000
  C   C46       1.0  0.90817903527536  0.9082924136677877  0.9981796519635822  1.0000
  C   C47       1.0  0.027133385762340402  0.027395096440528705  0.0008692612745804073  1.0000
  C   C48       1.0  0.9728727249137848  0.9726000236407302  0.9991331912214252  1.0000
  C   C49       1.0  0.9960920891676822  0.3654948296951305  0.648720887732175  1.0000
  C   C50       1.0  0.003961054840559094  0.6345206443167584  0.35130213710210983  1.0000
  C   C51       1.0  0.5849452934465732  0.6016182706390013  0.29271636328687123  1.0000
  C   C52       1.0  0.4150699738778202  0.3983767932716517  0.7072841217633228  1.0000
  C   C53       1.0  0.011456327711030691  0.27365612412769746  0.6000681291467417  1.0000
  C   C54       1.0  0.9885699381619589  0.7263484455369492  0.39994228536639304  1.0000
  C   C55       1.0  0.5408781614499604  0.5801133279208556  0.33780588214553137  1.0000
  C   C56       1.0  0.45912534318445364  0.4198824995958931  0.6621899351910301  1.0000
  O   O1        1.0  0.2491359005130391  0.2500074633645681  8.205235175851651e-06  1.0000
  O   O2        1.0  0.7059148006586186  0.6293166893214205  0.7632304535162789  1.0000
  O   O3        1.0  0.12799623463560292  0.0611390872522577  0.764965032947096  1.0000
  O   O4        1.0  0.8720047624994438  0.9388552906466715  0.23503084520366715  1.0000
  O   O5        1.0  0.4503502294952001  0.18159846393762538  0.06051211844870611  1.0000
  O   O6        1.0  0.5496436262927561  0.8183981119856654  0.9394781727120288  1.0000
  O   O7        1.0  0.12438966674071143  0.3922262785617932  0.941812321618933  1.0000
  O   O8        1.0  0.8756065982610511  0.6077688575173212  0.05818420587723266  1.0000
  O   O9        1.0  0.7508590457510564  0.7499905949292154  0.9999866867193533  1.0000
  O   O10       1.0  0.4499517054351969  0.37583928482004586  0.05774552893543475  1.0000
  O   O11       1.0  0.5500382848879113  0.6241639233135743  0.94225064087388  1.0000
  O   O12       1.0  0.31767793829845903  0.39171142716343604  0.9387471166000554  1.0000
  O   O13       1.0  0.6823131783882276  0.6082881134213239  0.061247953184114814  1.0000
  O   O14       1.0  0.11110600115694783  0.18304624235551611  0.06426986864086368  1.0000
  O   O15       1.0  0.8888947699434768  0.8169525336658198  0.9357278063906735  1.0000
  O   O16       1.0  0.12234557952593413  0.0496221268062556  0.9399574788395598  1.0000
  O   O17       1.0  0.8776608140156272  0.9503766506908207  0.06004550137345186  1.0000
  O   O18       1.0  0.3176228892200399  0.0486257368238512  0.9354202165904655  1.0000
  O   O19       1.0  0.6823734910259488  0.9513671937313075  0.06457424409392583  1.0000
  O   O20       1.0  0.10913516729053899  0.3791732857557619  0.0625699539055873  1.0000
  O   O21       1.0  0.890856678763541  0.6208211321568909  0.9374249707625214  1.0000
  O   O22       1.0  0.4342580056029633  0.3660332769023782  0.23168206764558635  1.0000
  O   O23       1.0  0.5657409592722402  0.6339640541287468  0.7683171346031585  1.0000
  O   O24       1.0  0.14228809049765803  0.2035975659710871  0.76699154235952  1.0000
  O   O25       1.0  0.8577069632164579  0.7963983094183718  0.2330053720830989  1.0000
  O   O26       1.0  0.2940826519913742  0.3706828218215605  0.23676496180974746  1.0000
  O   O27       1.0  0.06262002324208281  0.2561812305225573  0.5502356512117075  1.0000
  O   O28       1.0  0.9373962877487545  0.7438072311379713  0.44976185236325983  1.0000
  O   O29       1.0  0.45330023929867036  0.5994421479914535  0.3267431051591104  1.0000
  O   O30       1.0  0.5467075857410748  0.4005565547450729  0.6732476190318692  1.0000
