data_image0
_chemical_formula_structural       Zn2Si2H32C40S4N8F12
_chemical_formula_sum              "Zn2 Si2 H32 C40 S4 N8 F12"
_cell_length_a       7.702073331119556
_cell_length_b       10.218382366676014
_cell_length_c       16.358232034596575
_cell_angle_alpha    103.31131925404611
_cell_angle_beta     89.99957489512612
_cell_angle_gamma    89.99963493267721

_space_group_name_H-M_alt    "P 1"
_space_group_IT_number       1

loop_
  _space_group_symop_operation_xyz
  'x, y, z'

loop_
  _atom_site_type_symbol
  _atom_site_label
  _atom_site_symmetry_multiplicity
  _atom_site_fract_x
  _atom_site_fract_y
  _atom_site_fract_z
  _atom_site_occupancy
  Zn  Zn1       1.0  0.69745766102551  0.7500002001815175  0.7500001202220474  1.0000
  Zn  Zn2       1.0  0.3025440791448517  0.2500008524984309  0.25000063858998794  1.0000
  Si  Si1       1.0  0.19982542160057903  0.7499987782848052  0.7499995703800549  1.0000
  Si  Si2       1.0  0.8001763186101415  0.24999922486505705  0.24999770524643586  1.0000
  H   H1        1.0  0.9822217878107438  0.3038645897116155  0.5896988405406489  1.0000
  H   H2        1.0  0.9822248959558098  0.1961347503175759  0.910298067903689  1.0000
  H   H3        1.0  0.01777346059625271  0.6961364695199846  0.4103025305250724  1.0000
  H   H4        1.0  0.0177755458633087  0.8038653032716636  0.08970316248770867  1.0000
  H   H5        1.0  0.44821658187413516  0.3490760811633677  0.5207023146429463  1.0000
  H   H6        1.0  0.44821897723937104  0.15092573704873047  0.9792998678970335  1.0000
  H   H7        1.0  0.5517773681922761  0.6509219677263544  0.4792992466763764  1.0000
  H   H8        1.0  0.5517775695427645  0.8490772877151398  0.020697498815927362  1.0000
  H   H9        1.0  0.4501831441947389  0.5770060007382796  0.6195953353241705  1.0000
  H   H10       1.0  0.45017703193778397  0.9229979893819973  0.880404439572004  1.0000
  H   H11       1.0  0.5498121042273285  0.4229940398063972  0.3804046705999155  1.0000
  H   H12       1.0  0.549819514845268  0.0770030371920569  0.1195938702939543  1.0000
  H   H13       1.0  0.9648740998185233  0.531734968231312  0.6848868789927849  1.0000
  H   H14       1.0  0.9648686411798054  0.9682646964626539  0.8151110990435058  1.0000
  H   H15       1.0  0.03512244694945111  0.4682670770296582  0.3151127960148159  1.0000
  H   H16       1.0  0.03513180063536231  0.03173336546742429  0.18489168674027917  1.0000
  H   H17       1.0  0.5208176895333096  0.1634812084974442  0.6345888318345416  1.0000
  H   H18       1.0  0.5208151368798184  0.3365151189291494  0.8654129396611622  1.0000
  H   H19       1.0  0.47918924403897734  0.8365198506963905  0.36541253920542965  1.0000
  H   H20       1.0  0.4791917966978048  0.6634849346391006  0.13458829071592499  1.0000
  H   H21       1.0  0.8989386513056489  0.9021896004949779  0.48292192921685023  1.0000
  H   H22       1.0  0.898943614938233  0.5978104543070089  0.01707615714190781  1.0000
  H   H23       1.0  0.10105659715723903  0.0978063914247116  0.5170750650981901  1.0000
  H   H24       1.0  0.1010594235682873  0.4021926161505717  0.9829254952324077  1.0000
  H   H25       1.0  0.8817638548708758  0.7561447657947369  0.5856319452322509  1.0000
  H   H26       1.0  0.8817703932884842  0.74385644160845  0.9143665397383173  1.0000
  H   H27       1.0  0.11823528862182543  0.24385325695553203  0.41436716711810817  1.0000
  H   H28       1.0  0.11823004852485043  0.25614561670127484  0.0856343597394584  1.0000
  H   H29       1.0  0.5014459737354571  0.9972667239566918  0.7237436824702143  1.0000
  H   H30       1.0  0.5014528262269523  0.5027339440677493  0.7762578934318682  1.0000
  H   H31       1.0  0.49855706479193895  0.0027333230934800997  0.2762569356760807  1.0000
  H   H32       1.0  0.49855280899409854  0.49726611603536947  0.22374394918746526  1.0000
  C   C1        1.0  0.7157509973872322  0.30867234213137346  0.5472580376122168  1.0000
  C   C2        1.0  0.7157638609174839  0.1913297191006365  0.9527395736702503  1.0000
  C   C3        1.0  0.2842429526733882  0.6913277114788341  0.4527431927934842  1.0000
  C   C4        1.0  0.28423528255389396  0.8086723261519425  0.047260101331630694  1.0000
  C   C5        1.0  0.8620227087419539  0.3611054892963637  0.5941569321326341  1.0000
  C   C6        1.0  0.862012085825967  0.13889665843936427  0.9058426241480221  1.0000
  C   C7        1.0  0.1379725396654976  0.6388945708403212  0.405844910509586  1.0000
  C   C8        1.0  0.1379844609477985  0.861103382101113  0.09415738177320065  1.0000
  C   C9        1.0  0.5650626062473666  0.38655677766948315  0.5558233129389265  1.0000
  C   C10       1.0  0.5650515901351909  0.11344327328071557  0.9441776017443431  1.0000
  C   C11       1.0  0.43493264217075034  0.6134412712160396  0.44417824837753267  1.0000
  C   C12       1.0  0.434943658296163  0.8865577532975307  0.05582070812447168  1.0000
  C   C13       1.0  0.566127589037869  0.5136960558538276  0.6102303561236155  1.0000
  C   C14       1.0  0.5661337808810599  0.9863081774686503  0.8897678239191649  1.0000
  C   C15       1.0  0.4338663610276257  0.48630399122571794  0.3897702620427097  1.0000
  C   C16       1.0  0.43386666094155407  0.013694866874644197  0.11023137950335378  1.0000
  C   C17       1.0  0.8532955328391056  0.4883324765734259  0.6472759706846604  1.0000
  C   C18       1.0  0.8533049951406327  0.011667683594630796  0.8527202814929851  1.0000
  C   C19       1.0  0.14669841721618582  0.5116685826623666  0.35272540038391753  1.0000
  C   C20       1.0  0.14669674502531652  0.9883323765210789  0.1472815611349318  1.0000
  C   C21       1.0  0.7117064111492297  0.0460118630489532  0.5503240228796358  1.0000
  C   C22       1.0  0.7117080309190627  0.4539832111022476  0.9496750705709687  1.0000
  C   C23       1.0  0.2882953290420005  0.9539861662235862  0.44967570170437904  1.0000
  C   C24       1.0  0.28829760430198803  0.5460168490008781  0.05032677204836487  1.0000
  C   C25       1.0  0.6020274779019773  0.0737798613736302  0.6206967072902287  1.0000
  C   C26       1.0  0.6020382345372328  0.4262300068665327  0.8793054510558916  1.0000
  C   C27       1.0  0.39797556062008255  0.9262211913021188  0.37930405151894314  1.0000
  C   C28       1.0  0.39796999738187827  0.5737710588537722  0.12069653222059877  1.0000
  C   C29       1.0  0.8089299001267208  0.926735969712368  0.5355660467713648  1.0000
  C   C30       1.0  0.8089344807259166  0.5732667205624862  0.9644335121121728  1.0000
  C   C31       1.0  0.19106794501961133  0.07326104741650849  0.46443292491897387  1.0000
  C   C32       1.0  0.1910685577810654  0.42673535080018593  0.03556861183864157  1.0000
  C   C33       1.0  0.7982482595634437  0.8442404031050971  0.592076046760063  1.0000
  C   C34       1.0  0.7982504457363008  0.6557573411439319  0.9079240803710817  1.0000
  C   C35       1.0  0.2017508839345936  0.15575661401958737  0.40792292492741206  1.0000
  C   C36       1.0  0.20175129441899034  0.34424473022293256  0.09207804358258899  1.0000
  C   C37       1.0  0.5932931441725559  0.9827178726205474  0.6717069187612666  1.0000
  C   C38       1.0  0.5932938575735633  0.5172761876751293  0.8282952450904801  1.0000
  C   C39       1.0  0.4067098943650437  0.0172811622733775  0.3282929464827689  1.0000
  C   C40       1.0  0.40670788259726015  0.48272386590991095  0.171705985298054  1.0000
  S   S1        1.0  0.7278593578351932  0.14779515325933085  0.4770112180876538  1.0000
  S   S2        1.0  0.7278633917663627  0.35220281044541213  0.022989268376306892  1.0000
  S   S3        1.0  0.27213978563710134  0.8522048938034315  0.5229894000672245  1.0000
  S   S4        1.0  0.2721396467566137  0.6477962440405206  0.9770124335858696  1.0000
  N   N1        1.0  0.7079187173102144  0.563789346674703  0.6547515816973188  1.0000
  N   N2        1.0  0.7079013654421615  0.936212004823922  0.8452499778208774  1.0000
  N   N3        1.0  0.29207782945334776  0.4362117060220284  0.3452491771261634  1.0000
  N   N4        1.0  0.29209388297016403  0.06378804878209368  0.1547512525819599  1.0000
  N   N5        1.0  0.6917451273891971  0.8707183072835464  0.6589860636640026  1.0000
  N   N6        1.0  0.6917537881510613  0.6292841477521236  0.8410150955034155  1.0000
  N   N7        1.0  0.3082566127918299  0.12928073414524727  0.341014413822279  1.0000
  N   N8        1.0  0.30824795200909705  0.37071791708407187  0.15898641621087958  1.0000
  F   F1        1.0  0.4264669926214567  0.7500010758567015  0.7500007174005034  1.0000
  F   F2        1.0  0.5735334492526435  0.24999590861044396  0.24999519308720863  1.0000
  F   F3        1.0  0.9722979422341638  0.749998293379839  0.7499981494186089  1.0000
  F   F4        1.0  0.0277024996199842  0.24999971630489173  0.24999973845012846  1.0000
  F   F5        1.0  0.19953142425091394  0.9104473353193326  0.7369525590918116  1.0000
  F   F6        1.0  0.19953126563029142  0.5895502231508302  0.7630465829644065  1.0000
  F   F7        1.0  0.8004690175881564  0.08955169305231438  0.2630466939185609  1.0000
  F   F8        1.0  0.8004678779071812  0.41044574263359834  0.23694796238452648  1.0000
  F   F9        1.0  0.19964644507413007  0.8115577081541616  0.8566576912938401  1.0000
  F   F10       1.0  0.19965254482708159  0.6884378383012616  0.6433411689158888  1.0000
  F   F11       1.0  0.8003565935047448  0.1884362790198608  0.1433396339176554  1.0000
  F   F12       1.0  0.8003465986744447  0.3115621695774776  0.3566557758027074  1.0000
