data_image0
_chemical_formula_structural       K2H48C24I2Cl4O12
_chemical_formula_sum              "K2 H48 C24 I2 Cl4 O12"
_cell_length_a       8.024363141003866
_cell_length_b       8.85860789121713
_cell_length_c       13.886611230465292
_cell_angle_alpha    101.88549643601266
_cell_angle_beta     90.00004862980056
_cell_angle_gamma    89.99989090668323

_space_group_name_H-M_alt    "P 1"
_space_group_IT_number       1

loop_
  _space_group_symop_operation_xyz
  'x, y, z'

loop_
  _atom_site_type_symbol
  _atom_site_label
  _atom_site_symmetry_multiplicity
  _atom_site_fract_x
  _atom_site_fract_y
  _atom_site_fract_z
  _atom_site_occupancy
  K   K1        1.0  0.5000024942177532  0.9999997811749282  1.2093620327023753e-06  1.0000
  K   K2        1.0  0.9999894835917686  0.4999961090745373  0.4999980885286065  1.0000
  H   H1        1.0  0.7149459509325454  0.4956198371003352  0.018086999706454793  1.0000
  H   H2        1.0  0.21494949651601303  0.004380943884740401  0.48191240538648134  1.0000
  H   H3        1.0  0.2850508545448136  0.50438243056216  0.9819145738590581  1.0000
  H   H4        1.0  0.785052293779046  0.9956201696629917  0.5180854160234533  1.0000
  H   H5        1.0  0.8328096950485175  0.32989081084345884  0.03317223359071162  1.0000
  H   H6        1.0  0.3328128707735232  0.17010977699467844  0.4668286438847888  1.0000
  H   H7        1.0  0.16718586422401668  0.6701114568200524  0.9668293399746235  1.0000
  H   H8        1.0  0.6671876733177841  0.829891336767581  0.5331706177892103  1.0000
  H   H9        1.0  0.6871445228675483  0.46701840317472687  0.18774033387828842  1.0000
  H   H10       1.0  0.1871452656412913  0.032985884152815  0.3122595181252593  1.0000
  H   H11       1.0  0.3128547750205399  0.5329827109088255  0.812261088191889  1.0000
  H   H12       1.0  0.8128552784483887  0.9670163830795885  0.6877391749122951  1.0000
  H   H13       1.0  0.490666626739241  0.42251113401996326  0.12657149170615165  1.0000
  H   H14       1.0  0.9906694674295267  0.07749150189413712  0.37342901164523584  1.0000
  H   H15       1.0  0.5093326711515688  0.5774876730165629  0.8734303475048081  1.0000
  H   H16       1.0  0.009332322866598  0.9225096118671062  0.6265702500289339  1.0000
  H   H17       1.0  0.4319319934500214  0.27908241706997233  0.2560178272901085  1.0000
  H   H18       1.0  0.9319343422552891  0.22091916151767063  0.24398178842798054  1.0000
  H   H19       1.0  0.5680685506456058  0.7209163899655238  0.7439840119210219  1.0000
  H   H20       1.0  0.0680686942456887  0.7790807984521422  0.7560158814864553  1.0000
  H   H21       1.0  0.6374548531715262  0.3065995177215513  0.3052813391232122  1.0000
  H   H22       1.0  0.1374575784109382  0.1934013904985576  0.19471876498506197  1.0000
  H   H23       1.0  0.36254444471875763  0.6933992892082088  0.6947197799556266  1.0000
  H   H24       1.0  0.8625454580894784  0.8065997231549032  0.8052797765571571  1.0000
  H   H25       1.0  0.6880285945648409  0.019334871246528003  0.2460120048937925  1.0000
  H   H26       1.0  0.18802955858158302  0.480667107476684  0.25398754435936877  1.0000
  H   H27       1.0  0.3119719495281005  0.9806650890456017  0.7539878254166582  1.0000
  H   H28       1.0  0.8119709855096957  0.5193351600759826  0.7460133090745347  1.0000
  H   H29       1.0  0.5366122349733972  0.0697561184751549  0.34216951718896393  1.0000
  H   H30       1.0  0.036613162813083  0.4302449549697442  0.15782911917478512  1.0000
  H   H31       1.0  0.4633895553259891  0.9302426883458138  0.657830881758102  1.0000
  H   H32       1.0  0.9633898736868004  0.5697561585769648  0.842168702235327  1.0000
  H   H33       1.0  0.3987574816513799  0.8158244687960449  0.28759274349117453  1.0000
  H   H34       1.0  0.8987573685031975  0.6841773553175299  0.21240656415774592  1.0000
  H   H35       1.0  0.6012455548517224  0.18417549160079005  0.7124078069517311  1.0000
  H   H36       1.0  0.1012444217923942  0.31582375833696114  0.7875919773843097  1.0000
  H   H37       1.0  0.5648030382815392  0.772531107526156  0.19979069462738866  1.0000
  H   H38       1.0  0.06480210915790961  0.7274701111986559  0.3002105309180507  1.0000
  H   H39       1.0  0.4351999982231902  0.2274676994005418  0.8002104244519617  1.0000
  H   H40       1.0  0.9351984349361261  0.2725286955165771  0.6997891478967306  1.0000
  H   H41       1.0  0.3006451325362605  0.6175111548693124  0.15474525287200447  1.0000
  H   H42       1.0  0.8006435533344104  0.8824885231561269  0.3452544451814461  1.0000
  H   H43       1.0  0.6993566577620314  0.38248880552855263  0.8452552975707308  1.0000
  H   H44       1.0  0.19935823696554422  0.1175091299811868  0.6547450821378292  1.0000
  H   H45       1.0  0.19774830102349483  0.791042998515131  0.14092454172948982  1.0000
  H   H46       1.0  0.6977483523849202  0.7089568483158217  0.35907512828435273  1.0000
  H   H47       1.0  0.8022485044549584  0.20895811557046778  0.8590768803403537  1.0000
  H   H48       1.0  0.30224845309413695  0.2910419582957219  0.6409238303978031  1.0000
  C   C1        1.0  0.7056456586510578  0.37763526059057984  0.0323686127481082  1.0000
  C   C2        1.0  0.2056451970811182  0.12236899649276012  0.4676319644290389  1.0000
  C   C3        1.0  0.2943548854446121  0.6223623926545088  0.9676316347031177  1.0000
  C   C4        1.0  0.7943553470101962  0.8776321172695062  0.53236729724496  1.0000
  C   C5        1.0  0.621278904173579  0.3839724399636566  0.13003367441015712  1.0000
  C   C6        1.0  0.1212832965621828  0.11602964836934859  0.3699665767859984  1.0000
  C   C7        1.0  0.3787141626904216  0.6160286741250047  0.8699677476591677  1.0000
  C   C8        1.0  0.8787172475291242  0.8839714653929179  0.6300326848880078  1.0000
  C   C9        1.0  0.5603160564057248  0.23299552829607253  0.2483941130172625  1.0000
  C   C10       1.0  0.060318711235453314  0.2670066600506402  0.25160612156601303  1.0000
  C   C11       1.0  0.439684487687714  0.767005585893216  0.7516080291851994  1.0000
  C   C12       1.0  0.9396830790612399  0.7329933000269548  0.7483922684803732  1.0000
  C   C13       1.0  0.5629008679647001  0.0697306737840009  0.2640520916565309  1.0000
  C   C14       1.0  0.06290066484849889  0.4302703566409036  0.23594727200293872  1.0000
  C   C15       1.0  0.4371009223346859  0.9302681330369681  0.7359483072905351  1.0000
  C   C16       1.0  0.9370998792422826  0.5697307570146037  0.7640512695389464  1.0000
  C   C17       1.0  0.4386484348761215  0.8229584063354595  0.21240666723748802  1.0000
  C   C18       1.0  0.9386484476671272  0.6770421988649816  0.2875932199183567  1.0000
  C   C19       1.0  0.5613508630136295  0.1770404004875488  0.7875937317092369  1.0000
  C   C20       1.0  0.061350850220463805  0.32295776132141185  0.7124058902598094  1.0000
  C   C21       1.0  0.32026400157262463  0.7328179337013625  0.13783712243272114  1.0000
  C   C22       1.0  0.8202626891663345  0.767182865715114  0.36216273246266445  1.0000
  C   C23       1.0  0.6797415273428056  0.2671808734368  0.8621654369111982  1.0000
  C   C24       1.0  0.1797403473340751  0.23281824793834716  0.6378358090795617  1.0000
  I   I1        1.0  0.999999297889218  0.9999988067162563  0.9999996788146108  1.0000
  I   I2        1.0  0.49999964894459475  0.49999998025332804  0.5000006352872577  1.0000
  Cl  Cl1       1.0  0.18499709649977802  0.22081735992345125  0.9693554372791343  1.0000
  Cl  Cl2       1.0  0.6849977620142412  0.2791805991445386  0.5306449385162539  1.0000
  Cl  Cl3       1.0  0.8150009551846651  0.7791802930034208  0.030642649775401803  1.0000
  Cl  Cl4       1.0  0.3150015358766041  0.7208170541015804  0.4693553089348016  1.0000
  O   O1        1.0  0.6082181491780574  0.28193287895349783  0.9575171940761111  1.0000
  O   O2        1.0  0.10821935177840199  0.2180663595434851  0.5424825921603045  1.0000
  O   O3        1.0  0.3917799025052489  0.7180670813406776  0.04248263623399849  1.0000
  O   O4        1.0  0.8917811923151078  0.7819324470649889  0.4575163665223557  1.0000
  O   O5        1.0  0.6248855951405049  0.23370570466078533  0.15258710679253804  1.0000
  O   O6        1.0  0.12488714666775991  0.2662952241807162  0.34741299389040153  1.0000
  O   O7        1.0  0.375113702749772  0.7662931022689818  0.8474140122863008  1.0000
  O   O8        1.0  0.875112151219298  0.7337047358989183  0.6525853961556438  1.0000
  O   O9        1.0  0.4417313726577349  0.980080106323676  0.2013428143063224  1.0000
  O   O10       1.0  0.9417317313202389  0.5199204938187804  0.2986570736896824  1.0000
  O   O11       1.0  0.5582691714373669  0.019918700605067792  0.798658304772687  1.0000
  O   O12       1.0  0.05826756656681909  0.48007946626085374  0.7013413163563627  1.0000
