data_image0
_chemical_formula_structural       Cu2H20C24N8O20
_chemical_formula_sum              "Cu2 H20 C24 N8 O20"
_cell_length_a       5.451567396444608
_cell_length_b       9.73139171300684
_cell_length_c       14.037090889254232
_cell_angle_alpha    90.00012516933843
_cell_angle_beta     94.56498698281044
_cell_angle_gamma    89.9994320374025

_space_group_name_H-M_alt    "P 1"
_space_group_IT_number       1

loop_
  _space_group_symop_operation_xyz
  'x, y, z'

loop_
  _atom_site_type_symbol
  _atom_site_label
  _atom_site_symmetry_multiplicity
  _atom_site_fract_x
  _atom_site_fract_y
  _atom_site_fract_z
  _atom_site_occupancy
  Cu  Cu1       1.0  0.4999999858520709  1.6972446132999998e-06  0.5000010870324941  1.0000
  Cu  Cu2       1.0  0.999999858302431  0.49999998834341847  1.2176566884183254e-06  1.0000
  H   H1        1.0  0.8867173184097512  0.9127595990207025  0.40829970011191824  1.0000
  H   H2        1.0  0.613269854593952  0.4127642973135436  0.09169976293747338  1.0000
  H   H3        1.0  0.11327704850979362  0.0872415642614541  0.5917013292745636  1.0000
  H   H4        1.0  0.38673014865008787  0.58723686593531  0.9083008804308363  1.0000
  H   H5        1.0  0.6303000422433058  0.8278285706207882  0.3867649219684707  1.0000
  H   H6        1.0  0.8696817700601969  0.3278316465499884  0.11323365381923618  1.0000
  H   H7        1.0  0.3696962897797107  0.1721715650452467  0.6132355076597304  1.0000
  H   H8        1.0  0.13031456196291916  0.6721674615138011  0.8867667758098037  1.0000
  H   H9        1.0  0.2563158428917803  0.12250986629333477  0.3257461706672871  1.0000
  H   H10       1.0  0.2436827523436236  0.6225147643331893  0.17425136902603805  1.0000
  H   H11       1.0  0.7436801006530231  0.8774882141806655  0.674256378851446  1.0000
  H   H12       1.0  0.7563232757032171  0.37748742647214323  0.8257467684344204  1.0000
  H   H13       1.0  0.8982471838375334  0.21863209981981405  0.493562693314523  1.0000
  H   H14       1.0  0.6017494642360646  0.7186297563076777  0.006436210782723607  1.0000
  H   H15       1.0  0.10175268991329743  0.7813731738421906  0.5064386566800179  1.0000
  H   H16       1.0  0.39823861889526313  0.281368324221816  0.9935687377725342  1.0000
  H   H17       1.0  0.6687811656599935  0.4830055143007214  0.2568251021186967  1.0000
  H   H18       1.0  0.831206641046336  0.9830080509435388  0.24317071200945858  1.0000
  H   H19       1.0  0.33122183863046223  0.5169894832875243  0.7431692884586524  1.0000
  H   H20       1.0  0.1687933621978034  0.016992084703062498  0.7568299313597038  1.0000
  C   C1        1.0  0.4404959223904967  0.3048936242543476  0.27888353902282137  1.0000
  C   C2        1.0  0.05950289610025551  0.8049000039210908  0.22111228681649206  1.0000
  C   C3        1.0  0.5595059164642039  0.6951065113825406  0.7211172112168213  1.0000
  C   C4        1.0  0.9405010373505149  0.19510115930001595  0.7788871570335585  1.0000
  C   C5        1.0  0.4114333109171611  0.19222673973718674  0.33887148663835376  1.0000
  C   C6        1.0  0.08856958934536151  0.6922322122712856  0.1611226187443791  1.0000
  C   C7        1.0  0.5885651157018189  0.8077754511153188  0.6611276365993959  1.0000
  C   C8        1.0  0.9114323790019367  0.30776997856594324  0.8388774248639591  1.0000
  C   C9        1.0  0.7681163741642082  0.24432156178057343  0.4334385447885011  1.0000
  C   C10       1.0  0.7318807868472635  0.7443255447390553  0.0665574904453052  1.0000
  C   C11       1.0  0.2318832406014054  0.7556796014807501  0.566564218468656  1.0000
  C   C12       1.0  0.26811554517574626  0.2556745909269793  0.933442939182889  1.0000
  C   C13       1.0  0.8033555971246785  0.3587815944919015  0.37688898376507746  1.0000
  C   C14       1.0  0.6966399648384112  0.8587854924073067  0.12310534269318649  1.0000
  C   C15       1.0  0.19664688919374387  0.6412216239309528  0.623108233323954  1.0000
  C   C16       1.0  0.3033596499272022  0.14121567085401668  0.8768974205639778  1.0000
  C   C17       1.0  0.6398277256602968  0.39203122841298915  0.2994829410606883  1.0000
  C   C18       1.0  0.8601735956060852  0.8920371379248733  0.2005102379481585  1.0000
  C   C19       1.0  0.36017292504836723  0.6079637692015961  0.700514169164634  1.0000
  C   C20       1.0  0.1398282432485161  0.10796402531426  0.7994905122906387  1.0000
  C   C21       1.0  0.257892252279639  0.3307774759203355  0.19413148894808066  1.0000
  C   C22       1.0  0.24209738308781692  0.8307805879419444  0.30586375988135467  1.0000
  C   C23       1.0  0.7421043387292912  0.6692195769306437  0.805867527423423  1.0000
  C   C24       1.0  0.757902361171006  0.16921646490622774  0.6941382967495782  1.0000
  N   N1        1.0  0.5713033384500649  0.162767940900217  0.4142191519947147  1.0000
  N   N2        1.0  0.9287049816946434  0.6627699159442811  0.08577695224563799  1.0000
  N   N3        1.0  0.428694699690503  0.8372342499647516  0.5857820911318895  1.0000
  N   N4        1.0  0.07129344492454241  0.33723021970372696  0.9142221709938098  1.0000
  N   N5        1.0  0.024607999292818816  0.4427462754406831  0.3969325707757746  1.0000
  N   N6        1.0  0.475373624233825  0.9427407047411123  0.10306559918694798  1.0000
  N   N7        1.0  0.9753959341585559  0.557248722166946  0.6030668730793562  1.0000
  N   N8        1.0  0.5246263790104069  0.05725840330324419  0.8969350441830597  1.0000
  O   O1        1.0  0.05148849710622731  0.27152810954702733  0.19430543275902315  1.0000
  O   O2        1.0  0.4485075858614849  0.7715278906740719  0.30569528761350984  1.0000
  O   O3        1.0  0.9485098000205527  0.7284679156961432  0.8056943971134274  1.0000
  O   O4        1.0  0.5514979242147363  0.22846813453439546  0.6943056763704829  1.0000
  O   O5        1.0  0.32384793110893645  0.4124280132473856  0.1294426274116702  1.0000
  O   O6        1.0  0.1761351454890132  0.9124263238990904  0.3705578192758522  1.0000
  O   O7        1.0  0.67615023652494  0.587569039602194  0.8705579090895481  1.0000
  O   O8        1.0  0.8238680110056293  0.08756764613121959  0.6294458643578122  1.0000
  O   O9        1.0  0.0477524716088027  0.5458236559079379  0.3466434284114612  1.0000
  O   O10       1.0  0.4522171800721751  0.04581284256295959  0.15336040755276767  1.0000
  O   O11       1.0  0.9522574639332864  0.4541805900256789  0.6533435098439567  1.0000
  O   O12       1.0  0.5477883300030372  0.9541934586679869  0.8466405564227625  1.0000
  O   O13       1.0  0.1777325861814916  0.404236340725717  0.46139709433982284  1.0000
  O   O14       1.0  0.32226241213423623  0.9042349336943047  0.03859906066406889  1.0000
  O   O15       1.0  0.8222558627157711  0.5957740709698172  0.538595734631343  1.0000
  O   O16       1.0  0.6777402263887781  0.09576314676161955  0.9614074494846603  1.0000
  O   O17       1.0  0.7377173604687286  0.8796584264827986  0.4387413013261251  1.0000
  O   O18       1.0  0.7622664067843773  0.3796611674361116  0.06125658927997789  1.0000
  O   O19       1.0  0.2622773949291358  0.12034376438914045  0.5612576081706633  1.0000
  O   O20       1.0  0.23773163135638964  0.6203389682243667  0.9387446538483103  1.0000
