data_image0
_chemical_formula_structural       Zn4H6C86Br40N4O20
_chemical_formula_sum              "Zn4 H6 C86 Br40 N4 O20"
_cell_length_a       17.014494665194558
_cell_length_b       17.781308530265264
_cell_length_c       28.593170215141093
_cell_angle_alpha    90.21061434832005
_cell_angle_beta     89.80215379486197
_cell_angle_gamma    91.30761991686542

_space_group_name_H-M_alt    "P 1"
_space_group_IT_number       1

loop_
  _space_group_symop_operation_xyz
  'x, y, z'

loop_
  _atom_site_type_symbol
  _atom_site_label
  _atom_site_symmetry_multiplicity
  _atom_site_fract_x
  _atom_site_fract_y
  _atom_site_fract_z
  _atom_site_occupancy
  Zn  Zn1       1.0  0.5921415448586559  0.48814555089422396  0.48784783917134417  1.0000
  Zn  Zn2       1.0  0.41272306473663184  0.48362744068545976  0.5043684033104512  1.0000
  Zn  Zn3       1.0  0.4113945405829185  0.4830117609151473  0.8778069707076952  1.0000
  Zn  Zn4       1.0  0.5927614126031315  0.4888475664482004  0.8858195360451119  1.0000
  H   H1        1.0  0.6210301279767024  0.40432495807637275  0.7751027172836942  1.0000
  H   H2        1.0  0.6032599391644525  0.387504980444298  0.602209414840587  1.0000
  H   H3        1.0  0.37909062866503257  0.5267706992716726  0.6487047281354351  1.0000
  H   H4        1.0  0.3820604261049922  0.5262730174840656  0.7361979599581332  1.0000
  H   H5        1.0  0.6678480069929549  0.2816035301919585  0.7797598505168964  1.0000
  H   H6        1.0  0.7296045453204414  0.37729933219979733  0.5872310066742727  1.0000
  C   C1        1.0  0.5213100753666992  0.6280613888843689  0.5013817839153631  1.0000
  C   C2        1.0  0.48164991257123546  0.4734488758591839  0.5889647039201406  1.0000
  C   C3        1.0  0.5345268081038839  0.3442954858094753  0.4975872984268719  1.0000
  C   C4        1.0  0.4665465707333779  0.4981745128511862  0.41063263644029036  1.0000
  C   C5        1.0  0.5199915186114055  0.6283149608372868  0.8819388016625425  1.0000
  C   C6        1.0  0.4878808377761885  0.47360357560350513  0.7927036769017022  1.0000
  C   C7        1.0  0.5297622840717154  0.3435661268422337  0.8866128665296314  1.0000
  C   C8        1.0  0.46440593549979065  0.49585807155582995  0.9693721962169305  1.0000
  C   C9        1.0  0.24227967979286547  0.5722102247351232  0.5117019058975458  1.0000
  C   C10       1.0  0.16669582028785612  0.5861453609184367  0.49464538429096894  1.0000
  C   C11       1.0  0.1243060076713576  0.5270869104537326  0.47213533018755527  1.0000
  C   C12       1.0  0.16102179944721232  0.4569042309507481  0.46660271958946  1.0000
  C   C13       1.0  0.23650895826627047  0.44908410852046643  0.4849131364364395  1.0000
  C   C14       1.0  0.044322418935941195  0.5341708515954195  0.4604858853012672  1.0000
  C   C15       1.0  0.9729995531164022  0.5328976282632283  0.4564638108293693  1.0000
  C   C16       1.0  0.8905870529361124  0.5241788865990813  0.459280467581145  1.0000
  C   C17       1.0  0.852353150564987  0.5336766250696954  0.5029508265794291  1.0000
  C   C18       1.0  0.7718062344674124  0.5171192853548804  0.5056082559808459  1.0000
  C   C19       1.0  0.7637370462954608  0.48617955652550654  0.4270820588856452  1.0000
  C   C20       1.0  0.8446939741378188  0.5002817850953177  0.4206839804958094  1.0000
  C   C21       1.0  0.5180747447991223  0.713091098049162  0.5031961058631467  1.0000
  C   C22       1.0  0.5583525159709879  0.7533856758747531  0.5384065498035895  1.0000
  C   C23       1.0  0.5571447089540058  0.8320121933223845  0.5399896232111772  1.0000
  C   C24       1.0  0.515321126390738  0.8723400677308676  0.5058282868645989  1.0000
  C   C25       1.0  0.4716801256262997  0.8312399105816937  0.47181781261750894  1.0000
  C   C26       1.0  0.4720518013852838  0.7524747506329277  0.4710523930239034  1.0000
  C   C27       1.0  0.5172692034415718  0.9517436007615176  0.50581750850003  1.0000
  C   C28       1.0  0.5213709320859364  0.0202847114844502  0.5054914254856371  1.0000
  C   C29       1.0  0.5268399112618241  0.09959839490800702  0.5044867206096271  1.0000
  C   C30       1.0  0.5695699196517905  0.1371588563344233  0.4686245490318298  1.0000
  C   C31       1.0  0.5735153068606067  0.21587633605331297  0.46711237669101985  1.0000
  C   C32       1.0  0.5354347272029827  0.25915744498486504  0.5012900497553971  1.0000
  C   C33       1.0  0.49444309924272295  0.22201666395270794  0.5376414312270653  1.0000
  C   C34       1.0  0.4897058782028552  0.143394648306348  0.5392145715956431  1.0000
  C   C35       1.0  0.49172825457608826  0.4707419418312072  0.7402266452714485  1.0000
  C   C36       1.0  0.5538312189052732  0.43612543812935917  0.7147586849717413  1.0000
  C   C37       1.0  0.4296862307350722  0.5016698357076309  0.7161685977069894  1.0000
  C   C38       1.0  0.617072666409861  0.4000332479385804  0.7372496113328851  1.0000
  C   C39       1.0  0.6733451868261754  0.3615137151137518  0.7125945549008463  1.0000
  C   C40       1.0  0.4869951320161334  0.4688920477395442  0.6412002786830656  1.0000
  C   C41       1.0  0.42769947516742224  0.5014161743879767  0.6671622944446297  1.0000
  C   C42       1.0  0.5507261885305965  0.4339567780916909  0.6644968673175526  1.0000
  C   C43       1.0  0.6089201715598874  0.39291411970166484  0.6400029766499884  1.0000
  C   C44       1.0  0.668574676290703  0.3567391242765581  0.6629237524314533  1.0000
  C   C45       1.0  0.4574255617648362  0.5073401710803154  0.021852280072280895  1.0000
  C   C46       1.0  0.4129684667874898  0.45607566958424417  0.049078911559753594  1.0000
  C   C47       1.0  0.40546394554273496  0.4660479693748557  0.097433843420788  1.0000
  C   C48       1.0  0.4411409354082423  0.5291428518416981  0.1201008437632183  1.0000
  C   C49       1.0  0.4854907638166139  0.5807668698168483  0.0923223171141387  1.0000
  C   C50       1.0  0.49524054600856726  0.5688576110569558  0.0441773416422819  1.0000
  C   C51       1.0  0.43560945092026054  0.5379484627422997  0.16909853920339654  1.0000
  C   C52       1.0  0.4336624928298037  0.5412468774577804  0.21178867526831618  1.0000
  C   C53       1.0  0.4367534298257567  0.5371068993772709  0.261054417856279  1.0000
  C   C54       1.0  0.3845031210109369  0.4885539981092253  0.2860395022280072  1.0000
  C   C55       1.0  0.395262022522104  0.47515378923171175  0.333767489853166  1.0000
  C   C56       1.0  0.4552180045307068  0.5133621669253188  0.35894526560089446  1.0000
  C   C57       1.0  0.5040261892096679  0.5659236366502045  0.3350189636112901  1.0000
  C   C58       1.0  0.4951520621754284  0.5773533686752117  0.2868393907147251  1.0000
  C   C59       1.0  0.7726452970637465  0.5321257127570933  0.8549319033395832  1.0000
  C   C60       1.0  0.8517999615739386  0.554555131996473  0.85938478643655  1.0000
  C   C61       1.0  0.889707373923045  0.5431828005092001  0.9026893093157327  1.0000
  C   C62       1.0  0.8443398050930142  0.5137339481639954  0.9401391789248592  1.0000
  C   C63       1.0  0.7648936599813466  0.4949873532197488  0.9324416555633164  1.0000
  C   C64       1.0  0.9718575915143717  0.5536651342118902  0.9062627404979722  1.0000
  C   C65       1.0  0.043440573968496196  0.5530463610501999  0.9044029365138329  1.0000
  C   C66       1.0  0.12400260443523335  0.5411245565311732  0.896321866659683  1.0000
  C   C67       1.0  0.17116100094590075  0.5935549590493782  0.8710318671833903  1.0000
  C   C68       1.0  0.24775042215925674  0.5738772630179698  0.8581868510820883  1.0000
  C   C69       1.0  0.2339036584544161  0.45750842815358794  0.8939576882321844  1.0000
  C   C70       1.0  0.15709025377714167  0.47150094927600633  0.9086143771556792  1.0000
  C   C71       1.0  0.5136816507872267  0.7132030043923835  0.8832335222461509  1.0000
  C   C72       1.0  0.4553460162623324  0.7481190456124766  0.9104493026547117  1.0000
  C   C73       1.0  0.4511649123763489  0.826712842545767  0.9119857114093008  1.0000
  C   C74       1.0  0.5040407105232277  0.8724044950689347  0.885705395503777  1.0000
  C   C75       1.0  0.5602347451248589  0.8370067938503284  0.8569167358854344  1.0000
  C   C76       1.0  0.5646593580593161  0.7585679280377492  0.855802431596146  1.0000
  C   C77       1.0  0.5017364762502154  0.9515589163666932  0.8878591292936164  1.0000
  C   C78       1.0  0.5045906006591353  0.020101910330240003  0.8887962158519613  1.0000
  C   C79       1.0  0.5113084663335243  0.09927425324219291  0.8884326568323573  1.0000
  C   C80       1.0  0.504714058613743  0.13936874297880308  0.8459252533055449  1.0000
  C   C81       1.0  0.5130994218082777  0.21772555956437153  0.8457280572393769  1.0000
  C   C82       1.0  0.5280004625545162  0.2581425398475616  0.8870887739847859  1.0000
  C   C83       1.0  0.5358922010638879  0.2186955151020697  0.9291406176849648  1.0000
  C   C84       1.0  0.5270485342797073  0.14023228676317961  0.930082536679741  1.0000
  C   C85       1.0  0.742390027791849  0.33158057972580224  0.7386769729160462  1.0000
  C   C86       1.0  0.720715012367748  0.30389237528107327  0.636897443509632  1.0000
  Br  Br1       1.0  0.2960139444247218  0.6448947015807533  0.5481536098730544  1.0000
  Br  Br2       1.0  0.2864332296349943  0.35577161555386994  0.4850505812306238  1.0000
  Br  Br3       1.0  0.1067841968661725  0.37662112327240754  0.4373087937619005  1.0000
  Br  Br4       1.0  0.1190333003234514  0.6797168441458298  0.5023364818970322  1.0000
  Br  Br5       1.0  0.910178169060771  0.5647414907862754  0.5556687588695367  1.0000
  Br  Br6       1.0  0.8947701110784578  0.4865709883183343  0.3627109832133685  1.0000
  Br  Br7       1.0  0.7019884378789811  0.4502063957655409  0.37721292830703856  1.0000
  Br  Br8       1.0  0.7177528777905805  0.5205942468263345  0.5631935475307586  1.0000
  Br  Br9       1.0  0.6104158344192571  0.6995005533244695  0.5857510182429024  1.0000
  Br  Br10      1.0  0.408788374422663  0.6991583874446051  0.42715405323051675  1.0000
  Br  Br11      1.0  0.4129438252559439  0.8859927021212358  0.4281818867016013  1.0000
  Br  Br12      1.0  0.6108321647476415  0.8872066255595713  0.5869359913336893  1.0000
  Br  Br13      1.0  0.620474295313734  0.0779539375794371  0.4232541874406621  1.0000
  Br  Br14      1.0  0.4328461842746947  0.09249006687063852  0.5867684424476279  1.0000
  Br  Br15      1.0  0.4460349186685589  0.2790566917739597  0.5853415834514236  1.0000
  Br  Br16      1.0  0.6279964918640247  0.2647861318337662  0.4175574639423303  1.0000
  Br  Br17      1.0  0.3653962347204  0.3706176207883304  0.020320663596805795  1.0000
  Br  Br18      1.0  0.5603849317685388  0.6359167777659209  0.009316743351440898  1.0000
  Br  Br19      1.0  0.5311658089234328  0.6655836651125001  0.12234429909644721  1.0000
  Br  Br20      1.0  0.3490547909196664  0.39523635009141606  0.1340661242879406  1.0000
  Br  Br21      1.0  0.2998421437508085  0.4431952409967722  0.2532681988394714  1.0000
  Br  Br22      1.0  0.5611007788870738  0.6455011332584776  0.2538193428261478  1.0000
  Br  Br23      1.0  0.5813114652231803  0.6238348538670595  0.36745980151886926  1.0000
  Br  Br24      1.0  0.3311620000736752  0.40059735221419157  0.36326032363245275  1.0000
  Br  Br25      1.0  0.7239011359431374  0.5349004128082414  0.7962882093928556  1.0000
  Br  Br26      1.0  0.7034046571816432  0.4516299279695133  0.980182672572326  1.0000
  Br  Br27      1.0  0.892822239420056  0.4990122507148982  0.9982510960441147  1.0000
  Br  Br28      1.0  0.9092633143817607  0.5954946206218354  0.8090096206265471  1.0000
  Br  Br29      1.0  0.1283042009732327  0.6860589768372307  0.8542455743874342  1.0000
  Br  Br30      1.0  0.0967141369224365  0.39947986041536865  0.9415912843419887  1.0000
  Br  Br31      1.0  0.27895579545034377  0.3629114049081963  0.902187912946502  1.0000
  Br  Br32      1.0  0.3075667694568622  0.636555202536755  0.8181165270799298  1.0000
  Br  Br33      1.0  0.3819051362651393  0.690366415379657  0.9460248133409406  1.0000
  Br  Br34      1.0  0.6372848533673192  0.7132312325558985  0.8146607380491486  1.0000
  Br  Br35      1.0  0.6288649568106094  0.8986523661010041  0.8209526540028165  1.0000
  Br  Br36      1.0  0.37498674150296557  0.875772828743287  0.9485434260904666  1.0000
  Br  Br37      1.0  0.48417174216098147  0.0848622047096725  0.7903865954105385  1.0000
  Br  Br38      1.0  0.5359752211019498  0.0859419586039181  0.9863324083098987  1.0000
  Br  Br39      1.0  0.5573985674045546  0.27354826743953714  0.9846365715764873  1.0000
  Br  Br40      1.0  0.5064755712689148  0.2714954620637187  0.7887384127417008  1.0000
  N   N1        1.0  0.27640344548883183  0.5058630559639995  0.505383535969635  1.0000
  N   N2        1.0  0.7284609581732581  0.49562272650018013  0.46866482215078525  1.0000
  N   N3        1.0  0.7300151079408367  0.5044358350471827  0.8908374643198727  1.0000
  N   N4        1.0  0.27844696641523836  0.5084081767974098  0.8709863065034327  1.0000
  O   O1        1.0  0.5873882830807419  0.5998622367536088  0.4903475049999884  1.0000
  O   O2        1.0  0.45832932603385507  0.593108964052263  0.5106564090110055  1.0000
  O   O3        1.0  0.41161546967871476  0.4680520270872677  0.5719679861472784  1.0000
  O   O4        1.0  0.5436174010116871  0.48387087082822694  0.565328212346742  1.0000
  O   O5        1.0  0.4686521770301226  0.37343310878366515  0.4917404349522414  1.0000
  O   O6        1.0  0.6011210269319063  0.37926334404193085  0.5001236582099011  1.0000
  O   O7        1.0  0.5351338503473072  0.48333856168977013  0.4238929002417038  1.0000
  O   O8        1.0  0.4051194954971606  0.5018422015322416  0.4360939991987536  1.0000
  O   O9        1.0  0.45811888723638106  0.5918452573215803  0.871853021301895  1.0000
  O   O10       1.0  0.5870159432769456  0.6009700919157127  0.8909021200672098  1.0000
  O   O11       1.0  0.5507823062664913  0.48307106584054077  0.8158686324459268  1.0000
  O   O12       1.0  0.4184256688289594  0.4674657420165786  0.8099470486194844  1.0000
  O   O13       1.0  0.5971989771343472  0.3764857516218855  0.8851972600559677  1.0000
  O   O14       1.0  0.4633133625856587  0.3731950130033541  0.8875414080301169  1.0000
  O   O15       1.0  0.40002389220899903  0.4985527475996179  0.9465657437558476  1.0000
  O   O16       1.0  0.5318530966929842  0.4850594128843683  0.9530092621025332  1.0000
  O   O17       1.0  0.7249045227641703  0.2904363681857874  0.7775875512102957  1.0000
  O   O18       1.0  0.8102037293586761  0.346523817574969  0.7280659056595695  1.0000
  O   O19       1.0  0.7458366035887352  0.3258004440302713  0.5936470068092773  1.0000
  O   O20       1.0  0.7376637070909523  0.24271191473120268  0.6522989629404421  1.0000
