data_image0
_chemical_formula_structural       Cu12H60C84N24
_chemical_formula_sum              "Cu12 H60 C84 N24"
_cell_length_a       27.1903262494463
_cell_length_b       27.529532411980405
_cell_length_c       28.337404656529863
_cell_angle_alpha    88.26228251747798
_cell_angle_beta     88.25196524747861
_cell_angle_gamma    87.06021404993956

_space_group_name_H-M_alt    "P 1"
_space_group_IT_number       1

loop_
  _space_group_symop_operation_xyz
  'x, y, z'

loop_
  _atom_site_type_symbol
  _atom_site_label
  _atom_site_symmetry_multiplicity
  _atom_site_fract_x
  _atom_site_fract_y
  _atom_site_fract_z
  _atom_site_occupancy
  Cu  Cu1       1.0  0.11727615328267402  0.8165932580392478  0.90437336101661  1.0000
  Cu  Cu2       1.0  0.15706258832134523  0.9156981310766243  0.8636708237900592  1.0000
  Cu  Cu3       1.0  0.0726890794583994  0.8641662780464687  0.8107376370988248  1.0000
  Cu  Cu4       1.0  0.8764106768605514  0.3330346764218319  0.5910185969886186  1.0000
  Cu  Cu5       1.0  0.8189350931013877  0.42412088294739186  0.6372310232742534  1.0000
  Cu  Cu6       1.0  0.9113783665560007  0.3724068586760012  0.6877201405885954  1.0000
  Cu  Cu7       1.0  0.6157546905282559  0.6858742805847913  0.1004585421321167  1.0000
  Cu  Cu8       1.0  0.6622020626016577  0.5855767572143832  0.13857696893264657  1.0000
  Cu  Cu9       1.0  0.5644995831377885  0.6330092576857426  0.1883636057291582  1.0000
  Cu  Cu10      1.0  0.3994546995781221  0.149807935243139  0.4200167820833015  1.0000
  Cu  Cu11      1.0  0.33462799764956225  0.09776756625290522  0.3476141889326883  1.0000
  Cu  Cu12      1.0  0.4419688316101614  0.1280145000099609  0.3175859122627003  1.0000
  H   H1        1.0  0.6486076400328358  0.2891228905548076  0.4274405339013043  1.0000
  H   H2        1.0  0.590247176680073  0.3662177503385422  0.3052457380218883  1.0000
  H   H3        1.0  0.7101467343348844  0.4231778486120206  0.378481235441143  1.0000
  H   H4        1.0  0.3638269128499942  0.8344919920498981  0.0454928279511435  1.0000
  H   H5        1.0  0.421023455248438  0.8955717312756594  0.1693225909407303  1.0000
  H   H6        1.0  0.2912212448859749  0.96186927938453  0.1058309828617254  1.0000
  H   H7        1.0  0.136233091611885  0.18420504805548185  0.5487982681892376  1.0000
  H   H8        1.0  0.0710802701927804  0.12517027298820696  0.6772563206479774  1.0000
  H   H9        1.0  0.21716317920703432  0.07557433914013961  0.6319946191050789  1.0000
  H   H10       1.0  0.8145599260588058  0.5464205846891732  0.8922300179111885  1.0000
  H   H11       1.0  0.9439293390333602  0.6118913019316565  0.8333473605974645  1.0000
  H   H12       1.0  0.8713418483989628  0.670339742154269  0.9577731434139665  1.0000
  H   H13       1.0  0.19477284162047684  0.7909290872400447  0.9845844060757614  1.0000
  H   H14       1.0  0.23799728960769065  0.934654519833977  0.9392749164441055  1.0000
  H   H15       1.0  0.9937375271487526  0.7865455026734978  0.7886340930252018  1.0000
  H   H16       1.0  0.04426202512195229  0.7315775853383075  0.9245491934895895  1.0000
  H   H17       1.0  0.16957023762457626  0.008811287801698611  0.7968129070190882  1.0000
  H   H18       1.0  0.053070730358392396  0.9406751763618363  0.7263823332973587  1.0000
  H   H19       1.0  0.813079552444691  0.3211089675493782  0.5005433332835167  1.0000
  H   H20       1.0  0.7411829966294546  0.4515980555467038  0.557388675936572  1.0000
  H   H21       1.0  0.9987998644049229  0.2949709327736017  0.7107404341427142  1.0000
  H   H22       1.0  0.957197265949688  0.24716563127877586  0.5739343140083619  1.0000
  H   H23       1.0  0.786674247841937  0.5038790438622203  0.7128196610087586  1.0000
  H   H24       1.0  0.9189686904760705  0.43992542690227066  0.7756745692522315  1.0000
  H   H25       1.0  0.6955418302052508  0.7132129574102778  0.0208449812200229  1.0000
  H   H26       1.0  0.750259561905118  0.568125227641609  0.0624051722346906  1.0000
  H   H27       1.0  0.4759930501121162  0.7107085253056554  0.211244347135306  1.0000
  H   H28       1.0  0.5397850003449989  0.7750889577156315  0.0836700719058854  1.0000
  H   H29       1.0  0.6810651806476286  0.49300083452200033  0.2060562325604707  1.0000
  H   H30       1.0  0.5430622042763887  0.5512946854140851  0.266582145155823  1.0000
  H   H31       1.0  0.32519504947343597  0.15541269706124444  0.5086835746104156  1.0000
  H   H32       1.0  0.2306578410582532  0.10257361205885472  0.4032548758600711  1.0000
  H   H33       1.0  0.5303119372415281  0.20035243024975105  0.31135941255528365  1.0000
  H   H34       1.0  0.4839023858190216  0.21277441497768737  0.4582896699003101  1.0000
  H   H35       1.0  0.31426650432972275  0.0242983844747044  0.26747245501818645  1.0000
  H   H36       1.0  0.46428169724868695  0.05942931718167443  0.2301914436860883  1.0000
  H   H37       1.0  0.2668350509116805  0.9349248472452772  0.0281981689979958  1.0000
  H   H38       1.0  0.2828928131359731  0.8237182243966573  0.0254628005912352  1.0000
  H   H39       1.0  0.7259361019672638  0.316296876151718  0.4611437991474219  1.0000
  H   H40       1.0  0.7147052014368  0.4278996084928367  0.4627630802863223  1.0000
  H   H41       1.0  0.7831577131261013  0.5704731662939723  0.9714117597556327  1.0000
  H   H42       1.0  0.7887097084924477  0.6811809302241727  0.9784731111403033  1.0000
  H   H43       1.0  0.2587440781848542  0.11887834182925874  0.5656691029967503  1.0000
  H   H44       1.0  0.18160865344407986  0.13620713902395926  0.48914839002718935  1.0000
  H   H45       1.0  0.9530459039643019  0.6995529494494551  0.9298213681823738  1.0000
  H   H46       1.0  0.956280283503702  0.6948137457100431  0.821547127373499  1.0000
  H   H47       1.0  0.5625705101297456  0.2863309732410643  0.3253113660243372  1.0000
  H   H48       1.0  0.5716412685010681  0.2608225075244662  0.4311106975656784  1.0000
  H   H49       1.0  0.04896112066231951  0.20819320560048032  0.5725946224754567  1.0000
  H   H50       1.0  0.0478184770838794  0.2080600437476933  0.6810752814709673  1.0000
  H   H51       1.0  0.4463286187807255  0.806386599148631  0.0744772085086822  1.0000
  H   H52       1.0  0.4372348201478998  0.8087923023095914  0.1827434479512746  1.0000
  H   H53       1.0  0.18254685205767632  0.049471336568061006  0.711195548300509  1.0000
  H   H54       1.0  0.07347850805654592  0.036357522924078  0.6921642583049562  1.0000
  H   H55       1.0  0.6872956117819202  0.45567859709076697  0.2967261097238207  1.0000
  H   H56       1.0  0.5744348035333218  0.45341067860470474  0.29775756581499724  1.0000
  H   H57       1.0  0.3166441767307546  0.9883269957488707  0.1839411255738597  1.0000
  H   H58       1.0  0.42964721192825545  0.9773335225489891  0.1849197909110174  1.0000
  H   H59       1.0  0.920892483812338  0.5306871944883866  0.8073509604059055  1.0000
  H   H60       1.0  0.8077812325541628  0.5359152420468619  0.8069233016917535  1.0000
  C   C1        1.0  0.6817376800893556  0.35681939115501393  0.408732009172894  1.0000
  C   C2        1.0  0.6480190832615875  0.3206077544385408  0.4030511091341893  1.0000
  C   C3        1.0  0.6140186344744123  0.3239563542378151  0.3665704691126948  1.0000
  C   C4        1.0  0.6154210208919864  0.3639654930973607  0.33460359735373396  1.0000
  C   C5        1.0  0.6493999105971895  0.40024703452975535  0.3386801816722738  1.0000
  C   C6        1.0  0.6826804162447715  0.39592454327682713  0.37567964812296145  1.0000
  C   C7        1.0  0.3224025541865316  0.8977501511916942  0.07180697415610379  1.0000
  C   C8        1.0  0.36100907856379655  0.86185126749232  0.07266002125128067  1.0000
  C   C9        1.0  0.3960860450567765  0.8600447697330297  0.1081348104548709  1.0000
  C   C10       1.0  0.3933934435257882  0.8962456709899058  0.1421380782785633  1.0000
  C   C11       1.0  0.3560724394038531  0.9335140484700307  0.14143683749392008  1.0000
  C   C12       1.0  0.3206164825409986  0.9333096726920832  0.1064221423689133  1.0000
  C   C13       1.0  0.18109830735650692  0.12903473360348272  0.5857226955216603  1.0000
  C   C14       1.0  0.13815917641026937  0.15880369020010932  0.579117541519139  1.0000
  C   C15       1.0  0.09917243370336591  0.15936135229384976  0.612881428586391  1.0000
  C   C16       1.0  0.10191372686524151  0.12640958112261566  0.6517500834347273  1.0000
  C   C17       1.0  0.1439270905581793  0.09551755433628982  0.6586547593155245  1.0000
  C   C18       1.0  0.1841023630485097  0.09910873253703303  0.6266435794618841  1.0000
  C   C19       1.0  0.8373389056871332  0.6090730270120872  0.9284974688620125  1.0000
  C   C20       1.0  0.8410029300131895  0.5749420525164768  0.8924554433312437  1.0000
  C   C21       1.0  0.8787601561956323  0.576009987351384  0.8575252086701326  1.0000
  C   C22       1.0  0.913514979938725  0.61184228912105  0.8593903181444914  1.0000
  C   C23       1.0  0.9104410229225691  0.6470334007872868  0.8943767293245627  1.0000
  C   C24       1.0  0.8727003305709076  0.6445431238529338  0.9291959632304909  1.0000
  C   C25       1.0  0.19943204605010584  0.8263600748396628  0.9676541335093917  1.0000
  C   C26       1.0  0.2320934634181455  0.862263503722325  0.9780802421745918  1.0000
  C   C27       1.0  0.22083014706561244  0.9001700579792458  0.9451226378609334  1.0000
  C   C28       1.0  0.011961099712223701  0.7791002402937723  0.8218339301841553  1.0000
  C   C29       1.0  0.003125943746916  0.7429786448165034  0.8567774160355057  1.0000
  C   C30       1.0  0.0370817700474149  0.7515846605402176  0.8916752162296575  1.0000
  C   C31       1.0  0.14179801102842052  0.9854663315932232  0.7848061305215096  1.0000
  C   C32       1.0  0.11054047853959761  0.9920250174721873  0.7462260066547728  1.0000
  C   C33       1.0  0.08168249825954628  0.9510575791870226  0.7494123835248346  1.0000
  C   C34       1.0  0.8001468438815563  0.35197533150355303  0.5212720831174664  1.0000
  C   C35       1.0  0.7626296197297081  0.3877062928945421  0.511782809275914  1.0000
  C   C36       1.0  0.7641270376424103  0.4191709853542705  0.5498274861950136  1.0000
  C   C37       1.0  0.9822065264952043  0.28928659624157405  0.6771164885424881  1.0000
  C   C38       1.0  0.9953191302894455  0.25462634495084313  0.6429125930883828  1.0000
  C   C39       1.0  0.961612487361407  0.26534956064694637  0.606877401189557  1.0000
  C   C40       1.0  0.8197979948887308  0.482511218707515  0.7222027819390249  1.0000
  C   C41       1.0  0.8506485121526168  0.4872022634134369  0.7605520382982647  1.0000
  C   C42       1.0  0.8879479519383581  0.45055641066413443  0.7537649224654501  1.0000
  C   C43       1.0  0.7027352273487608  0.6773698077296473  0.0369535986351082  1.0000
  C   C44       1.0  0.7393648560940136  0.6414703712154621  0.0252712603392808  1.0000
  C   C45       1.0  0.730090993642918  0.6028777468738299  0.05752876257913189  1.0000
  C   C46       1.0  0.49786640834209084  0.7203076073741104  0.17996898633967356  1.0000
  C   C47       1.0  0.4910149120256834  0.759662246404318  0.14764695073510836  1.0000
  C   C48       1.0  0.5298840881326825  0.7526258515550596  0.1142840948926391  1.0000
  C   C49       1.0  0.6478454264407033  0.51428014880387  0.2159508086772561  1.0000
  C   C50       1.0  0.6120767057796429  0.5047427402444955  0.2514660726618132  1.0000
  C   C51       1.0  0.5768213334063786  0.5435175470435569  0.24614358034184386  1.0000
  C   C52       1.0  0.30896950017221064  0.14123180561173856  0.47774540598310716  1.0000
  C   C53       1.0  0.25986816647851907  0.13007177430423414  0.4706269363953339  1.0000
  C   C54       1.0  0.2604372780226072  0.11527672590983684  0.4235620211661981  1.0000
  C   C55       1.0  0.5123242596259486  0.19853918203879317  0.3460451417689612  1.0000
  C   C56       1.0  0.523473887543325  0.22178251416284675  0.3877020755242242  1.0000
  C   C57       1.0  0.4892111649787266  0.204097105347536  0.421316829400304  1.0000
  C   C58       1.0  0.35040890861677104  0.0391957620211016  0.2636810714031981  1.0000
  C   C59       1.0  0.3898144598903954  0.02667811502607261  0.2322762129628799  1.0000
  C   C60       1.0  0.42731396016773726  0.05654009291227174  0.24524797643182691  1.0000
  C   C61       1.0  0.28449946014712413  0.8991053982477267  0.0362017445334004  1.0000
  C   C62       1.0  0.26851610344689897  0.8600637067960835  0.014509248383475896  1.0000
  C   C63       1.0  0.7147530243616914  0.3531546279695732  0.4486901906574089  1.0000
  C   C64       1.0  0.7295385447936552  0.3913666479845619  0.4724992687481731  1.0000
  C   C65       1.0  0.7978047474332114  0.6064089662069349  0.9645832116671044  1.0000
  C   C66       1.0  0.777236143125556  0.6445888260135534  0.9882589915927156  1.0000
  C   C67       1.0  0.2222752082542598  0.12742440654484  0.5513126914489206  1.0000
  C   C68       1.0  0.21835613681759009  0.13214525689058831  0.5039769057820109  1.0000
  C   C69       1.0  0.9456148582226903  0.6854708246812894  0.895165932382092  1.0000
  C   C70       1.0  0.9671792841050789  0.7058855853353452  0.8563472195998827  1.0000
  C   C71       1.0  0.5777413480317364  0.2874114079879463  0.36059270467750076  1.0000
  C   C72       1.0  0.5598334858155526  0.2573545090311385  0.3948457737473064  1.0000
  C   C73       1.0  0.058340482326492804  0.19584265271398493  0.6084500868674709  1.0000
  C   C74       1.0  0.03492758556960499  0.21752382139512608  0.6455858365036491  1.0000
  C   C75       1.0  0.4340583722226227  0.8203702653943101  0.1088756692373991  1.0000
  C   C76       1.0  0.4525669821646403  0.7982497215228294  0.1481495564703224  1.0000
  C   C77       1.0  0.14629521775190568  0.05803361916392189  0.6963954380414422  1.0000
  C   C78       1.0  0.1083199263331807  0.030756237354808015  0.7104137781935548  1.0000
  C   C79       1.0  0.6509568399154729  0.44171994851880936  0.3051006387222301  1.0000
  C   C80       1.0  0.610938912910939  0.46465291580571494  0.2858847356175573  1.0000
  C   C81       1.0  0.35347531658085535  0.9723015967230069  0.1757047141972947  1.0000
  C   C82       1.0  0.3925815389328733  0.9904183685993292  0.19620349876228002  1.0000
  C   C83       1.0  0.8833033691894697  0.5407989465517532  0.8197147388781191  1.0000
  C   C84       1.0  0.845323515958917  0.5224752939066875  0.7976571343181291  1.0000
  N   N1        1.0  0.1842369225549803  0.8877163499060289  0.9175422677239665  1.0000
  N   N2        1.0  0.17060516622191807  0.84200000498268  0.9318248575767569  1.0000
  N   N3        1.0  0.0637791292295518  0.7898807770652925  0.8784512346866578  1.0000
  N   N4        1.0  0.047887545401494  0.8072849981413486  0.8352147850647641  1.0000
  N   N5        1.0  0.09503864704004168  0.9222552268830454  0.7866676386128829  1.0000
  N   N6        1.0  0.13216065487115  0.943865985050202  0.808871056111883  1.0000
  N   N7        1.0  0.7993579320604596  0.4030453860152791  0.579812908512011  1.0000
  N   N8        1.0  0.8220053165711007  0.36149854921319513  0.5618002627351615  1.0000
  N   N9        1.0  0.9310858809695264  0.3034131991901249  0.6188741722648246  1.0000
  N   N10       1.0  0.944109890717897  0.31853255890747084  0.6623899281785766  1.0000
  N   N11       1.0  0.8798830917822827  0.42625011504408417  0.7143704832263396  1.0000
  N   N12       1.0  0.8377565450710379  0.4463554973457777  0.6944862584853198  1.0000
  N   N13       1.0  0.6909064822327268  0.6149855353953272  0.08586762716682023  1.0000
  N   N14       1.0  0.6736126174256184  0.6611265159545784  0.0727750276834769  1.0000
  N   N15       1.0  0.5574874046569818  0.7122250310687053  0.1258755188497744  1.0000
  N   N16       1.0  0.537357266333359  0.6918461409622837  0.1664473301663278  1.0000
  N   N17       1.0  0.5908910213446957  0.5740094361658666  0.21069195223059012  1.0000
  N   N18       1.0  0.6348347876306236  0.5555839527214631  0.1916208003050031  1.0000
  N   N19       1.0  0.30636402302667415  0.11702882995366792  0.4044278618017145  1.0000
  N   N20       1.0  0.33647020319122595  0.1334153216101797  0.43806722979343965  1.0000
  N   N21       1.0  0.4595414119831105  0.1734283793495238  0.4011064795286146  1.0000
  N   N22       1.0  0.47419367825215636  0.16975302038454035  0.35435852982406857  1.0000
  N   N23       1.0  0.411345862773679  0.08471586463089413  0.28126004939871757  1.0000
  N   N24       1.0  0.3635922647821205  0.07372123482110028  0.29283813697303884  1.0000
