data_image0
_chemical_formula_structural       CdH10C14S2N6
_chemical_formula_sum              "Cd1 H10 C14 S2 N6"
_cell_length_a       5.768071482694083
_cell_length_b       7.962428212611548
_cell_length_c       9.878952698503486
_cell_angle_alpha    72.75423504290826
_cell_angle_beta     73.83217147629439
_cell_angle_gamma    80.65978533470927

_space_group_name_H-M_alt    "P 1"
_space_group_IT_number       1

loop_
  _space_group_symop_operation_xyz
  'x, y, z'

loop_
  _atom_site_type_symbol
  _atom_site_label
  _atom_site_symmetry_multiplicity
  _atom_site_fract_x
  _atom_site_fract_y
  _atom_site_fract_z
  _atom_site_occupancy
  Cd  Cd1       1.0  0.5000055197019151  2.3814506420002955e-06  0.5000010991047928  1.0000
  H   H1        1.0  0.6836926324060427  0.37191657104194314  0.4157534871712868  1.0000
  H   H2        1.0  0.3163096636325092  0.6280948331470384  0.5842374457992815  1.0000
  H   H3        1.0  0.6694294737605021  0.6788971476624043  0.24992608247638495  1.0000
  H   H4        1.0  0.3305640351911237  0.3211113865448851  0.7500630848989115  1.0000
  H   H5        1.0  0.1052064277849709  0.5348202128929103  0.10589986602138164  1.0000
  H   H6        1.0  0.8948029137109472  0.465166192697879  0.8940974248483752  1.0000
  H   H7        1.0  0.14376077535458623  0.23518116561451313  0.27650082156175404  1.0000
  H   H8        1.0  0.8562442906873641  0.7648090123262392  0.7234921709360403  1.0000
  H   H9        1.0  0.23882921379260583  0.8386677366633322  0.9956652600380305  1.0000
  H   H10       1.0  0.761166083629334  0.16134232628549236  0.004328258243077636  1.0000
  C   C1        1.0  0.5601618463552213  0.4142561286631548  0.34367721338913515  1.0000
  C   C2        1.0  0.43982322435367377  0.5857514763697081  0.6563258238877763  1.0000
  C   C3        1.0  0.5525674156767765  0.5833513654475979  0.25140210092911974  1.0000
  C   C4        1.0  0.4474195380521948  0.4166548188863146  0.7485979429770492  1.0000
  C   C5        1.0  0.38967738570660515  0.6306758981856717  0.16096805342201026  1.0000
  C   C6        1.0  0.610315740761365  0.3693235795385021  0.839028626400555  1.0000
  C   C7        1.0  0.23831454305808822  0.5036355155831984  0.17139782116886682  1.0000
  C   C8        1.0  0.7616853458474964  0.49635488869952127  0.8286031044918256  1.0000
  C   C9        1.0  0.258020345935364  0.3366308414515943  0.26703218102893783  1.0000
  C   C10       1.0  0.7419774146157181  0.6633622252068108  0.7329694284614586  1.0000
  C   C11       1.0  0.37482959367030594  0.8059342285618528  0.06046730493721936  1.0000
  C   C12       1.0  0.6251633534830957  0.19406656852022763  0.939529059237422  1.0000
  C   C13       1.0  0.9143511256803548  0.08573641210958272  0.6452213539287397  1.0000
  C   C14       1.0  0.08566469971343335  0.9142599111587161  0.3547884058342701  1.0000
  S   S1        1.0  0.12502411406526193  0.0553814508838073  0.7329028561703905  1.0000
  S   S2        1.0  0.8749822587381854  0.944618871076422  0.26711053838355525  1.0000
  N   N1        1.0  0.4174922456001226  0.2915918570255726  0.3513592306506722  1.0000
  N   N2        1.0  0.5825011779571554  0.7084079702638559  0.6486464216908556  1.0000
  N   N3        1.0  0.5204022408242112  0.9202327700602098  0.04920470720114871  1.0000
  N   N4        1.0  0.47958510454382974  0.0797708143984792  0.9507969649474286  1.0000
  N   N5        1.0  0.7568583949850592  0.11087401676879689  0.5842565511771906  1.0000
  N   N6        1.0  0.24315333426932986  0.8891247594915584  0.41574922586178054  1.0000
