data_image0
_chemical_formula_structural       Zn2H36C54N4O12
_chemical_formula_sum              "Zn2 H36 C54 N4 O12"
_cell_length_a       7.60563375083662
_cell_length_b       11.541430965831546
_cell_length_c       13.563780900184813
_cell_angle_alpha    82.99485832712924
_cell_angle_beta     83.73382783396616
_cell_angle_gamma    70.78711231505257

_space_group_name_H-M_alt    "P 1"
_space_group_IT_number       1

loop_
  _space_group_symop_operation_xyz
  'x, y, z'

loop_
  _atom_site_type_symbol
  _atom_site_label
  _atom_site_symmetry_multiplicity
  _atom_site_fract_x
  _atom_site_fract_y
  _atom_site_fract_z
  _atom_site_occupancy
  Zn  Zn1       1.0  0.30039794892417143  0.11964586106727639  0.015543241680006793  1.0000
  Zn  Zn2       1.0  0.6996002224740464  0.8803546309830351  0.98445520640778  1.0000
  H   H1        1.0  0.04418141603189699  0.14544093683242923  0.15232339457676858  1.0000
  H   H2        1.0  0.9558185183945366  0.8545586321709351  0.8476765172990067  1.0000
  H   H3        1.0  0.932344708633444  0.14897230034892317  0.05332212757220129  1.0000
  H   H4        1.0  0.06765743471903106  0.8510254226797471  0.9466778426636606  1.0000
  H   H5        1.0  0.5989708823610727  0.23721497129923816  0.20086258633339324  1.0000
  H   H6        1.0  0.40103170051872894  0.7627845914446707  0.799137165675212  1.0000
  H   H7        1.0  0.7646211262057961  0.2983259530949738  0.32602329199232816  1.0000
  H   H8        1.0  0.23538410617565114  0.7016708430043934  0.6739773248105647  1.0000
  H   H9        1.0  0.31038545724705807  0.3003076006680415  0.5452351804976698  1.0000
  H   H10       1.0  0.6896171256327362  0.6996919620758604  0.4547645715109352  1.0000
  H   H11       1.0  0.1445218367352794  0.24150304012040638  0.41930754333836956  1.0000
  H   H12       1.0  0.8554794190954809  0.7584992868909525  0.5806920012297211  1.0000
  H   H13       1.0  0.6440776614843814  0.4673050173933219  0.668513511372218  1.0000
  H   H14       1.0  0.35592359539466395  0.532694549232943  0.33148705785734467  1.0000
  H   H15       1.0  0.6627211075839909  0.3905309378945533  0.8485194889088842  1.0000
  H   H16       1.0  0.33727705494386845  0.6094695579189134  0.1514826456157436  1.0000
  H   H17       1.0  0.6175117424918996  0.047129751705206495  0.7833466730820572  1.0000
  H   H18       1.0  0.38248333278106383  0.952871670284935  0.2166540775881742  1.0000
  H   H19       1.0  0.6047157130592709  0.1210595517485373  0.6029868548445944  1.0000
  H   H20       1.0  0.39528377546934496  0.8789409401825735  0.3970144624590828  1.0000
  H   H21       1.0  0.32900553757872336  0.3733431238650837  0.08385144622531017  1.0000
  H   H22       1.0  0.670990871839564  0.6266555308470885  0.9161465627359601  1.0000
  H   H23       1.0  0.25895299923541876  0.5944317081333991  0.0073663690179301975  1.0000
  H   H24       1.0  0.7410464956636956  0.4055660211547262  0.992633761085109  1.0000
  H   H25       1.0  0.131106500794303  0.6495738903401501  0.8401209173982874  1.0000
  H   H26       1.0  0.8688903382326532  0.3504293682355025  0.15987953511109498  1.0000
  H   H27       1.0  0.03608405283735995  0.5815735165619529  0.6905112341089815  1.0000
  H   H28       1.0  0.9639167634660736  0.41842697073416696  0.30948852868637283  1.0000
  H   H29       1.0  0.9982107239927558  0.41406422304758916  0.6051379315273733  1.0000
  H   H30       1.0  0.0017878798364990031  0.5859381117284883  0.3948632474826254  1.0000
  H   H31       1.0  0.03987408511699897  0.1876629948193127  0.6039324644296753  1.0000
  H   H32       1.0  0.960128942612336  0.8123384053819365  0.39606485748955567  1.0000
  H   H33       1.0  0.13755731422660483  0.974895365021041  0.6934411702743899  1.0000
  H   H34       1.0  0.8624443892760497  0.025106038309935692  0.3065562315784333  1.0000
  H   H35       1.0  0.2588267506519699  0.9463416356465545  0.8635539040361164  1.0000
  H   H36       1.0  0.7411696523958183  0.053659781708596185  0.13644529212579215  1.0000
  C   C1        1.0  0.26948308912909613  0.19194256250197836  0.22910579679453486  1.0000
  C   C2        1.0  0.7305164011735884  0.808057928676497  0.7708947832217701  1.0000
  C   C3        1.0  0.3639214738195307  0.23351297652658332  0.30357952732858695  1.0000
  C   C4        1.0  0.6360815531840205  0.7664856640422073  0.6964195565394815  1.0000
  C   C5        1.0  0.537554804544456  0.2513794649193812  0.2767022152664039  1.0000
  C   C6        1.0  0.46244998726138686  0.7486182518498339  0.7232975951022876  1.0000
  C   C7        1.0  0.6288102765258826  0.28578766244362436  0.3457662010474109  1.0000
  C   C8        1.0  0.3711949558555716  0.7142091336557356  0.6542344157554822  1.0000
  C   C9        1.0  0.548778931248201  0.30120570652622547  0.44363234660136175  1.0000
  C   C10       1.0  0.4512258616059271  0.6987892498579028  0.5563684884288022  1.0000
  C   C11       1.0  0.37427906039671655  0.2848393892027588  0.47015896897131865  1.0000
  C   C12       1.0  0.625725731409119  0.7151583275664563  0.529840841397373  1.0000
  C   C13       1.0  0.2815482531921489  0.2526060797368003  0.4002796305570298  1.0000
  C   C14       1.0  0.7184538855638962  0.74739440518222  0.5997207895921047  1.0000
  C   C15       1.0  0.6474488729567724  0.3395519477819491  0.5161601257512201  1.0000
  C   C16       1.0  0.35255502987577364  0.6604448537050374  0.4838427828473683  1.0000
  C   C17       1.0  0.6254290265539311  0.29915706118102736  0.6241102987588717  1.0000
  C   C18       1.0  0.3745739951274061  0.7008415816456618  0.3758909969713072  1.0000
  C   C19       1.0  0.6382530389944849  0.3754214167532266  0.694278980175582  1.0000
  C   C20       1.0  0.36175395359282453  0.6245772174369081  0.30572281304120696  1.0000
  C   C21       1.0  0.6485811820896787  0.33252869381866657  0.7943084643233501  1.0000
  C   C22       1.0  0.3514200730152908  0.6674708735602337  0.205692842193578  1.0000
  C   C23       1.0  0.6443497331134935  0.21324453783167036  0.8265289569561812  1.0000
  C   C24       1.0  0.35564666461207384  0.7867568817813718  0.17347245106783046  1.0000
  C   C25       1.0  0.6238302780638918  0.13878734732482914  0.7573130784175388  1.0000
  C   C26       1.0  0.3761674502588619  0.8612113065155069  0.24268706247224964  1.0000
  C   C27       1.0  0.6147658382769806  0.18114921133012268  0.6567734844893562  1.0000
  C   C28       1.0  0.38523321072430866  0.8188494408857494  0.3432280510415778  1.0000
  C   C29       1.0  0.6656732562526246  0.16453134997286864  0.9339636471543851  1.0000
  C   C30       1.0  0.33432446924777554  0.8354700650051896  0.06603620636130356  1.0000
  C   C31       1.0  0.27384571787855805  0.40224900709690564  0.010677487090731604  1.0000
  C   C32       1.0  0.7261511310670558  0.5977514873305054  0.9893203036432748  1.0000
  C   C33       1.0  0.23602778241883726  0.5243540001382954  0.9679329868678433  1.0000
  C   C34       1.0  0.7639739157615965  0.47564740545057294  0.032066626847083085  1.0000
  C   C35       1.0  0.1665091114716546  0.555360333065103  0.8748211460662032  1.0000
  C   C36       1.0  0.8334916984612805  0.44464291687399526  0.12517980392978248  1.0000
  C   C37       1.0  0.13806067732332392  0.46428743976851194  0.823673879887657  1.0000
  C   C38       1.0  0.8619357204022438  0.5357139798445302  0.17632752813635474  1.0000
  C   C39       1.0  0.07069296750251645  0.48796482374060446  0.7262427463502302  1.0000
  C   C40       1.0  0.9293043121000505  0.5120375141651934  0.27375851259335343  1.0000
  C   C41       1.0  0.05223994411734622  0.39522041842578653  0.6787894408291847  1.0000
  C   C42       1.0  0.9477617540630944  0.6047809871630889  0.32121017288574183  1.0000
  C   C43       1.0  0.10181516642361292  0.2713362222117226  0.7247055567258084  1.0000
  C   C44       1.0  0.8981821185011682  0.7286661134361836  0.275293490355672  1.0000
  C   C45       1.0  0.09182458913962677  0.17093954521826762  0.677945440902107  1.0000
  C   C46       1.0  0.9081753460125982  0.8290627834175479  0.3220527090248311  1.0000
  C   C47       1.0  0.1456912518237701  0.0539677467451938  0.7268871247650704  1.0000
  C   C48       1.0  0.8543073608758435  0.9460345842677214  0.27311036780808706  1.0000
  C   C49       1.0  0.2098425124454124  0.0368647638984356  0.8228325081117658  1.0000
  C   C50       1.0  0.7901538923764448  0.9631366527040794  0.1771659507627702  1.0000
  C   C51       1.0  0.16500518738801154  0.2454858454053408  0.8219733006312848  1.0000
  C   C52       1.0  0.8349916551870963  0.7545174116650487  0.17802567730335986  1.0000
  C   C53       1.0  0.18225466886951125  0.34342858611024235  0.8725479062549935  1.0000
  C   C54       1.0  0.8177435043027758  0.6565719051874409  0.12744980454542795  1.0000
  N   N1        1.0  0.24662146462302562  0.31469379527668195  0.9646715727291519  1.0000
  N   N2        1.0  0.753377149124873  0.6853057753511465  0.03532694450547069  1.0000
  N   N3        1.0  0.21701986719836  0.13012536068119118  0.8690052237641692  1.0000
  N   N4        1.0  0.7829765358494284  0.8698760566739664  0.13099397239773222  1.0000
  O   O1        1.0  0.37245038808265457  0.1532755502385754  0.15097566361144735  1.0000
  O   O2        1.0  0.6275486616444185  0.8467258616097552  0.8490241099706564  1.0000
  O   O3        1.0  0.10040752018417719  0.19641637029543793  0.24856384066104903  1.0000
  O   O4        1.0  0.8995915305911879  0.8035822811678062  0.7514369575825196  1.0000
  O   O5        1.0  0.7524843119496721  0.4014203416260712  0.48741968179458417  1.0000
  O   O6        1.0  0.24751826843026234  0.5985764622380145  0.5125825694502237  1.0000
  O   O7        1.0  0.7467314528403081  0.21164997608358502  0.9858560849841351  1.0000
  O   O8        1.0  0.25326980581280617  0.7883495897900517  0.014143746958055186  1.0000
  O   O9        1.0  0.5956118221762168  0.07776951219977238  0.966624191058997  1.0000
  O   O10       1.0  0.4043872257767873  0.9222319004011864  0.033376319810472024  1.0000
  O   O11       1.0  0.04963951098811492  0.10920185672505058  0.08763059806236126  1.0000
  O   O12       1.0  0.950361308137687  0.8907958694333471  0.9123694521070858  1.0000
