data_image0
_chemical_formula_structural       Tb2CuH28C20O22
_chemical_formula_sum              "Tb2 Cu1 H28 C20 O22"
_cell_length_a       6.98657217414768
_cell_length_b       9.98900395452463
_cell_length_c       11.391291208626784
_cell_angle_alpha    107.86545586688263
_cell_angle_beta     101.72944129893065
_cell_angle_gamma    98.36281866235232

_space_group_name_H-M_alt    "P 1"
_space_group_IT_number       1

loop_
  _space_group_symop_operation_xyz
  'x, y, z'

loop_
  _atom_site_type_symbol
  _atom_site_label
  _atom_site_symmetry_multiplicity
  _atom_site_fract_x
  _atom_site_fract_y
  _atom_site_fract_z
  _atom_site_occupancy
  Tb  Tb1       1.0  0.6337065454225836  0.7161607932483206  0.09791239747453762  1.0000
  Tb  Tb2       1.0  0.3663002396203153  0.28383933264257877  0.9020901782721251  1.0000
  Cu  Cu1       1.0  0.9999957766879319  3.688317705009286e-07  0.5000003380668048  1.0000
  H   H1        1.0  0.03906985635266829  0.9034801871510677  0.14548577711704508  1.0000
  H   H2        1.0  0.9609250973428801  0.0965244293324687  0.8545123344101668  1.0000
  H   H3        1.0  0.06664293790371537  0.8546292498996022  0.2672953663619068  1.0000
  H   H4        1.0  0.933360021057858  0.1453774610037755  0.7327051441169485  1.0000
  H   H5        1.0  0.527685227654935  0.008788461381634199  0.14471652470319188  1.0000
  H   H6        1.0  0.4723036689786611  0.9912107295383806  0.8552819697139568  1.0000
  H   H7        1.0  0.6673623797844286  0.0180334156086772  0.2779054905165808  1.0000
  H   H8        1.0  0.3326380452371752  0.9819701063562717  0.7220920584077887  1.0000
  H   H9        1.0  0.29883726653049797  0.7129087317111595  0.23270459002348065  1.0000
  H   H10       1.0  0.7011683007682167  0.2870925976364162  0.767292921872176  1.0000
  H   H11       1.0  0.24052993069001627  0.5655916154929913  0.10839410762393697  1.0000
  H   H12       1.0  0.7594804674185766  0.4344064038197288  0.891604767420979  1.0000
  H   H13       1.0  0.43263314880510967  0.5905355031473931  0.342619702819931  1.0000
  H   H14       1.0  0.567360764998483  0.40946587699595927  0.6573773616181524  1.0000
  H   H15       1.0  0.6100580811489067  0.5905967059430566  0.47840101879783953  1.0000
  H   H16       1.0  0.38993543124374247  0.40940789998607124  0.5215978020755401  1.0000
  H   H17       1.0  0.5148411296491986  0.647182332407631  0.6738545238547998  1.0000
  H   H18       1.0  0.4851575250205613  0.35282008090413086  0.32614425998986  1.0000
  H   H19       1.0  0.32336855716827273  0.7553359340256377  0.6996226165067296  1.0000
  H   H20       1.0  0.676626065443152  0.2446718309687909  0.3003807498711382  1.0000
  H   H21       1.0  0.9857161357673904  0.5329116990629074  0.19451551062594058  1.0000
  H   H22       1.0  0.014290357425153393  0.4670830434821055  0.8054846106260098  1.0000
  H   H23       1.0  0.8955321139829452  0.46972976247197795  0.3055605437526196  1.0000
  H   H24       1.0  0.10447725978021784  0.5302692477915298  0.6944428880835216  1.0000
  H   H25       1.0  0.164131338694034  0.16870982614755548  0.2574935068931764  1.0000
  H   H26       1.0  0.8358526523653184  0.8312743198077895  0.742497477296524  1.0000
  H   H27       1.0  0.006192472156371293  0.26278450836614536  0.3520083229130221  1.0000
  H   H28       1.0  0.9937989012345343  0.7371994971740534  0.6479878605842584  1.0000
  C   C1        1.0  0.6870285234048693  0.7684534061581161  0.4215154987029591  1.0000
  C   C2        1.0  0.31296747018263454  0.23155444666559077  0.5784836599133881  1.0000
  C   C3        1.0  0.527513497946174  0.6589190264339706  0.43779787647478213  1.0000
  C   C4        1.0  0.4724848628380585  0.34108225014158217  0.5622031821516912  1.0000
  C   C5        1.0  0.4058874949098552  0.7251479365898204  0.5253821891966195  1.0000
  C   C6        1.0  0.5941060526462039  0.2748566307018691  0.47461838088443625  1.0000
  C   C7        1.0  0.2671301463873236  0.810355677904674  0.47916544778056647  1.0000
  C   C8        1.0  0.7328677974394251  0.18964459716568877  0.5208317634008421  1.0000
  C   C9        1.0  0.4145206892222149  0.7080204391774884  0.6384037088309282  1.0000
  C   C10       1.0  0.5854756354494128  0.2919842651353264  0.361590194934763  1.0000
  C   C11       1.0  0.7110614186351184  0.3765732650263017  0.11500651809901533  1.0000
  C   C12       1.0  0.2889428128509337  0.623427937854565  0.8849969507658456  1.0000
  C   C13       1.0  0.9178426431863472  0.43484750465339067  0.2087456238388157  1.0000
  C   C14       1.0  0.08216421421855809  0.5651482973529695  0.7912557210466814  1.0000
  C   C15       1.0  0.04701035540802679  0.32621526678419593  0.19495709405391884  1.0000
  C   C16       1.0  0.9529923664834855  0.673781756207461  0.8050388564652236  1.0000
  C   C17       1.0  0.1453959279391412  0.3013670002308046  0.08752885428044978  1.0000
  C   C18       1.0  0.8546008247989434  0.698624500603749  0.9124718521478313  1.0000
  C   C19       1.0  0.07392015936221703  0.24925186667930888  0.2723234517495071  1.0000
  C   C20       1.0  0.926071615439632  0.7507289130751147  0.7276709753124847  1.0000
  O   O1        1.0  0.7330829909041937  0.745697761311817  0.3164640467966321  1.0000
  O   O2        1.0  0.2669179761820004  0.2543023803176182  0.6835387425231614  1.0000
  O   O3        1.0  0.7757067622459105  0.877515779612402  0.5219044827977796  1.0000
  O   O4        1.0  0.2242868204735657  0.12248874904184959  0.4780978364909529  1.0000
  O   O5        1.0  0.23073264024375814  0.8002887458715404  0.36322206100732746  1.0000
  O   O6        1.0  0.7692742763789794  0.199721183843387  0.6367798270760118  1.0000
  O   O7        1.0  0.1885240432963968  0.8886458314364062  0.5610738625445036  1.0000
  O   O8        1.0  0.8114726983327004  0.11135987438159131  0.4389238886662595  1.0000
  O   O9        1.0  0.606875355458321  0.468124024813491  0.09465793443833788  1.0000
  O   O10       1.0  0.393130734288107  0.5318781901269743  0.9053486725254272  1.0000
  O   O11       1.0  0.6409151615227843  0.2432079147743309  0.057790429070827494  1.0000
  O   O12       1.0  0.3590894537925068  0.7567900816394798  0.9422104087549028  1.0000
  O   O13       1.0  0.14901803608064768  0.3926675750564569  0.027995029957153878  1.0000
  O   O14       1.0  0.8509943433602487  0.6073313210848352  0.9720131054135377  1.0000
  O   O15       1.0  0.22719419296436172  0.1947957473060669  0.055708309991366875  1.0000
  O   O16       1.0  0.7728042773804518  0.805196920137824  0.9442885377051055  1.0000
  O   O17       1.0  0.9672111125540258  0.8726841256562708  0.20078313917821328  1.0000
  O   O18       1.0  0.03278962189964571  0.1273247603358456  0.7992177388447033  1.0000
  O   O19       1.0  0.5783728353438704  0.9515728888698334  0.19430308594794343  1.0000
  O   O20       1.0  0.4216269139981392  0.04842845621627131  0.8056946395208441  1.0000
  O   O21       1.0  0.32859585232530714  0.6644926496400173  0.15064766824109185  1.0000
  O   O22       1.0  0.6714075804092091  0.3355065115930386  0.849349854941316  1.0000
