data_image0
_chemical_formula_structural       In4H64C36N4O4
_chemical_formula_sum              "In4 H64 C36 N4 O4"
_cell_length_a       10.252039894097422
_cell_length_b       10.354365861496307
_cell_length_c       10.78309131239994
_cell_angle_alpha    109.32157476013882
_cell_angle_beta     108.36490646832969
_cell_angle_gamma    91.92096474697156

_space_group_name_H-M_alt    "P 1"
_space_group_IT_number       1

loop_
  _space_group_symop_operation_xyz
  'x, y, z'

loop_
  _atom_site_type_symbol
  _atom_site_label
  _atom_site_symmetry_multiplicity
  _atom_site_fract_x
  _atom_site_fract_y
  _atom_site_fract_z
  _atom_site_occupancy
  In  In1       1.0  0.01439568298854251  0.35182896029058963  0.30452399475742453  1.0000
  In  In2       1.0  0.9856050723221799  0.6481715616459739  0.695475959352123  1.0000
  In  In3       1.0  0.36669894741964265  0.5929280310222113  0.5540505533948661  1.0000
  In  In4       1.0  0.6332995929892036  0.4070714371029993  0.44595025209032  1.0000
  H   H1        1.0  0.17084134307779658  0.19624222823614454  0.5097986875246363  1.0000
  H   H2        1.0  0.8291598852810509  0.8037613940045958  0.4902033390836923  1.0000
  H   H3        1.0  0.33196939121635427  0.30504258420167213  0.6085937573710396  1.0000
  H   H4        1.0  0.6680294657327437  0.6949589690832384  0.39140596299008473  1.0000
  H   H5        1.0  0.2859029391263661  0.0794049122209657  0.6781234515155319  1.0000
  H   H6        1.0  0.7140990025500714  0.9205966544817701  0.3218762681482873  1.0000
  H   H7        1.0  0.0305759268941372  0.1376222969099601  0.6539263217324844  1.0000
  H   H8        1.0  0.9694258560716095  0.8623782203540885  0.34607486553957767  1.0000
  H   H9        1.0  0.12012257348834508  0.1499330967979944  0.8304228256727768  1.0000
  H   H10       1.0  0.8798800801840017  0.8500663937902146  0.16957736218518712  1.0000
  H   H11       1.0  0.0523524521941141  0.39682540586630916  0.8299200308925307  1.0000
  H   H12       1.0  0.9476481444059176  0.6031740666315599  0.17008139082526  1.0000
  H   H13       1.0  0.26764277314570245  0.3881618075996797  0.013967839353007574  1.0000
  H   H14       1.0  0.7323590098200512  0.6118387096643685  0.9860333479190616  1.0000
  H   H15       1.0  0.3282779247318501  0.49709525278733213  0.9402220085720431  1.0000
  H   H16       1.0  0.6717226723087464  0.5029042265693775  0.05977848809953198  1.0000
  H   H17       1.0  0.4005729624048157  0.22159894460584434  0.9324988467419573  1.0000
  H   H18       1.0  0.5994277924653418  0.7784015704718713  0.06750203241380619  1.0000
  H   H19       1.0  0.4583748062162769  0.3221196857554744  0.8503416583736795  1.0000
  H   H20       1.0  0.541626976308912  0.6778808246497335  0.14966045394460536  1.0000
  H   H21       1.0  0.10505953830274  0.45417341249009263  0.1349278239164633  1.0000
  H   H22       1.0  0.8949417707337588  0.5458239907520837  0.8650731409492495  1.0000
  H   H23       1.0  0.9295867687323707  0.3681346302775168  0.04093397037269846  1.0000
  H   H24       1.0  0.07041485596325  0.6318648444066781  0.9590677594613907  1.0000
  H   H25       1.0  0.070156451862438  0.2700603952325622  0.06195933398532113  1.0000
  H   H26       1.0  0.9298439864674607  0.7299380346854534  0.9380426302944969  1.0000
  H   H27       1.0  0.9565345708728046  0.0974193518581288  0.3267456126840642  1.0000
  H   H28       1.0  0.04346689687437794  0.902579100822749  0.6732538845734057  1.0000
  H   H29       1.0  0.7986547093356933  0.15930925413787383  0.2624667481379319  1.0000
  H   H30       1.0  0.20134588814546112  0.8406902320776768  0.7375328234874274  1.0000
  H   H31       1.0  0.9002214206315884  0.23039314728757881  0.4443935867184408  1.0000
  H   H32       1.0  0.099779019020005  0.7696053032069656  0.5556056024227232  1.0000
  H   H33       1.0  0.5195510235625349  0.13184630499779362  0.33647785138426667  1.0000
  H   H34       1.0  0.4804457785170726  0.8681552644909871  0.6635184776056064  1.0000
  H   H35       1.0  0.44647134098228486  0.1085716119500546  0.45735072624813  1.0000
  H   H36       1.0  0.5535295725985634  0.8914299525663552  0.5426486852993904  1.0000
  H   H37       1.0  0.42313674503585474  0.8653829448210434  0.2861859958905982  1.0000
  H   H38       1.0  0.5768617971352371  0.13461655073953693  0.7138111094097185  1.0000
  H   H39       1.0  0.3365953767983072  0.818797649420546  0.03008691311730868  1.0000
  H   H40       1.0  0.6634003958640093  0.1812038973053731  0.9699118828949124  1.0000
  H   H41       1.0  0.45498496811117667  0.9741616207035622  0.09812803444128808  1.0000
  H   H42       1.0  0.545010488892018  0.025837854580345297  0.9018699966025565  1.0000
  H   H43       1.0  0.14781831271168505  0.9335787620487257  0.9624747601497888  1.0000
  H   H44       1.0  0.8521774599506315  0.0664227846771936  0.03752403586243964  1.0000
  H   H45       1.0  0.2621019594453672  0.09125727493656649  0.02472541776819532  1.0000
  H   H46       1.0  0.7378939714870824  0.9087453143692057  0.9752728356819985  1.0000
  H   H47       1.0  0.14816915226982272  0.8339084037628554  0.1601908561993285  1.0000
  H   H48       1.0  0.8518293885795883  0.16609107122119582  0.8398090242396422  1.0000
  H   H49       1.0  0.1970676393893243  0.9527542422959386  0.3368178542378928  1.0000
  H   H50       1.0  0.8029310597302056  0.047246275267966105  0.6631814836390504  1.0000
  H   H51       1.0  0.08288187319469388  0.0831941865142909  0.1618079241815096  1.0000
  H   H52       1.0  0.9171157965075522  0.916806308286752  0.8381938807177818  1.0000
  H   H53       1.0  0.36394651382636306  0.6859591601544752  0.8232826952104092  1.0000
  H   H54       1.0  0.6360530542375143  0.3140403032982206  0.17671934343729834  1.0000
  H   H55       1.0  0.46973744756023444  0.5526903243300153  0.8023238085565936  1.0000
  H   H56       1.0  0.5302609354596086  0.44730811493302985  0.19767568939818153  1.0000
  H   H57       1.0  0.5370605640060758  0.7233306370628655  0.8268373962794514  1.0000
  H   H58       1.0  0.4629390040577946  0.27666882638983037  0.17316464236825624  1.0000
  H   H59       1.0  0.307511426865929  0.780156455432838  0.4219074782718195  1.0000
  H   H60       1.0  0.6924900413218184  0.21984200410687998  0.5780910939394345  1.0000
  H   H61       1.0  0.3139725659276564  0.6174272937022067  0.2993305594211506  1.0000
  H   H62       1.0  0.6860316700066137  0.3825690872368027  0.7006700222630613  1.0000
  H   H63       1.0  0.1627363303260623  0.6457427707428494  0.347931046399502  1.0000
  H   H64       1.0  0.8372670362233093  0.3542546574485216  0.6520677595601682  1.0000
  C   C1        1.0  0.1589172252389872  0.3733614017864824  0.676363768906505  1.0000
  C   C2        1.0  0.8410822639094917  0.62664430810014  0.3236356312989486  1.0000
  C   C3        1.0  0.23693316460219188  0.2620185862316831  0.6168526077413503  1.0000
  C   C4        1.0  0.7630721779012859  0.7379850721897442  0.3831469511473172  1.0000
  C   C5        1.0  0.25987486750985767  0.1833072137254774  0.7188477778277687  1.0000
  C   C6        1.0  0.7401270737260149  0.8166943461184247  0.28115286688226604  1.0000
  C   C7        1.0  0.12207426765236559  0.1896282638395306  0.7482912181852228  1.0000
  C   C8        1.0  0.8779264872177918  0.8103722512381849  0.2517096609705403  1.0000
  C   C9        1.0  0.1361552456765764  0.3493709878866865  0.7988339729771852  1.0000
  C   C10       1.0  0.8638462207489184  0.6506274442176548  0.20116829941893155  1.0000
  C   C11       1.0  0.280586355440505  0.39162025502101017  0.917765252489609  1.0000
  C   C12       1.0  0.7194132139450602  0.6083792290082144  0.0822340110194445  1.0000
  C   C13       1.0  0.3653075980842431  0.27844995880558093  0.8614591556955418  1.0000
  C   C14       1.0  0.6346940270519424  0.7215495227374545  0.13854164909233896  1.0000
  C   C15       1.0  0.031266476435206414  0.3633995801862754  0.11231732739406654  1.0000
  C   C16       1.0  0.9687349908714182  0.6365988656357614  0.8876830949096187  1.0000
  C   C17       1.0  0.9051816623536765  0.18961575547662327  0.33858118831525263  1.0000
  C   C18       1.0  0.09481861902779092  0.8103816524380748  0.6614185433879385  1.0000
  C   C19       1.0  0.3014446292852496  0.16504475768624616  0.2975750781366385  1.0000
  C   C20       1.0  0.6985520136430949  0.8349557555049925  0.7024236435076999  1.0000
  C   C21       1.0  0.423441650459246  0.0928402203874157  0.34588439297613155  1.0000
  C   C22       1.0  0.5765568912712878  0.9071592683143236  0.6541136373704076  1.0000
  C   C23       1.0  0.3665485188185968  0.9407919001163876  0.24873223862500274  1.0000
  C   C24       1.0  0.6334515240556584  0.059210691075861605  0.7512681723366157  1.0000
  C   C25       1.0  0.3574421095850298  0.9279776092779102  0.09927536524595139  1.0000
  C   C26       1.0  0.6425557201496019  0.07202395553835568  0.9007221969064433  1.0000
  C   C27       1.0  0.23332047489659402  0.004649784625506501  0.053116067756064894  1.0000
  C   C28       1.0  0.7666763249801889  0.9953517505690572  0.9468848864648933  1.0000
  C   C29       1.0  0.2121680552547502  0.9323803852385524  0.235966700068751  1.0000
  C   C30       1.0  0.7878296153286328  0.06762012328017869  0.764033254738102  1.0000
  C   C31       1.0  0.1870821956938613  0.05409913598570881  0.18280567819853397  1.0000
  C   C32       1.0  0.8129168177631101  0.9459034324436785  0.8171971997854328  1.0000
  C   C33       1.0  0.4431050946208402  0.6456637603564203  0.778579313624249  1.0000
  C   C34       1.0  0.5568946308320335  0.35433673195844057  0.22142403255386264  1.0000
  C   C35       1.0  0.2764831726138937  0.6680230705816755  0.38562345598762704  1.0000
  C   C36       1.0  0.7235181377442926  0.3319743532370368  0.6143747337394316  1.0000
  N   N1        1.0  0.2866406011171278  0.2929309699967746  0.3458937760510423  1.0000
  N   N2        1.0  0.7133560404895293  0.7070695226179425  0.6541077207319504  1.0000
  N   N3        1.0  0.11796014409940629  0.4720194264726629  0.6334117503377713  1.0000
  N   N4        1.0  0.8820411644965273  0.5279779699106798  0.366590139574157  1.0000
  O   O1        1.0  0.1519952271369789  0.47846354416353887  0.5199435409146674  1.0000
  O   O2        1.0  0.8480044996375894  0.521536968727851  0.4800570301247901  1.0000
  O   O3        1.0  0.4028536187492548  0.3787600953278414  0.45405380467883566  1.0000
  O   O4        1.0  0.5971424686910681  0.6212435091224081  0.5459476063942079  1.0000
