data_image0
_chemical_formula_structural       Zn2H38C42N2O12
_chemical_formula_sum              "Zn2 H38 C42 N2 O12"
_cell_length_a       10.756069564043205
_cell_length_b       13.954882554160482
_cell_length_c       15.280025978112976
_cell_angle_alpha    90.19453121317865
_cell_angle_beta     91.41132364197651
_cell_angle_gamma    89.14386082116653

_space_group_name_H-M_alt    "P 1"
_space_group_IT_number       1

loop_
  _space_group_symop_operation_xyz
  'x, y, z'

loop_
  _atom_site_type_symbol
  _atom_site_label
  _atom_site_symmetry_multiplicity
  _atom_site_fract_x
  _atom_site_fract_y
  _atom_site_fract_z
  _atom_site_occupancy
  Zn  Zn1       1.0  0.49734663385626726  0.39749122466702863  0.4994629383841342  1.0000
  Zn  Zn2       1.0  0.49986884569684514  0.5998471466736602  0.5009801210980953  1.0000
  H   H1        1.0  0.8786910170656838  0.5602734152489146  0.3738156367094946  1.0000
  H   H2        1.0  0.5735567958781473  0.6457235491557467  0.05960701407929041  1.0000
  H   H3        1.0  0.46443609822553356  0.35334751790244917  0.2235640029342818  1.0000
  H   H4        1.0  0.41234768687436935  0.6447697281650446  0.7779775295011435  1.0000
  H   H5        1.0  0.5333306785052087  0.3511095331087403  0.7760762519827297  1.0000
  H   H6        1.0  0.5881222899751181  0.6434900847769851  0.22300531106444046  1.0000
  H   H7        1.0  0.3196506908125016  0.7501713991162903  0.4554289671155587  1.0000
  H   H8        1.0  0.38302841354008177  0.24865125216011558  0.6050358744667861  1.0000
  H   H9        1.0  0.6833686971416526  0.7469802580323376  0.5455577085911402  1.0000
  H   H10       1.0  0.611514818772406  0.24784173703498877  0.39242501048273953  1.0000
  H   H11       1.0  0.15220015842413656  0.8535769398956602  0.47211134303009333  1.0000
  H   H12       1.0  0.11774378557960569  0.4512128331202235  0.6323017287411902  1.0000
  H   H13       1.0  0.209715991849535  0.8441207836476465  0.3638927254019961  1.0000
  H   H14       1.0  0.1212174426503196  0.0067039105081576995  0.32740357714552465  1.0000
  H   H15       1.0  0.002860390433930599  0.9303364497644394  0.3654625786345634  1.0000
  H   H16       1.0  0.06720514071243851  0.0195979601549325  0.4360978421551991  1.0000
  H   H17       1.0  0.22766185414569406  0.14727257293875337  0.6512169432266361  1.0000
  H   H18       1.0  0.362340101674917  0.15265855581349533  0.7215844557566984  1.0000
  H   H19       1.0  0.31829239842524976  0.9874640188586452  0.777725293700101  1.0000
  H   H20       1.0  0.19005240397647324  0.0670849495898835  0.7949606369218075  1.0000
  H   H21       1.0  0.18359035938522789  0.9820066058745451  0.7078666579308006  1.0000
  H   H22       1.0  0.8513388288222146  0.8465878555610332  0.5264729421031973  1.0000
  H   H23       1.0  0.051979536565923495  0.40322975405114647  0.37833645755772954  1.0000
  H   H24       1.0  0.794535364598957  0.841049471695072  0.6349463917081482  1.0000
  H   H25       1.0  0.8822551150502846  0.0027803196513929  0.6687358189770195  1.0000
  H   H26       1.0  0.0010097183281346002  0.9233183967465236  0.6313593668062865  1.0000
  H   H27       1.0  0.9352560659611344  0.012057173116119195  0.5596380490188295  1.0000
  H   H28       1.0  0.7690133249536971  0.1469112906840806  0.3451812364841303  1.0000
  H   H29       1.0  0.633552627676977  0.15115155255548268  0.275294152706195  1.0000
  H   H30       1.0  0.6851799423797899  0.9859681946683521  0.2186611728383454  1.0000
  H   H31       1.0  0.8096496768522954  0.06614121682839878  0.20149049421102924  1.0000
  H   H32       1.0  0.8203065544020518  0.981444818427427  0.28834915237061415  1.0000
  H   H33       1.0  0.9455748006933077  0.6085021170127616  0.6279902165816368  1.0000
  H   H34       1.0  0.9398899023229602  0.3401175098790716  0.5354903761678429  1.0000
  H   H35       1.0  0.05583258194234019  0.67165818099064  0.4701531313368434  1.0000
  H   H36       1.0  0.4432780140788494  0.35539129608557823  0.0606944837232035  1.0000
  H   H37       1.0  0.42893691472555423  0.647515732236606  0.9413628995730434  1.0000
  H   H38       1.0  0.5565144673194952  0.3534647618214635  0.9389457111026474  1.0000
  C   C1        1.0  0.5311693402784812  0.4959944510771307  0.3310163484330744  1.0000
  C   C2        1.0  0.5631647385121495  0.2034988838257235  0.4386345322794156  1.0000
  C   C3        1.0  0.5016297293900394  0.9457109605841222  0.4987626033924784  1.0000
  C   C4        1.0  0.5007955223520142  0.05161844255403029  0.49862448881906835  1.0000
  C   C5        1.0  0.25885208113741237  0.508020503008339  0.4784815090651833  1.0000
  C   C6        1.0  0.7378243154235024  0.49870730244401773  0.5251789225294701  1.0000
  C   C7        1.0  0.026336263883258902  0.4482053961423417  0.4340206048602653  1.0000
  C   C8        1.0  0.9701686785816152  0.5633451756155948  0.5721197368627173  1.0000
  C   C9        1.0  0.9674966481653443  0.41335913721918155  0.5209310503595788  1.0000
  C   C10       1.0  0.029316260488442894  0.5981314774692664  0.4850620597115736  1.0000
  C   C11       1.0  0.934522150599399  0.5362978360221646  0.4306702396071032  1.0000
  C   C12       1.0  0.4663434834006778  0.49578894502624127  0.6693599223658707  1.0000
  C   C13       1.0  0.06217501826284182  0.47516375640014263  0.5753270317058254  1.0000
  C   C14       1.0  0.8751567548656922  0.500829021659534  0.5184207727248946  1.0000
  C   C15       1.0  0.1217703893151949  0.5106128439790893  0.48817934294866216  1.0000
  C   C16       1.0  0.47787330850167115  0.4181404203232617  0.0957566957337264  1.0000
  C   C17       1.0  0.4538489696570096  0.5826265072668733  0.9053805095165828  1.0000
  C   C18       1.0  0.5220320758483581  0.4169768302941179  0.9041505565387595  1.0000
  C   C19       1.0  0.5475970264086953  0.5817644967915496  0.09532247352068171  1.0000
  C   C20       1.0  0.4886609790543234  0.41663512908792905  0.186473987923641  1.0000
  C   C21       1.0  0.44286498231728183  0.5812416845839224  0.8143696891578217  1.0000
  C   C22       1.0  0.5100765307647563  0.41528445333788966  0.813432993516912  1.0000
  C   C23       1.0  0.3955399831819406  0.894723679011541  0.4717733602448392  1.0000
  C   C24       1.0  0.5574086567597902  0.5805996100547474  0.1863928871282994  1.0000
  C   C25       1.0  0.5276829487151531  0.4979935722405243  0.23288192865638996  1.0000
  C   C26       1.0  0.47112385792208034  0.4975382088889404  0.7674978935001634  1.0000
  C   C27       1.0  0.506868837934725  0.500737723321862  0.0483147402073598  1.0000
  C   C28       1.0  0.494363619250457  0.5006664722702538  0.9519392993199818  1.0000
  C   C29       1.0  0.1854959067998294  0.8951441126702802  0.4162576571432766  1.0000
  C   C30       1.0  0.0887613630473396  0.9675274323321617  0.38445517111403404  1.0000
  C   C31       1.0  0.30051751392615245  0.10368308661031019  0.6848573665331089  1.0000
  C   C32       1.0  0.2449700270088329  0.030538967255139896  0.7447892522916179  1.0000
  C   C33       1.0  0.8181448588058656  0.8902786515259749  0.5817456118299023  1.0000
  C   C34       1.0  0.43272473839583375  0.10369220712048127  0.5606604280093209  1.0000
  C   C35       1.0  0.9146462758855661  0.9616220369391184  0.6121307731632797  1.0000
  C   C36       1.0  0.6979805553000702  0.1027266587882352  0.3117665950659188  1.0000
  C   C37       1.0  0.7565667073302363  0.0295026264981573  0.2516118139312695  1.0000
  C   C38       1.0  0.6077541903938908  0.8929551374159956  0.5264901388239593  1.0000
  C   C39       1.0  0.5668915796628013  0.10309196982113632  0.4364780250630887  1.0000
  C   C40       1.0  0.39844482322428837  0.7944102539120477  0.4741689080055949  1.0000
  C   C41       1.0  0.4328514653168653  0.204048663718801  0.5586551705775238  1.0000
  C   C42       1.0  0.6047336290471677  0.7925964923022307  0.5258529615554367  1.0000
  N   N1        1.0  0.501479200893236  0.7465647135330045  0.5005164721973756  1.0000
  N   N2        1.0  0.4972972814437853  0.2507524525372986  0.4987008288186416  1.0000
  O   O1        1.0  0.5136171846211184  0.41484205451453693  0.3663684347415811  1.0000
  O   O2        1.0  0.3712775081451555  0.05185588047415728  0.6205307832999907  1.0000
  O   O3        1.0  0.7083519345255523  0.9437850398286898  0.553909357290472  1.0000
  O   O4        1.0  0.630027843401848  0.05095842381479801  0.376350445443741  1.0000
  O   O5        1.0  0.44890460840495183  0.5752802626025184  0.6299822342180761  1.0000
  O   O6        1.0  0.48260741530302903  0.4142564956049171  0.6330556493024915  1.0000
  O   O7        1.0  0.5488585965136252  0.5748318373709012  0.3713525226055765  1.0000
  O   O8        1.0  0.3098923204229179  0.4255813243974274  0.4873098484185405  1.0000
  O   O9        1.0  0.6825155210877157  0.5787443585345428  0.5395782231459023  1.0000
  O   O10       1.0  0.6860682013148108  0.41855961033019173  0.5113064898916306  1.0000
  O   O11       1.0  0.3145779188009358  0.586593276677661  0.4654529807451199  1.0000
  O   O12       1.0  0.2948499617587359  0.9470823406853623  0.4435941926555955  1.0000
