data_image0
_chemical_formula_structural       Zn4H24C60N18O6
_chemical_formula_sum              "Zn4 H24 C60 N18 O6"
_cell_length_a       18.487233118106353
_cell_length_b       18.617742933549728
_cell_length_c       18.574874039782387
_cell_angle_alpha    101.26029337708593
_cell_angle_beta     109.39149645800838
_cell_angle_gamma    112.09712520998438

_space_group_name_H-M_alt    "P 1"
_space_group_IT_number       1

loop_
  _space_group_symop_operation_xyz
  'x, y, z'

loop_
  _atom_site_type_symbol
  _atom_site_label
  _atom_site_symmetry_multiplicity
  _atom_site_fract_x
  _atom_site_fract_y
  _atom_site_fract_z
  _atom_site_occupancy
  Zn  Zn1       1.0  0.9024310321038983  0.011453880748270357  0.3569861022227486  1.0000
  Zn  Zn2       1.0  0.11192806450943492  0.9990795281793513  0.6137767129187992  1.0000
  Zn  Zn3       1.0  0.10882369907351118  0.11676509175956801  0.48304766938932175  1.0000
  Zn  Zn4       1.0  0.8895054178616351  0.9025910228817012  0.5295522112989206  1.0000
  H   H1        1.0  0.9091793843534788  0.017493398021088048  0.18788267647812526  1.0000
  H   H2        1.0  0.6895851003225815  0.0038370271304799786  0.41715276335868623  1.0000
  H   H3        1.0  0.8522004673381004  0.7176534279297044  0.5313976070921312  1.0000
  H   H4        1.0  0.10645814989555899  0.2592345279454237  0.609884472080381  1.0000
  H   H5        1.0  0.17472411641767846  0.2086140261844704  0.3547058736657504  1.0000
  H   H6        1.0  0.8663978554289002  0.022455503651777016  0.6515025902669079  1.0000
  H   H7        1.0  0.38539347466397805  0.6226843557734442  0.950180078737361  1.0000
  H   H8        1.0  0.5501660449321689  0.4447779506864151  0.1907499291616474  1.0000
  H   H9        1.0  0.1647690348802655  0.7991975235961138  0.6743720675888554  1.0000
  H   H10       1.0  0.1958995339982792  0.9028653396765594  0.6990194460949367  1.0000
  H   H11       1.0  0.8211407899717216  0.20348885346941614  0.40536910456626174  1.0000
  H   H12       1.0  0.14878664246178627  0.14291916369777624  0.7750987475469059  1.0000
  H   H13       1.0  0.7991033949644049  0.10850469599733964  0.34570138495104175  1.0000
  H   H14       1.0  0.6741323177592875  0.8476920540150843  0.1802298884976494  1.0000
  H   H15       1.0  0.32458386507551745  0.14836821681002016  0.8293808964541965  1.0000
  H   H16       1.0  0.6649851662444562  0.6585948373086481  0.044141465167968005  1.0000
  H   H17       1.0  0.2833275086041879  0.3502983334527769  0.007771088289878504  1.0000
  H   H18       1.0  0.565578647614828  0.4630084583116557  0.9761898530018698  1.0000
  H   H19       1.0  0.3853585917140663  0.5463917333594142  0.0794823390779626  1.0000
  H   H20       1.0  0.15423666243601278  0.015986466331178  0.36430845604075296  1.0000
  H   H21       1.0  0.6738460925311358  0.79718297085617  0.4979583302859324  1.0000
  H   H22       1.0  0.8017789020880172  0.727883325786827  0.3911217729404866  1.0000
  H   H23       1.0  0.26399443989510013  0.3109045213909525  0.6376378858767281  1.0000
  H   H24       1.0  0.14040822640061626  0.8653339147453637  0.5152757773670016  1.0000
  C   C1        1.0  0.9725326093329657  0.059673037397608715  0.23964939631198942  1.0000
  C   C2        1.0  0.42543271120563725  0.5278809819826975  0.05634658372602535  1.0000
  C   C3        1.0  0.5324842007320142  0.5701958860394001  0.019481489542826656  1.0000
  C   C4        1.0  0.417387969447809  0.4386158356929499  0.03507695822998614  1.0000
  C   C5        1.0  0.6582485103876292  0.6941736319728518  0.232740893715828  1.0000
  C   C6        1.0  0.34140990776177205  0.3191044952254458  0.8082303425756477  1.0000
  C   C7        1.0  0.5189065058995793  0.4754383645796382  0.07919225935341959  1.0000
  C   C8        1.0  0.43036209326512426  0.5317623969866007  0.9742879244699549  1.0000
  C   C9        1.0  0.5274804666118413  0.5666235718455398  0.10377722590244788  1.0000
  C   C10       1.0  0.42354535682260763  0.4422974301102016  0.9508727124976131  1.0000
  C   C11       1.0  0.5911889981393372  0.634091296726915  0.17828294574626113  1.0000
  C   C12       1.0  0.0802371830603903  0.10615989239134656  0.7320414655865405  1.0000
  C   C13       1.0  0.37517025035715784  0.3764149598859206  0.873547962393566  1.0000
  C   C14       1.0  0.99034928179924  0.6692474911396716  0.5898502330040499  1.0000
  C   C15       1.0  0.9751330170598322  0.3153053347745569  0.5480661131507176  1.0000
  C   C16       1.0  0.0667529582300119  0.8247620950564495  0.6237293051806885  1.0000
  C   C17       1.0  0.9102749587779826  0.16716008085585793  0.4542033730953534  1.0000
  C   C18       1.0  0.9883427967018504  0.6017487836312014  0.5868925429064688  1.0000
  C   C19       1.0  0.9760632105202802  0.3832602012333624  0.5613887749457546  1.0000
  C   C20       1.0  0.984378084813507  0.5274252008214263  0.5808761160903372  1.0000
  C   C21       1.0  0.9800439459989435  0.45816749967146114  0.5731343850110663  1.0000
  C   C22       1.0  0.5545382589351391  0.8669600054058793  0.4285010888940731  1.0000
  C   C23       1.0  0.9919943888940282  0.7448714616260406  0.5911395096053909  1.0000
  C   C24       1.0  0.21595274575091847  0.8935018901818526  0.3999974377114626  1.0000
  C   C25       1.0  0.4806772423129643  0.8584235523322691  0.4119149634823102  1.0000
  C   C26       1.0  0.2708600278389781  0.874553076471905  0.39244883282732707  1.0000
  C   C27       1.0  0.40398844130793793  0.8561785637209527  0.39921015025885953  1.0000
  C   C28       1.0  0.3370923210130883  0.8611935470296146  0.3916865701342331  1.0000
  C   C29       1.0  0.05178059660776311  0.1453523137965647  0.17532944618398713  1.0000
  C   C30       1.0  0.0115443703204292  0.13393423494986223  0.8219141447541104  1.0000
  C   C31       1.0  0.04795891686933369  0.15718802886947003  0.11155187039880587  1.0000
  C   C32       1.0  0.021354487587743196  0.1528626206009989  0.8931537084786071  1.0000
  C   C33       1.0  0.041342899766299  0.1643862457105811  0.03953449064775328  1.0000
  C   C34       1.0  0.9757327266474148  0.23977341796819474  0.5248472926778048  1.0000
  C   C35       1.0  0.0315885531967481  0.16304391094639217  0.9699882098973446  1.0000
  C   C36       1.0  0.14410745492391186  0.9856594666795925  0.4070288726713115  1.0000
  C   C37       1.0  0.6923165850794747  0.8516106056210051  0.48101924182378764  1.0000
  C   C38       1.0  0.800431149287661  0.77406851963368  0.36373190665820937  1.0000
  C   C39       1.0  0.2589945427277627  0.256894231742244  0.6539137438040256  1.0000
  C   C40       1.0  0.13620635205560208  0.9080507573217319  0.48374211217342367  1.0000
  C   C41       1.0  0.7013459621241509  0.9575748493261501  0.4394275916017634  1.0000
  C   C42       1.0  0.7703813435325915  0.8462403320845272  0.28738158127593766  1.0000
  C   C43       1.0  0.2670878999280575  0.16670638046047512  0.7146148598385195  1.0000
  C   C44       1.0  0.9215341500554646  0.7612260374272283  0.5604925035931672  1.0000
  C   C45       1.0  0.16528626159120563  0.9235862273834173  0.42420468903464575  1.0000
  C   C46       1.0  0.043911653001671894  0.22067166811020666  0.5562073636482978  1.0000
  C   C47       1.0  0.1082102581218081  0.158111357870979  0.3252537677047797  1.0000
  C   C48       1.0  0.9355000408647954  0.04487904799497494  0.6695737056902332  1.0000
  C   C49       1.0  0.04615275275411791  0.12365420532558603  0.24203115834516348  1.0000
  C   C50       1.0  0.0080492008838036  0.10161091299188031  0.7453980126404786  1.0000
  C   C51       1.0  0.38481940320951935  0.5647298225581637  0.9186210529917103  1.0000
  C   C52       1.0  0.5666679981491856  0.44691738505005685  0.13836625435109084  1.0000
  C   C53       1.0  0.7381368963308076  0.8847807397324491  0.23461990969277485  1.0000
  C   C54       1.0  0.2756957491637522  0.11722429000753468  0.7642350205341514  1.0000
  C   C55       1.0  0.5964510737503801  0.6481635689497267  0.020775390362878572  1.0000
  C   C56       1.0  0.6414084079092673  0.8880044370068986  0.4475135060023374  1.0000
  C   C57       1.0  0.35268809177868826  0.3634461407442018  0.03751284143340431  1.0000
  C   C58       1.0  0.7363480304896725  0.7650173347679257  0.29066953868045425  1.0000
  C   C59       1.0  0.29607140539096116  0.2536453908119185  0.7318054591378595  1.0000
  C   C60       1.0  0.5260648819007513  0.48198207361203765  0.9996700905534437  1.0000
  N   N1        1.0  0.9899087201401783  0.05702922447862579  0.3149180253232728  1.0000
  N   N2        1.0  0.7799070276010267  0.9622551229040962  0.46517289898826397  1.0000
  N   N3        1.0  0.8484563659419848  0.8966064808391893  0.35463945574862515  1.0000
  N   N4        1.0  0.2157022791588759  0.12388998702331837  0.633215162940722  1.0000
  N   N5        1.0  0.9510934867942638  0.8424191215919877  0.5731805268773016  1.0000
  N   N6        1.0  0.022714257534410403  0.1446798210403415  0.5084995428697495  1.0000
  N   N7        1.0  0.07363797714466361  0.11812990428315834  0.3679807413909017  1.0000
  N   N8        1.0  0.9633721850466088  0.017028495863726897  0.6173426593235902  1.0000
  N   N9        1.0  0.15310873416781587  0.8439197673648522  0.6575718163726731  1.0000
  N   N10       1.0  0.828971145480786  0.15211632491783433  0.4029390281462781  1.0000
  N   N11       1.0  0.05242800468423069  0.05480589063541429  0.6559198273597885  1.0000
  N   N12       1.0  0.0414903814080461  0.8822528186512243  0.6125966084575791  1.0000
  N   N13       1.0  0.9396862889212939  0.11172135688835269  0.44579902543689087  1.0000
  N   N14       1.0  0.10808545487788732  0.006502640193225824  0.45449891892192795  1.0000
  N   N15       1.0  0.7741391291390868  0.8969573837013344  0.491057632912927  1.0000
  N   N16       1.0  0.8662915897215909  0.8541963214153157  0.4018923687689409  1.0000
  N   N17       1.0  0.21145049786251488  0.1782771949601738  0.5965526978613764  1.0000
  N   N18       1.0  0.1031394840018933  0.958433582230434  0.5014437958481607  1.0000
  O   O1        1.0  0.34843753424862467  0.5312280694110287  0.8440007127348464  1.0000
  O   O2        1.0  0.6220045913362428  0.4290751374067839  0.13194606405460266  1.0000
  O   O3        1.0  0.7816942784764721  0.9615681045618987  0.2503844046086884  1.0000
  O   O4        1.0  0.22836140083867207  0.039757029163382605  0.7349532824577735  1.0000
  O   O5        1.0  0.5778449005114367  0.7005095365320456  0.0018575545863512284  1.0000
  O   O6        1.0  0.37232568339121747  0.31671750398124493  0.06761892723463359  1.0000
