data_image0
_chemical_formula_structural       Zn2H30C34N4O12
_chemical_formula_sum              "Zn2 H30 C34 N4 O12"
_cell_length_a       10.842822992194618
_cell_length_b       11.808814615028602
_cell_length_c       13.146364075145165
_cell_angle_alpha    85.62405987553339
_cell_angle_beta     88.85030328020373
_cell_angle_gamma    85.65961620632181

_space_group_name_H-M_alt    "P 1"
_space_group_IT_number       1

loop_
  _space_group_symop_operation_xyz
  'x, y, z'

loop_
  _atom_site_type_symbol
  _atom_site_label
  _atom_site_symmetry_multiplicity
  _atom_site_fract_x
  _atom_site_fract_y
  _atom_site_fract_z
  _atom_site_occupancy
  Zn  Zn1       1.0  0.48959828241022046  0.6206712764247371  0.5058066807731832  1.0000
  Zn  Zn2       1.0  0.5130295914235533  0.38307214371572224  0.5027898193139747  1.0000
  H   H1        1.0  0.0984586108964791  0.6230621262795992  0.6248929792904433  1.0000
  H   H2        1.0  0.07781222976552021  0.48200138640034856  0.6750091723282805  1.0000
  H   H3        1.0  0.09879144220466432  0.6620873364844042  0.43230092999309716  1.0000
  H   H4        1.0  0.11795825852857428  0.3440262588402518  0.43311273161014424  1.0000
  H   H5        1.0  0.11619734194035658  0.3188174090137039  0.5669220552187892  1.0000
  H   H6        1.0  0.8997677077774852  0.3385490878214126  0.572723894514638  1.0000
  H   H7        1.0  0.9019705799794053  0.3441120798120635  0.4397386353574077  1.0000
  H   H8        1.0  0.13922728152567743  0.551282473058741  0.35242396906796347  1.0000
  H   H9        1.0  0.9405452594371867  0.4968203327311043  0.3427592189748267  1.0000
  H   H10       1.0  0.5369321943683402  0.3608974237116269  0.18428470985674034  1.0000
  H   H11       1.0  0.5830562410860053  0.268949516918468  0.0209834674882288  1.0000
  H   H12       1.0  0.4183723420089009  0.7294384447402606  0.9879285446979578  1.0000
  H   H13       1.0  0.5875621097534064  0.2834480600839626  0.8301697169812666  1.0000
  H   H14       1.0  0.46761084531340197  0.6383277732806858  0.8235280750363214  1.0000
  H   H15       1.0  0.6244998179598581  0.8130703700571897  0.4188870967272249  1.0000
  H   H16       1.0  0.3204877500043891  0.7821522792447053  0.6117249898874417  1.0000
  H   H17       1.0  0.7042027840267692  0.010965559675135197  0.3683106515251068  1.0000
  H   H18       1.0  0.29670995541872  0.9927116940517705  0.6337909008358051  1.0000
  H   H19       1.0  0.6803183685065406  0.22187296286103483  0.3901299462834017  1.0000
  H   H20       1.0  0.3784738321396119  0.19059017877496834  0.585068727578921  1.0000
  H   H21       1.0  0.9783232458553003  0.5177007349198276  0.8125927206939563  1.0000
  H   H22       1.0  0.872595982467715  0.6406928737879624  0.7997569078949521  1.0000
  H   H23       1.0  0.8225463904408342  0.5098204218322806  0.853796351287009  1.0000
  H   H24       1.0  0.7457762218201937  0.5422331622784852  0.6786925488386399  1.0000
  H   H25       1.0  0.852775197648235  0.42205673949304395  0.6891595517925279  1.0000
  H   H26       1.0  0.715861405082876  0.6042474413282121  0.28899665946408243  1.0000
  H   H27       1.0  0.7555257486788419  0.729478222495764  0.2176413256506179  1.0000
  H   H28       1.0  0.84149947522981  0.5983266392229748  0.20000817911405722  1.0000
  H   H29       1.0  0.8368671474552157  0.7285067164110616  0.3947750465312294  1.0000
  H   H30       1.0  0.9590346081752871  0.7210191558523319  0.3055022817823384  1.0000
  C   C1        1.0  0.5257490208843835  0.4706684651561872  0.7024990050311356  1.0000
  C   C2        1.0  0.262559045059426  0.4965195798141052  0.5233748515126988  1.0000
  C   C3        1.0  0.47251509059840663  0.5234726909554224  0.30638787179822186  1.0000
  C   C4        1.0  0.7402405156381633  0.5125723767965765  0.485981685696437  1.0000
  C   C5        1.0  0.05886268689671682  0.5436610100211751  0.6091724255347299  1.0000
  C   C6        1.0  0.9168202848470769  0.5636520790799862  0.597299437738698  1.0000
  C   C7        1.0  0.08225475865950219  0.5741627101053339  0.41900936226882357  1.0000
  C   C8        1.0  0.0794460505343366  0.3772318274646054  0.5038477634639447  1.0000
  C   C9        1.0  0.12250874170756991  0.4963502091846264  0.5138227253871361  1.0000
  C   C10       1.0  0.8812421534946537  0.5101253609984084  0.49575375143402295  1.0000
  C   C11       1.0  0.9443202819228417  0.5637539630005861  0.39658028744413787  1.0000
  C   C12       1.0  0.9367849421967732  0.38460618895157933  0.5046490024890244  1.0000
  C   C13       1.0  0.468531085536263  0.5333391110218526  0.19201822828447482  1.0000
  C   C14       1.0  0.526476947731922  0.4623028106075891  0.8169280970621454  1.0000
  C   C15       1.0  0.557260643017962  0.34957543274241226  0.9777516838967484  1.0000
  C   C16       1.0  0.5600515408960263  0.35718474679178064  0.8726401704977673  1.0000
  C   C17       1.0  0.49171170597402636  0.5582120047704535  0.8679146243299268  1.0000
  C   C18       1.0  0.485527823475543  0.5523644656091662  0.975603091166661  1.0000
  C   C19       1.0  0.5183831846808502  0.44581446530159485  0.031970782530834185  1.0000
  C   C20       1.0  0.5099432753792995  0.44027813247320313  0.13969198046756753  1.0000
  C   C21       1.0  0.4348815463186639  0.6372566299389604  0.13417765511720595  1.0000
  C   C22       1.0  0.444852164111431  0.6481284029485862  0.029590210875468887  1.0000
  C   C23       1.0  0.6313488664921253  0.047386362971252496  0.4169461538271334  1.0000
  C   C24       1.0  0.6190008963227098  0.16251069109407718  0.4282049034859268  1.0000
  C   C25       1.0  0.44908755662716254  0.14651154052241816  0.5389682267836446  1.0000
  C   C26       1.0  0.45374111842387077  0.027125162033797792  0.5328214997529412  1.0000
  C   C27       1.0  0.5480636582057771  0.9765652283986624  0.46998424290814694  1.0000
  C   C28       1.0  0.553428237921473  0.857019999967939  0.46457757987848664  1.0000
  C   C29       1.0  0.382469405024736  0.8414000157903343  0.5744502405262393  1.0000
  C   C30       1.0  0.37001097931651117  0.9564721672144001  0.5855226887746807  1.0000
  C   C31       1.0  0.8437494698664737  0.5152259433510833  0.6900115131167011  1.0000
  C   C32       1.0  0.8824255730427237  0.5481383946328718  0.7943531118200367  1.0000
  C   C33       1.0  0.883846161405721  0.6730253029595656  0.34054858353619  1.0000
  C   C34       1.0  0.7942239021366149  0.649819949093441  0.2575298558540949  1.0000
  N   N1        1.0  0.47371132390144755  0.7933323056428347  0.5149077917084239  1.0000
  N   N2        1.0  0.5288894852116854  0.21044566609631934  0.4889507993737323  1.0000
  N   N3        1.0  0.3776584137729841  0.7366992623256149  0.1839453021822094  1.0000
  N   N4        1.0  0.8841048360725737  0.6965787777537212  0.5904717056790002  1.0000
  O   O1        1.0  0.5056896646138255  0.5700737668653132  0.6587712059459886  1.0000
  O   O2        1.0  0.5445197735102383  0.3785435846651525  0.6581290072886644  1.0000
  O   O3        1.0  0.305987835267544  0.5939399952976173  0.5195706198828487  1.0000
  O   O4        1.0  0.3260922859375129  0.40114165710971844  0.5322397561658716  1.0000
  O   O5        1.0  0.4803800658835158  0.6153235466178159  0.34945120005405517  1.0000
  O   O6        1.0  0.47271114698438044  0.42361444656057046  0.3498512777450315  1.0000
  O   O7        1.0  0.6793962043918214  0.6080938516310821  0.4913655078818591  1.0000
  O   O8        1.0  0.693270050008465  0.41882333231188085  0.474102360417312  1.0000
  O   O9        1.0  0.4297309814824359  0.8267610870141124  0.1719975871634603  1.0000
  O   O10       1.0  0.27824395719423484  0.7239551654365424  0.22958659534995005  1.0000
  O   O11       1.0  0.9578335042900007  0.7580667530966207  0.5443076918654481  1.0000
  O   O12       1.0  0.7888108607879547  0.7337328492056865  0.6332543851249992  1.0000
