data_image0
_chemical_formula_structural       Cu2H24C40N6O8
_chemical_formula_sum              "Cu2 H24 C40 N6 O8"
_cell_length_a       7.549055410069291
_cell_length_b       10.416584403422808
_cell_length_c       12.206969535383745
_cell_angle_alpha    104.00969859101998
_cell_angle_beta     104.4164364229076
_cell_angle_gamma    106.95189621415213

_space_group_name_H-M_alt    "P 1"
_space_group_IT_number       1

loop_
  _space_group_symop_operation_xyz
  'x, y, z'

loop_
  _atom_site_type_symbol
  _atom_site_label
  _atom_site_symmetry_multiplicity
  _atom_site_fract_x
  _atom_site_fract_y
  _atom_site_fract_z
  _atom_site_occupancy
  Cu  Cu1       1.0  0.07023103607541968  0.3404785128530177  0.245806202946639  1.0000
  Cu  Cu2       1.0  0.9297746773338321  0.6595233463422474  0.7541909474491107  1.0000
  H   H1        1.0  0.07064025756984188  0.6435268104746256  0.2931535868071081  1.0000
  H   H2        1.0  0.9293732483698138  0.3564772060149081  0.706853445521979  1.0000
  H   H3        1.0  0.33383783685126645  0.8900621537302911  0.3863128160181405  1.0000
  H   H4        1.0  0.6661851785995339  0.10993873738860317  0.6136860894999074  1.0000
  H   H5        1.0  0.6890136511464107  0.9158032567462154  0.46234312678693357  1.0000
  H   H6        1.0  0.31100699770639295  0.0841955013772946  0.5376500481307219  1.0000
  H   H7        1.0  0.7645731383163863  0.6963272856879  0.46015466203610345  1.0000
  H   H8        1.0  0.23544036655759024  0.3036682384887824  0.5398383458242435  1.0000
  H   H9        1.0  0.7998011566010205  0.4836244344243992  0.43494919610194666  1.0000
  H   H10       1.0  0.20020431546658563  0.5163742326150994  0.5650464440018652  1.0000
  H   H11       1.0  0.4687995293276543  0.03174989637948038  0.26919043575925633  1.0000
  H   H12       1.0  0.5311960256840821  0.9682455188550205  0.7308062278211978  1.0000
  H   H13       1.0  0.1611010897748883  0.8717250224198589  0.14049589524145736  1.0000
  H   H14       1.0  0.8388922355173991  0.1282692883136392  0.8595173895996953  1.0000
  H   H15       1.0  0.8153842696015589  0.7187940368570622  0.02050345540232004  1.0000
  H   H16       1.0  0.1846060113840267  0.2812023840001173  0.9795105921561957  1.0000
  H   H17       1.0  0.557904607247977  0.8292646903047395  0.9983319898714742  1.0000
  H   H18       1.0  0.44209129519764906  0.17073709639666387  0.00167504324379311  1.0000
  H   H19       1.0  0.6688623946334785  0.09544737009061778  0.09504180662875676  1.0000
  H   H20       1.0  0.3311441778826849  0.9045587554246168  0.9049530763167513  1.0000
  H   H21       1.0  0.6766986866098466  0.5511779645489766  0.21555083411564627  1.0000
  H   H22       1.0  0.3232761905457338  0.4488173281667113  0.7844482260685411  1.0000
  H   H23       1.0  0.5833770951169229  0.3487588854672125  0.8449628712167369  1.0000
  H   H24       1.0  0.4165896429726459  0.6512310478081671  0.15503051259288722  1.0000
  C   C1        1.0  0.22642769465958418  0.6613267601155  0.32985224597233304  1.0000
  C   C2        1.0  0.7735869117286216  0.33868471484976936  0.6701540291984571  1.0000
  C   C3        1.0  0.3742148513757541  0.7972628388740755  0.38096170874715796  1.0000
  C   C4        1.0  0.6258070489335807  0.20274123832587773  0.6190376692295985  1.0000
  C   C5        1.0  0.5702741168030914  0.8109033548875428  0.4258803604505986  1.0000
  C   C6        1.0  0.42974645707856507  0.1891007190920462  0.5741163465927174  1.0000
  C   C7        1.0  0.6131195837217265  0.6883049908215852  0.42049253558544564  1.0000
  C   C8        1.0  0.38688938511305093  0.31169262455941993  0.5795075461099516  1.0000
  C   C9        1.0  0.4584651240402381  0.5552628115541509  0.36629600193398915  1.0000
  C   C10       1.0  0.5415367460662353  0.44473689715355397  0.6337009124289495  1.0000
  C   C11       1.0  0.4831713729274016  0.4169082147998395  0.34726760344771895  1.0000
  C   C12       1.0  0.5168282815890564  0.5830872215131818  0.6527305405322323  1.0000
  C   C13       1.0  0.6592950384269971  0.39470537051361987  0.38360028331150176  1.0000
  C   C14       1.0  0.3407097707922092  0.6052922180801374  0.6164015841848071  1.0000
  C   C15       1.0  0.6524289746220336  0.25435712949497  0.35542571313148136  1.0000
  C   C16       1.0  0.3475813657235563  0.7456404933879454  0.6445745898470535  1.0000
  C   C17       1.0  0.471982529599039  0.14032520643151966  0.2897334499787334  1.0000
  C   C18       1.0  0.5280277658308207  0.859677735161831  0.7102687520252503  1.0000
  C   C19       1.0  0.30150233081649  0.16930375047543578  0.25389557061406265  1.0000
  C   C20       1.0  0.6985049203066611  0.8307013012415964  0.7461073941072769  1.0000
  C   C21       1.0  0.09943223381463893  0.0655364523534487  0.18306787253223433  1.0000
  C   C22       1.0  0.90056513030806  0.9344653504129495  0.81693448256555  1.0000
  C   C23       1.0  0.04976164921156112  0.9191761355502661  0.1318821463728099  1.0000
  C   C24       1.0  0.9502328815558486  0.0808203206572529  0.8681252160841738  1.0000
  C   C25       1.0  0.8538135676650784  0.8325002273202314  0.06342773774416338  1.0000
  C   C26       1.0  0.14617684856990115  0.16749620638157836  0.9365789608634217  1.0000
  C   C27       1.0  0.7122906526662692  0.8940671837513959  0.05015505122911178  1.0000
  C   C28       1.0  0.28770175284478944  0.10593033161651279  0.9498480909194171  1.0000
  C   C29       1.0  0.7721346061773317  0.0410028792527299  0.10344968081999889  1.0000
  C   C30       1.0  0.22786449085209895  0.9589968115968119  0.8965484240768832  1.0000
  C   C31       1.0  0.8396269056207829  0.22495433689669395  0.398162279445053  1.0000
  C   C32       1.0  0.16037029229882194  0.7750442808498405  0.6018344826102648  1.0000
  C   C33       1.0  0.79684738113383  0.381153553163969  0.0691052823214733  1.0000
  C   C34       1.0  0.20313979487073658  0.6188524487712641  0.9308971178115187  1.0000
  C   C35       1.0  0.6444796551738962  0.4438803167426214  0.03376639339416702  1.0000
  C   C36       1.0  0.3555092685977074  0.5561182517109556  0.9662314906126711  1.0000
  C   C37       1.0  0.5975211070771425  0.5288696756782088  0.12133129941349814  1.0000
  C   C38       1.0  0.402466972782662  0.47112995087456244  0.8786674848686289  1.0000
  C   C39       1.0  0.5461293492662946  0.4155914930401534  0.9119456542107116  1.0000
  C   C40       1.0  0.45385023013157877  0.5844048934910687  0.08805192518088488  1.0000
  N   N1        1.0  0.26830758551714234  0.5438180812742812  0.32131097860505525  1.0000
  N   N2        1.0  0.7316898837995255  0.4561837314823834  0.6786856606420033  1.0000
  N   N3        1.0  0.312361760736863  0.3050142239945473  0.28440998180235516  1.0000
  N   N4        1.0  0.6876293936524649  0.6949886182808952  0.7155858560373645  1.0000
  N   N5        1.0  0.960603091445911  0.12467831208865479  0.16691871922075316  1.0000
  N   N6        1.0  0.0393935489866735  0.8753245601943928  0.8330780037514957  1.0000
  O   O1        1.0  0.8485355381931541  0.39084748262661145  0.18202174189909937  1.0000
  O   O2        1.0  0.15146102726827593  0.6091607055125222  0.8179785131988169  1.0000
  O   O3        1.0  0.8598979180451352  0.32383627074054283  0.9934776169524115  1.0000
  O   O4        1.0  0.14009307103938812  0.6761665558358984  0.006527202938443098  1.0000
  O   O5        1.0  0.0006580728406646761  0.3241385710727015  0.4131724623140585  1.0000
  O   O6        1.0  0.9993402851361354  0.6758515418823448  0.5868219282570949  1.0000
  O   O7        1.0  0.8203821180210511  0.10883302271247428  0.4157244564944024  1.0000
  O   O8        1.0  0.17962217879426134  0.891168824699342  0.5842749222685271  1.0000
