data_image0
_chemical_formula_structural       La2NiH22C26N6O20
_chemical_formula_sum              "La2 Ni1 H22 C26 N6 O20"
_cell_length_a       6.926621167697462
_cell_length_b       9.177694469677457
_cell_length_c       13.928234477523134
_cell_angle_alpha    86.76639813002477
_cell_angle_beta     84.84064730941489
_cell_angle_gamma    75.71233603066712

_space_group_name_H-M_alt    "P 1"
_space_group_IT_number       1

loop_
  _space_group_symop_operation_xyz
  'x, y, z'

loop_
  _atom_site_type_symbol
  _atom_site_label
  _atom_site_symmetry_multiplicity
  _atom_site_fract_x
  _atom_site_fract_y
  _atom_site_fract_z
  _atom_site_occupancy
  La  La1       1.0  0.4939300454730216  0.7165075063257833  0.4063980939583515  1.0000
  La  La2       1.0  0.5060535084665007  0.2835021402671458  0.5936048303074768  1.0000
  Ni  Ni1       1.0  0.5000058650291949  0.4999935648347035  0.9999934913112793  1.0000
  H   H1        1.0  0.1657991311860769  0.43459931017035563  0.9901498426418909  1.0000
  H   H2        1.0  0.8342044359322359  0.5653946389136806  0.009848769785278901  1.0000
  H   H3        1.0  0.2881524297601246  0.2543894082947348  0.9789343409567406  1.0000
  H   H4        1.0  0.7118587390213094  0.7456035320658075  0.021064002173638078  1.0000
  H   H5        1.0  0.7688772061118386  0.1534654987737909  0.0588899640122236  1.0000
  H   H6        1.0  0.23113023280193087  0.8465336641871418  0.941122565883013  1.0000
  H   H7        1.0  0.7342514352004557  0.09077433196164719  0.24183698418181618  1.0000
  H   H8        1.0  0.26575389568552066  0.9092392763640404  0.7581698251208732  1.0000
  H   H9        1.0  0.9801145765911344  0.5373486749047345  0.13773535854105026  1.0000
  H   H10       1.0  0.019884321127079767  0.46264623562802143  0.8622612460376755  1.0000
  H   H11       1.0  0.07952308969058922  0.25897442379140057  0.39477331831550083  1.0000
  H   H12       1.0  0.9204773844478923  0.7410284270488745  0.6052227888554143  1.0000
  H   H13       1.0  0.3407853804672386  0.0795324515762701  0.12139938069330468  1.0000
  H   H14       1.0  0.6592160722570881  0.9204592335886446  0.8786001627545088  1.0000
  H   H15       1.0  0.746222274908142  0.9166636685070275  0.5085305009829781  1.0000
  H   H16       1.0  0.2537672401427572  0.08334142511203879  0.49146954294269546  1.0000
  H   H17       1.0  0.7079530707928328  0.9733701938705794  0.40502072735864647  1.0000
  H   H18       1.0  0.29204351858444977  0.026627098268811298  0.5949794377929363  1.0000
  H   H19       1.0  0.12117249906906118  0.6147337954746918  0.49782424218133753  1.0000
  H   H20       1.0  0.8788291369652301  0.385265713309046  0.5021727148043665  1.0000
  H   H21       1.0  0.015227989793849893  0.7640498870078004  0.4384904724757418  1.0000
  H   H22       1.0  0.9847680778366413  0.23595305033642686  0.561509409038244  1.0000
  C   C1        1.0  0.6956520208369811  0.2296835584768644  0.11499163821965644  1.0000
  C   C2        1.0  0.30435387488664395  0.7703118731322504  0.8850139771296736  1.0000
  C   C3        1.0  0.5864889813357337  0.31986936453019155  0.2607182418813067  1.0000
  C   C4        1.0  0.4135195829825307  0.6801226234260582  0.7392852915841317  1.0000
  C   C5        1.0  0.5290454044682774  0.43204965767884573  0.19053080942959608  1.0000
  C   C6        1.0  0.4709646990026997  0.5679421663139195  0.8094683578363158  1.0000
  C   C7        1.0  0.4106863554706381  0.5897195425278242  0.18458905300621348  1.0000
  C   C8        1.0  0.5893171637431324  0.4102787714297875  0.8154057337193591  1.0000
  C   C9        1.0  0.5512675007580727  0.3107269603616912  0.3671472137022461  1.0000
  C   C10       1.0  0.4487323380450903  0.6892817539684444  0.6328536305840371  1.0000
  C   C11       1.0  0.8759448195458859  0.535195327775277  0.3248191014568035  1.0000
  C   C12       1.0  0.12405920518774137  0.4647973721610868  0.6751766861567958  1.0000
  C   C13       1.0  0.1579321513707939  0.30928994544319016  0.11482524505328226  1.0000
  C   C14       1.0  0.8420644380064818  0.6907073466962003  0.8851749200983007  1.0000
  C   C15       1.0  0.046273656947796775  0.42828397934179213  0.17100554487659278  1.0000
  C   C16       1.0  0.9537186557369571  0.571713149832952  0.828992656614673  1.0000
  C   C17       1.0  0.0161245382140223  0.4101294312548376  0.2709579922989746  1.0000
  C   C18       1.0  0.9838756398022213  0.5898700855745034  0.729039744634143  1.0000
  C   C19       1.0  0.10420956858538939  0.2742848537604985  0.3172184939799223  1.0000
  C   C20       1.0  0.895783303889971  0.7257190058032705  0.6827778824877836  1.0000
  C   C21       1.0  0.24773251021929352  0.17341320079048472  0.16192369188561165  1.0000
  C   C22       1.0  0.7522683720774384  0.8265842231299915  0.8380777196758726  1.0000
  C   C23       1.0  0.22365207766495135  0.1574822733211505  0.2624120833165405  1.0000
  C   C24       1.0  0.7763451194074805  0.8425173843336895  0.7375900825130869  1.0000
  C   C25       1.0  0.3342983246878078  0.0173108250222285  0.3121329474533211  1.0000
  C   C26       1.0  0.6656951060256446  0.9826912222848633  0.6878735588965695  1.0000
  N   N1        1.0  0.1729755082742983  0.32694860081409166  0.014789970220796497  1.0000
  N   N2        1.0  0.8270305497186571  0.6730465189592677  0.9852084726242862  1.0000
  N   N3        1.0  0.5979720740501338  0.37277437405380454  0.10138677939783483  1.0000
  N   N4        1.0  0.4020376204863254  0.6272186055359157  0.8986130609303727  1.0000
  N   N5        1.0  0.6907065186447383  0.1956660494901642  0.21060101477949894  1.0000
  N   N6        1.0  0.3093044724166847  0.8043315052125595  0.7893992406526775  1.0000
  O   O1        1.0  0.38558924197892014  0.6385523620854415  0.09493244633886627  1.0000
  O   O2        1.0  0.6144101351714897  0.3614537060770714  0.9050599420155547  1.0000
  O   O3        1.0  0.34105052284840537  0.668735555411992  0.2550966106006953  1.0000
  O   O4        1.0  0.658956455965118  0.3312695040270199  0.7448955084569346  1.0000
  O   O5        1.0  0.5917003670040231  0.18133517068160643  0.40866122265255445  1.0000
  O   O6        1.0  0.40829806246189554  0.818673458143401  0.59133824982986  1.0000
  O   O7        1.0  0.4822150840763798  0.4312152395407409  0.4130316545360983  1.0000
  O   O8        1.0  0.5177811181832724  0.5687956149730341  0.5869677922670604  1.0000
  O   O9        1.0  0.8500825776358453  0.5289773562378884  0.4170928860239797  1.0000
  O   O10       1.0  0.14991794518343224  0.4710254010516551  0.5829010693956602  1.0000
  O   O11       1.0  0.7716760737928753  0.6430661068805961  0.2758253029579548  1.0000
  O   O12       1.0  0.22831431844483072  0.3569241128492635  0.7241712000017271  1.0000
  O   O13       1.0  0.2644772263713764  0.98088283905048  0.3967120942204188  1.0000
  O   O14       1.0  0.7354974772846108  0.0191188762793502  0.6032945099398359  1.0000
  O   O15       1.0  0.4935880112836203  0.937198811451175  0.27193475629804437  1.0000
  O   O16       1.0  0.5064173025991752  0.06281055673523642  0.72807874770794  1.0000
  O   O17       1.0  0.745490811778268  0.8776845402506979  0.4425758074226848  1.0000
  O   O18       1.0  0.254503517938879  0.12231503994461691  0.5574257665504803  1.0000
  O   O19       1.0  0.1448578494878845  0.703049010047913  0.45784467541677987  1.0000
  O   O20       1.0  0.8551394124922782  0.29695052287262774  0.5421546214111571  1.0000
