data_image0
_chemical_formula_structural       Cd2H48C76N4O10
_chemical_formula_sum              "Cd2 H48 C76 N4 O10"
_cell_length_a       10.700365763759711
_cell_length_b       10.755339667556353
_cell_length_c       13.378321454838975
_cell_angle_alpha    93.5859132184217
_cell_angle_beta     109.31119603872784
_cell_angle_gamma    97.38564844449263

_space_group_name_H-M_alt    "P 1"
_space_group_IT_number       1

loop_
  _space_group_symop_operation_xyz
  'x, y, z'

loop_
  _atom_site_type_symbol
  _atom_site_label
  _atom_site_symmetry_multiplicity
  _atom_site_fract_x
  _atom_site_fract_y
  _atom_site_fract_z
  _atom_site_occupancy
  Cd  Cd1       1.0  0.6930244532143348  0.4356635737254633  0.576981817035957  1.0000
  Cd  Cd2       1.0  0.30697514846717405  0.5643343847774812  0.4230176432774897  1.0000
  H   H1        1.0  0.5928688507552451  0.6458175780141244  0.40428930511640704  1.0000
  H   H2        1.0  0.40713221752874773  0.35418324384648503  0.5957129047163363  1.0000
  H   H3        1.0  0.6197647876411025  0.7151844146662679  0.2373975746127995  1.0000
  H   H4        1.0  0.3802354235984353  0.284817331819923  0.762603709913641  1.0000
  H   H5        1.0  0.8843102896272726  0.22307178633679567  0.6495215540348979  1.0000
  H   H6        1.0  0.11568989848773009  0.7769299458197876  0.3504782288235191  1.0000
  H   H7        1.0  0.033321413563236  0.10194923387034997  0.5869085325203045  1.0000
  H   H8        1.0  0.9666799363752292  0.8980534676522819  0.4130930877509158  1.0000
  H   H9        1.0  0.0864709146304108  0.3297972905447323  0.2967619391627494  1.0000
  H   H10       1.0  0.9135309528867098  0.6702025708662872  0.7032374418062375  1.0000
  H   H11       1.0  0.9786202771519399  0.49703777720998926  0.20541833254821276  1.0000
  H   H12       1.0  0.021378467485114096  0.5029611059185369  0.7945802024589311  1.0000
  H   H13       1.0  0.7745519708586032  0.4610911908970507  0.06154741998123105  1.0000
  H   H14       1.0  0.22544852255416006  0.5389058644747137  0.938455218140561  1.0000
  H   H15       1.0  0.7983957911477262  0.5409627782420827  0.8975184769316017  1.0000
  H   H16       1.0  0.20160467914050176  0.45903426280008125  0.1024826595221597  1.0000
  H   H17       1.0  0.8236447357948438  0.7704819477410466  0.8823669410753539  1.0000
  H   H18       1.0  0.17635441449928627  0.22951317335686375  0.11763152649535158  1.0000
  H   H19       1.0  0.8318338355583921  0.9223637035353672  0.034499143822273544  1.0000
  H   H20       1.0  0.168166600043044  0.07763331601239538  0.9654997401294523  1.0000
  H   H21       1.0  0.8097131168416354  0.8433135891649003  0.1987479963438616  1.0000
  H   H22       1.0  0.1902836436143005  0.15668527071755986  0.8012500284462192  1.0000
  H   H23       1.0  0.2611026338504274  0.1492978488742622  0.5725411389521611  1.0000
  H   H24       1.0  0.7388981180922798  0.850701071829924  0.42745940794007703  1.0000
  H   H25       1.0  0.4142869668422407  0.03819185512380589  0.510765001679033  1.0000
  H   H26       1.0  0.585715170767088  0.9618098787844357  0.48923303889440456  1.0000
  H   H27       1.0  0.9790994230170611  0.10591876905566272  0.2520279170008449  1.0000
  H   H28       1.0  0.02089964952353537  0.8940820223940872  0.7479730317808233  1.0000
  H   H29       1.0  0.9233792026920398  0.3245196960743185  0.9415653087555496  1.0000
  H   H30       1.0  0.07662281143344532  0.6754811087501124  0.0584341528496779  1.0000
  H   H31       1.0  0.9172172379318867  0.23999038221004548  0.11121243477162317  1.0000
  H   H32       1.0  0.08278450610138324  0.7600085501171704  0.8887883672291467  1.0000
  H   H33       1.0  0.5105099847537033  0.057457392632549883  0.9469537237727862  1.0000
  H   H34       1.0  0.48949221066695253  0.9425443770996933  0.053048070970717634  1.0000
  H   H35       1.0  0.5201120245017563  0.1385438596416506  0.7788019016151041  1.0000
  H   H36       1.0  0.4798863491650209  0.8614588070118926  0.22119895333051423  1.0000
  H   H37       1.0  0.5705833835624432  0.2969515272827792  0.06875757713246596  1.0000
  H   H38       1.0  0.4294131062825174  0.7030520308789007  0.9312398448962823  1.0000
  H   H39       1.0  0.4467399260718778  0.3985354580973419  0.16951050998788017  1.0000
  H   H40       1.0  0.5532613119450077  0.6014663215062797  0.8304932821491349  1.0000
  H   H41       1.0  0.576268236883486  0.1628281162286811  0.41898974867059746  1.0000
  H   H42       1.0  0.42373249193469326  0.8371707901458972  0.58100929655361  1.0000
  H   H43       1.0  0.6970981183269489  0.05479050357970289  0.31629163676404193  1.0000
  H   H44       1.0  0.30290300406728937  0.9452112043759013  0.6837046470328403  1.0000
  H   H45       1.0  0.13056772612355164  0.9885205256795542  0.18998269858656155  1.0000
  H   H46       1.0  0.8694303312019542  0.011480239817558397  0.8100164934185515  1.0000
  H   H47       1.0  0.34977663090111116  0.9565136033407666  0.31890247689384665  1.0000
  H   H48       1.0  0.6502236922599992  0.043489065064420594  0.6810966357667994  1.0000
  C   C1        1.0  0.6627338436597867  0.6078118232699052  0.3717095811283714  1.0000
  C   C2        1.0  0.3372652173185458  0.39218896101504436  0.6282906168192852  1.0000
  C   C3        1.0  0.6803953393382045  0.6478097143830794  0.27888098413033185  1.0000
  C   C4        1.0  0.3196044320762113  0.3521892018628775  0.7211200584873865  1.0000
  C   C5        1.0  0.7716493565057689  0.6006447699623293  0.23891672462631425  1.0000
  C   C6        1.0  0.22834857733589334  0.39935506645097263  0.7610838884105817  1.0000
  C   C7        1.0  0.8427267419112141  0.5078053099323013  0.29470274104492217  1.0000
  C   C8        1.0  0.1572751371681704  0.4921945586435184  0.7052973907580693  1.0000
  C   C9        1.0  0.8147902613122825  0.4696044903401314  0.3861951216586093  1.0000
  C   C10       1.0  0.18520963358596992  0.5303953549896291  0.6138044999273191  1.0000
  C   C11       1.0  0.879402793997855  0.3705939624516643  0.4409707716164135  1.0000
  C   C12       1.0  0.12059823959933172  0.6294068379145442  0.5590291857142944  1.0000
  C   C13       1.0  0.9081470819185211  0.24493306643736185  0.578846742525144  1.0000
  C   C14       1.0  0.09185395167867232  0.7550677339288469  0.4211532148055639  1.0000
  C   C15       1.0  0.9940300215745665  0.17943041293896295  0.5444544852902311  1.0000
  C   C16       1.0  0.0059721622838254  0.8205713496284799  0.455546558619261  1.0000
  C   C17       1.0  0.024489461113987004  0.21007754188250516  0.4547616560750641  1.0000
  C   C18       1.0  0.9755117190915785  0.7899242018971078  0.5452383818918847  1.0000
  C   C19       1.0  0.9697572575786281  0.31273948605934265  0.4027746048064245  1.0000
  C   C20       1.0  0.030242795490266906  0.6872613098486368  0.5972258482497637  1.0000
  C   C21       1.0  0.0058563603766046066  0.3635869862178964  0.31814339177996226  1.0000
  C   C22       1.0  0.994145518702773  0.6364128823579306  0.6818567400230364  1.0000
  C   C23       1.0  0.9446612072737042  0.4566769182863337  0.2662397873290202  1.0000
  C   C24       1.0  0.05533982632348258  0.5433238820798677  0.7337601700016877  1.0000
  C   C25       1.0  0.790789901888651  0.646385727723178  0.14214709905616724  1.0000
  C   C26       1.0  0.2092057429928786  0.3536121914524415  0.8578520916571648  1.0000
  C   C27       1.0  0.7890403210381507  0.5623668070613661  0.056538610880089386  1.0000
  C   C28       1.0  0.2109574546328687  0.4376320787737241  0.9434611706865468  1.0000
  C   C29       1.0  0.8019897201818438  0.6069417835852275  0.96417217045758  1.0000
  C   C30       1.0  0.19800976957808572  0.39305525299870675  0.0358294617216615  1.0000
  C   C31       1.0  0.8170763901641463  0.7365411205370548  0.9558928425167323  1.0000
  C   C32       1.0  0.1829213623823449  0.26345775096843477  0.04410543738188009  1.0000
  C   C33       1.0  0.8202022315168025  0.82116687071219  0.04055708144172597  1.0000
  C   C34       1.0  0.17979411223854672  0.17882917325964337  0.9594422031076562  1.0000
  C   C35       1.0  0.806567784008962  0.7765429904809407  0.13275565719010968  1.0000
  C   C36       1.0  0.1934258535669073  0.22345489111901878  0.8672415216381353  1.0000
  C   C37       1.0  0.11161697138950191  0.13851273895431854  0.4163098581247269  1.0000
  C   C38       1.0  0.8883840737699559  0.8614880685766904  0.5836908500399929  1.0000
  C   C39       1.0  0.23255911603150284  0.1142701240511457  0.48867861336292157  1.0000
  C   C40       1.0  0.7674419060034268  0.8857306691502554  0.5113205931337745  1.0000
  C   C41       1.0  0.3184126338553241  0.050935441672919496  0.4535329351952555  1.0000
  C   C42       1.0  0.6815875542596714  0.9490662904836635  0.5464668476631616  1.0000
  C   C43       1.0  0.07540871829769462  0.09203926973845705  0.3082231415990506  1.0000
  C   C44       1.0  0.924591188162829  0.9079605827561036  0.6917772308208966  1.0000
  C   C45       1.0  0.720326986148784  0.30071204531513007  0.7535298571895764  1.0000
  C   C46       1.0  0.27967207482954853  0.6992887389698124  0.2464703407580799  1.0000
  C   C47       1.0  0.7209893465278797  0.23918822588572644  0.8511151131089605  1.0000
  C   C48       1.0  0.2790097260127169  0.7608125655640162  0.14888583567270788  1.0000
  C   C49       1.0  0.8343278795085923  0.26468225574021176  0.9436932789751894  1.0000
  C   C50       1.0  0.16567513826972663  0.7353185678720493  0.05630718857258188  1.0000
  C   C51       1.0  0.8313090067356725  0.2175439055897925  0.0377271095640168  1.0000
  C   C52       1.0  0.1686902008510316  0.7824578221085614  0.9622731690198806  1.0000
  C   C53       1.0  0.7136788043894455  0.14536816494533158  0.03840198535287691  1.0000
  C   C54       1.0  0.28632266903286313  0.8546354656611043  0.9615982138865604  1.0000
  C   C55       1.0  0.6017003833843476  0.1139637822473816  0.9456331768535834  1.0000
  C   C56       1.0  0.39829799028242957  0.8860388844061542  0.054367678092034966  1.0000
  C   C57       1.0  0.6063781397975987  0.16077195103571276  0.8521328826982142  1.0000
  C   C58       1.0  0.39362236465868267  0.8392316822772938  0.14786856310070817  1.0000
  C   C59       1.0  0.6391315938602062  0.16770319833838698  0.18596456696436547  1.0000
  C   C60       1.0  0.3608678838187132  0.8323004018571891  0.8140343712239898  1.0000
  C   C61       1.0  0.5703865975032228  0.2655103203721083  0.14444433899391373  1.0000
  C   C62       1.0  0.42961371409562343  0.734492340868286  0.8555540228327203  1.0000
  C   C63       1.0  0.5005292074588824  0.32238354351738957  0.2009733205401147  1.0000
  C   C64       1.0  0.49947115038902723  0.6776191463822058  0.7990280446225668  1.0000
  C   C65       1.0  0.5006491808204885  0.28547344352340076  0.299381694766133  1.0000
  C   C66       1.0  0.49935239347988164  0.7145245310608033  0.7006175249303651  1.0000
  C   C67       1.0  0.5728133905149377  0.1892195142578359  0.34093066475892186  1.0000
  C   C68       1.0  0.4271863693372069  0.8107793948233136  0.6590696270247776  1.0000
  C   C69       1.0  0.6404102472479779  0.12928547541483937  0.2843630619114634  1.0000
  C   C70       1.0  0.3595894547928396  0.8707133978423086  0.7156334757021696  1.0000
  C   C71       1.0  0.433024983662996  0.354000733270574  0.3622060242465324  1.0000
  C   C72       1.0  0.5669761739367871  0.6459944254030034  0.63779445520926  1.0000
  C   C73       1.0  0.1602798591992922  0.0259453806415095  0.2736190449052387  1.0000
  C   C74       1.0  0.8397181981262138  0.9740553848556032  0.7263801470998743  1.0000
  C   C75       1.0  0.2829634193665882  0.007030155756318398  0.3459330160431335  1.0000
  C   C76       1.0  0.7170367571861433  0.9929715692354648  0.6540660159812716  1.0000
  N   N1        1.0  0.728719765461328  0.5218799573850815  0.42456267858010927  1.0000
  N   N2        1.0  0.2712809749191151  0.4781189561543042  0.5754371174781099  1.0000
  N   N3        1.0  0.8502521660107404  0.33571867289774093  0.5273492710378065  1.0000
  N   N4        1.0  0.1497500178476514  0.6642830896697018  0.4726517728716857  1.0000
  O   O1        1.0  0.6163551320279764  0.2731174249289693  0.6696509506970044  1.0000
  O   O2        1.0  0.38364450434033154  0.7268805550683763  0.33035076211847775  1.0000
  O   O3        1.0  0.822166331033266  0.3797701090756931  0.7591203053658262  1.0000
  O   O4        1.0  0.17783187290061162  0.6202315998348311  0.2408789672755276  1.0000
  O   O5        1.0  0.710145297222944  0.10463461827839639  0.13482538771142322  1.0000
  O   O6        1.0  0.2898540338476039  0.8953680385037609  0.8651734698406912  1.0000
  O   O7        1.0  0.47692291667780035  0.35748411085153003  0.4632505384751937  1.0000
  O   O8        1.0  0.5230784884084159  0.6425063352132268  0.5367490420739073  1.0000
  O   O9        1.0  0.33539005160358226  0.4088613171376422  0.3116035344619661  1.0000
  O   O10       1.0  0.6646090098934961  0.5911328963708654  0.6883986066425649  1.0000
