data_image0
_chemical_formula_structural       Al2H42C48N12O12
_chemical_formula_sum              "Al2 H42 C48 N12 O12"
_cell_length_a       3.919061255510215
_cell_length_b       28.670622090981666
_cell_length_c       28.670711622064196
_cell_angle_alpha    120.00028946538936
_cell_angle_beta     90.00171626903499
_cell_angle_gamma    90.00143312870844

_space_group_name_H-M_alt    "P 1"
_space_group_IT_number       1

loop_
  _space_group_symop_operation_xyz
  'x, y, z'

loop_
  _atom_site_type_symbol
  _atom_site_label
  _atom_site_symmetry_multiplicity
  _atom_site_fract_x
  _atom_site_fract_y
  _atom_site_fract_z
  _atom_site_occupancy
  Al  Al1       1.0  0.006126622532050902  0.5000005868890866  0.49999592268281395  1.0000
  Al  Al2       1.0  0.0061704903529716006  0.16666877543423197  0.8333319310155575  1.0000
  H   H1        1.0  0.20876545430439114  0.2436871483731123  0.6551018965719422  1.0000
  H   H2        1.0  0.7661747927603102  0.36852130925554855  0.788951385768371  1.0000
  H   H3        1.0  0.7661751143511639  0.29815723562533947  0.5443920584747843  1.0000
  H   H4        1.0  0.20885831907622082  0.4229971707077168  0.6782377897058041  1.0000
  H   H5        1.0  0.5122919300224424  0.3862424887503763  0.7208744261267555  1.0000
  H   H6        1.0  0.5122756618463171  0.2804395726618552  0.6124728148451624  1.0000
  H   H7        1.0  0.20879906876422183  0.9114221970863453  0.7563251459615048  1.0000
  H   H8        1.0  0.7661239514603935  0.9204274006369814  0.6314865201498208  1.0000
  H   H9        1.0  0.7661437236177663  0.7462386397728195  0.7018571546766809  1.0000
  H   H10       1.0  0.208770540844462  0.7552487976796626  0.5770183812627111  1.0000
  H   H11       1.0  0.512209013850999  0.8346304618223002  0.6137729873319274  1.0000
  H   H12       1.0  0.5122482782145497  0.8320375774883287  0.7195773967875922  1.0000
  H   H13       1.0  0.20879767794930615  0.3448932860099916  0.08857422814121924  1.0000
  H   H14       1.0  0.7661296926859578  0.21104895862408307  0.07956565199555142  1.0000
  H   H15       1.0  0.7661300127103348  0.45560824774344866  0.2537555636897721  1.0000
  H   H16       1.0  0.20874354884755061  0.3217645523351536  0.24474976698282092  1.0000
  H   H17       1.0  0.5121966085526779  0.2791290323930795  0.16536349703297762  1.0000
  H   H18       1.0  0.5121863699919658  0.3875250091847704  0.16795563954182316  1.0000
  H   H19       1.0  0.8909700083917258  0.29146766625117937  0.85426316361675  1.0000
  H   H20       1.0  0.9933259620494612  0.3483042936749712  0.8517124854302196  1.0000
  H   H21       1.0  0.11733427070110743  0.16096663768278316  0.7145667391994763  1.0000
  H   H22       1.0  0.007515157412697701  0.17208826652044001  0.6630650478588009  1.0000
  H   H23       1.0  0.1173477298598371  0.5056998656093012  0.6187558926688083  1.0000
  H   H24       1.0  0.0075504758456546  0.4945851189759836  0.670261593983426  1.0000
  H   H25       1.0  0.8909115924983484  0.3752032900740402  0.4790695303423007  1.0000
  H   H26       1.0  0.9933062032498655  0.3183696394613165  0.4816264567075877  1.0000
  H   H27       1.0  0.8909333878071309  0.06279535184033579  0.7085334992837672  1.0000
  H   H28       1.0  0.9933111410647087  0.003406240745377371  0.6516995527676102  1.0000
  H   H29       1.0  0.1173838499590687  0.05360717453939401  0.8390329339493904  1.0000
  H   H30       1.0  0.007556687850105002  0.9909874872363529  0.8279190867806393  1.0000
  H   H31       1.0  0.11734152984752912  0.6130636329084423  0.4943000432557484  1.0000
  H   H32       1.0  0.007508368078028102  0.6756863532909209  0.5054199396489879  1.0000
  H   H33       1.0  0.8909456611902586  0.6038732024463441  0.6247988063676716  1.0000
  H   H34       1.0  0.993341436489175  0.6632612918722386  0.6816374190681601  1.0000
  H   H35       1.0  0.8909707717973349  0.1457392123349805  0.9372017160221233  1.0000
  H   H36       1.0  0.9933131536114317  0.14829035204159166  0.9965907093024953  1.0000
  H   H37       1.0  0.11737323348469181  0.28542727263212675  0.9463885424896503  1.0000
  H   H38       1.0  0.007543731661634503  0.3369280323292401  0.009012103770643877  1.0000
  H   H39       1.0  0.11734193801393643  0.3812374328729504  0.38693309709397994  1.0000
  H   H40       1.0  0.007515906241167202  0.32973098691692826  0.32430975316063376  1.0000
  H   H41       1.0  0.8909261377285421  0.5209285798814491  0.3961229808947379  1.0000
  H   H42       1.0  0.9932960446967982  0.5183728764202797  0.336735917196421  1.0000
  C   C1        1.0  0.5053611034376787  0.4617042238584189  0.41548513863492076  1.0000
  C   C2        1.0  0.5053787542264062  0.45378700564532437  0.5382906058909  1.0000
  C   C3        1.0  0.505386439089861  0.5845070898900246  0.5462121656623894  1.0000
  C   C4        1.0  0.5053972664762014  0.21288207487715027  0.7950388179463559  1.0000
  C   C5        1.0  0.5053946846245908  0.0821589845015253  0.7871174740138828  1.0000
  C   C6        1.0  0.5054200197461611  0.20496202685553291  0.9178394416743956  1.0000
  C   C7        1.0  0.5028534433095971  0.24544947947869378  0.7689479111555428  1.0000
  C   C8        1.0  0.33603841432420023  0.22665898477037402  0.7179555115497251  1.0000
  C   C9        1.0  0.34367819075552586  0.258117972600253  0.6931565547818507  1.0000
  C   C10       1.0  0.4932750149811796  0.30932734799058886  0.718655002008397  1.0000
  C   C11       1.0  0.6437826184482703  0.32903491963791237  0.7693461681550176  1.0000
  C   C12       1.0  0.6639683419198125  0.297377550932417  0.7939314468536339  1.0000
  C   C13       1.0  0.49545188450148464  0.34272747814875254  0.6934753555145932  1.0000
  C   C14       1.0  0.4954673438620035  0.32395800168909256  0.6398744902650222  1.0000
  C   C15       1.0  0.6437892827601177  0.3376443633415675  0.5639995660953616  1.0000
  C   C16       1.0  0.49329368064292833  0.3573513270000247  0.614690454360101  1.0000
  C   C17       1.0  0.343755092806191  0.4085619964767274  0.6401804575941057  1.0000
  C   C18       1.0  0.33606211445559353  0.44001369692152537  0.6153754179920554  1.0000
  C   C19       1.0  0.5028371758211989  0.42121883085115297  0.5643815467540706  1.0000
  C   C20       1.0  0.6639882291483448  0.3692958572959951  0.5394072141678237  1.0000
  C   C21       1.0  0.5028418338910898  0.02349557787704266  0.7545484600897155  1.0000
  C   C22       1.0  0.336058060276642  0.9913011688278032  0.7733447028381805  1.0000
  C   C23       1.0  0.34370952407523003  0.9350433850990781  0.7418929270270239  1.0000
  C   C24       1.0  0.49326296975515055  0.9093272058039118  0.6906846704145551  1.0000
  C   C25       1.0  0.6437665462109267  0.9403102621055053  0.6709709247841005  1.0000
  C   C26       1.0  0.6639559538774479  0.9965516199169286  0.7026269858590484  1.0000
  C   C27       1.0  0.49543055545223075  0.8507487209790697  0.6572871528962382  1.0000
  C   C28       1.0  0.49542940466739793  0.8159191160758894  0.6760589934070894  1.0000
  C   C29       1.0  0.6437639483979113  0.7263559952941846  0.6623692832628834  1.0000
  C   C30       1.0  0.49326431977299023  0.7573398782724609  0.642658708139635  1.0000
  C   C31       1.0  0.34367214783272004  0.731625701205445  0.5914503678332963  1.0000
  C   C32       1.0  0.33603933860382545  0.6753694473449272  0.5599920632925546  1.0000
  C   C33       1.0  0.5028156138862842  0.6431678598634887  0.5787837773935465  1.0000
  C   C34       1.0  0.6639592115408917  0.6701150554121468  0.6307096224092064  1.0000
  C   C35       1.0  0.5028771083762535  0.23105270058781008  0.9764976569739476  1.0000
  C   C36       1.0  0.3360688931621852  0.282041559305874  0.008695799663541873  1.0000
  C   C37       1.0  0.3437015106870618  0.30684055780977093  0.06495278155890823  1.0000
  C   C38       1.0  0.4932734950454646  0.2813437865434025  0.09066677622979576  1.0000
  C   C39       1.0  0.6437837083032677  0.23065234836557374  0.059683821506112615  1.0000
  C   C40       1.0  0.664002169605361  0.2060701385717678  0.0034418591918807897  1.0000
  C   C41       1.0  0.49538721938907326  0.30652531846776304  0.14924429983435777  1.0000
  C   C42       1.0  0.49539842759249814  0.3601236734378829  0.18407823662232659  1.0000
  C   C43       1.0  0.6437388170118866  0.43600440246208894  0.27363808781501586  1.0000
  C   C44       1.0  0.49324327272994856  0.3853092027194478  0.24265452085659694  1.0000
  C   C45       1.0  0.34365688213841145  0.35981902186655645  0.2683722145157006  1.0000
  C   C46       1.0  0.3360307432724809  0.3846183276385915  0.3246266807790974  1.0000
  C   C47       1.0  0.5028109586127413  0.43561457781412116  0.3568279497921268  1.0000
  C   C48       1.0  0.6639433015170654  0.46059163301053013  0.3298774284676682  1.0000
  N   N1        1.0  0.8202426750966866  0.31889959210164415  0.8434841515456881  1.0000
  N   N2        1.0  0.18378273674726137  0.17666692070105933  0.6909348988903474  1.0000
  N   N3        1.0  0.1838086442291953  0.49000416217882753  0.6423911363946218  1.0000
  N   N4        1.0  0.8202096488314227  0.3477706835365879  0.48985024406922417  1.0000
  N   N5        1.0  0.8202161243629791  0.024582501136990148  0.6811013974480744  1.0000
  N   N6        1.0  0.18382815044807901  0.014276877153626813  0.8233378428198961  1.0000
  N   N7        1.0  0.18377343838344026  0.6523958524010921  0.5099991022810145  1.0000
  N   N8        1.0  0.8202234408226019  0.6420822188586895  0.6522322754764502  1.0000
  N   N9        1.0  0.8202599703358048  0.1565192115028253  0.9754114503020689  1.0000
  N   N10       1.0  0.18383177945770512  0.3090616391658613  0.9857230961563558  1.0000
  N   N11       1.0  0.1837774620993429  0.35760108340763  0.34760223100477117  1.0000
  N   N12       1.0  0.8202000072371548  0.5101491621960434  0.3579129884731458  1.0000
  O   O1        1.0  0.739075997483859  0.557417977386102  0.5542038931675891  1.0000
  O   O2        1.0  0.7390507463187319  0.4967885182642249  0.44257935224767664  1.0000
  O   O3        1.0  0.739044988132875  0.4457953483602636  0.5032071503262898  1.0000
  O   O4        1.0  0.27420501533821817  0.560178471167383  0.5097121758798411  1.0000
  O   O5        1.0  0.2741826252334364  0.4902851524657165  0.5504567632116846  1.0000
  O   O6        1.0  0.27418736333330435  0.44953765318535926  0.43981773369089444  1.0000
  O   O7        1.0  0.7391050578125871  0.1698832981083385  0.8907480872807058  1.0000
  O   O8        1.0  0.7391006087179195  0.22087202715967186  0.8301170565921653  1.0000
  O   O9        1.0  0.7390670482694617  0.10924902042858523  0.7791255744800908  1.0000
  O   O10       1.0  0.2742483461243381  0.2171352473858903  0.8935085519426949  1.0000
  O   O11       1.0  0.27423834913739853  0.10649155624650325  0.8236176805291251  1.0000
  O   O12       1.0  0.2742097049833562  0.1763786649425398  0.7828632584844968  1.0000
