data_image0
_chemical_formula_structural       Zn2H24C28I2N2O8
_chemical_formula_sum              "Zn2 H24 C28 I2 N2 O8"
_cell_length_a       10.163384788836686
_cell_length_b       11.341240239237363
_cell_length_c       17.460333307340576
_cell_angle_alpha    84.82491400273479
_cell_angle_beta     71.13431617522419
_cell_angle_gamma    76.54502472501733

_space_group_name_H-M_alt    "P 1"
_space_group_IT_number       1

loop_
  _space_group_symop_operation_xyz
  'x, y, z'

loop_
  _atom_site_type_symbol
  _atom_site_label
  _atom_site_symmetry_multiplicity
  _atom_site_fract_x
  _atom_site_fract_y
  _atom_site_fract_z
  _atom_site_occupancy
  Zn  Zn1       1.0  0.6455724275403512  0.49981694473377986  0.47813329614123035  1.0000
  Zn  Zn2       1.0  0.3575982939788814  0.5091105532669858  0.5219399925621817  1.0000
  H   H1        1.0  0.3244173445064364  0.4994365777689963  0.28349801537316915  1.0000
  H   H2        1.0  0.6305624816108378  0.8904705953378951  0.48410170765558996  1.0000
  H   H3        1.0  0.7008039981524022  0.08933587102585958  0.4855499067964644  1.0000
  H   H4        1.0  0.307710713483573  0.9201142737746077  0.5168885395766409  1.0000
  H   H5        1.0  0.8754150410680027  0.5913962709996312  0.4292749911682279  1.0000
  H   H6        1.0  0.1312219210321147  0.4121317928755416  0.5718262455008941  1.0000
  H   H7        1.0  0.6852029300129345  0.7678290605033948  0.00517854402003346  1.0000
  H   H8        1.0  0.7455386040895321  0.7945954276143752  0.08537071243312506  1.0000
  H   H9        1.0  0.869944703019698  0.7580586807311459  0.9877168968488164  1.0000
  H   H10       1.0  0.8799935871639235  0.5777436862661673  0.0812098541047561  1.0000
  H   H11       1.0  0.8240864372430325  0.5492597730425999  0.0006599009133834888  1.0000
  H   H12       1.0  0.6559034498953838  0.5871857408707867  0.7068010245025463  1.0000
  H   H13       1.0  0.2150644378016509  0.3525699111044673  0.9511133030736335  1.0000
  H   H14       1.0  0.2719424371967848  0.41076898269109546  0.022974831981812775  1.0000
  H   H15       1.0  0.08726350000818431  0.41939797415800945  0.041052528193326096  1.0000
  H   H16       1.0  0.14236185206240753  0.6229242808689007  0.9946619783630198  1.0000
  H   H17       1.0  0.08933266535706968  0.5626829020718277  0.9229073064764323  1.0000
  H   H18       1.0  0.23168132744577016  0.5258043723599427  0.7899947706271818  1.0000
  H   H19       1.0  0.7491283849336058  0.5580104940297659  0.21506010460173292  1.0000
  H   H20       1.0  0.32120675909759916  0.6096633867235539  0.03030136893509191  1.0000
  H   H21       1.0  0.6472552923632833  0.5589181609286911  0.965481461325659  1.0000
  H   H22       1.0  0.6406626653785779  0.622572052830371  0.8479247657173516  1.0000
  H   H23       1.0  0.3281068764274482  0.5266237097145705  0.140582325319663  1.0000
  H   H24       1.0  0.37793224749390225  0.11849793739184379  0.5185264962459187  1.0000
  C   C1        1.0  0.4548144347231189  0.7422885604804392  0.4960833583845242  1.0000
  C   C2        1.0  0.4565008301313825  0.5264747951866935  0.6553925031919405  1.0000
  C   C3        1.0  0.5366334151629034  0.5279233709959994  0.2582174157194927  1.0000
  C   C4        1.0  0.4458399119455337  0.5505257367431254  0.7402005217545096  1.0000
  C   C5        1.0  0.4170713833377847  0.5209050873813084  0.23674001224322444  1.0000
  C   C6        1.0  0.5608025392927446  0.5792396546661464  0.7568797269207581  1.0000
  C   C7        1.0  0.4195396416785612  0.5376827925174368  0.15674850201138923  1.0000
  C   C8        1.0  0.5516936565257496  0.5979632875337088  0.8359302349496289  1.0000
  C   C9        1.0  0.5395526624496441  0.5637860226533178  0.09515637433076313  1.0000
  C   C10       1.0  0.42953463464579755  0.5867209023423783  0.9013264244994375  1.0000
  C   C11       1.0  0.6605336280704536  0.5718567861142175  0.11681054304323622  1.0000
  C   C12       1.0  0.5544429759215461  0.2674432649825462  0.5045682045814459  1.0000
  C   C13       1.0  0.3104581129305899  0.5632793420886059  0.884213384862008  1.0000
  C   C14       1.0  0.6565437760529633  0.5531713141510862  0.19772280794210673  1.0000
  C   C15       1.0  0.3214288091516836  0.5454812563552877  0.8040369951051076  1.0000
  C   C16       1.0  0.5418781714829919  0.5741555895255105  0.0108332325033942  1.0000
  C   C17       1.0  0.4264074277538157  0.5935153201975895  0.9849364595029542  1.0000
  C   C18       1.0  0.7915493753543358  0.6036429617148542  0.05554829817702261  1.0000
  C   C19       1.0  0.7719930060074843  0.7387978810867466  0.03192960365959867  1.0000
  C   C20       1.0  0.1751931965890847  0.5499935669610494  0.9503142893711002  1.0000
  C   C21       1.0  0.18791779974229433  0.4262013755977207  0.9940682390724617  1.0000
  C   C22       1.0  0.420071158681111  0.8758704315521585  0.5034144198342361  1.0000
  C   C23       1.0  0.5885260603237015  0.13363598869385376  0.49876077875870095  1.0000
  C   C24       1.0  0.5199148402063046  0.9400023659519336  0.4968646065594344  1.0000
  C   C25       1.0  0.48870135836848777  0.06921365810958952  0.5058951119388411  1.0000
  C   C26       1.0  0.06127110630495032  0.53253060164063  0.501334328835739  1.0000
  C   C27       1.0  0.9337854374388144  0.4806904258871399  0.5080211203738969  1.0000
  C   C28       1.0  0.5347577693905592  0.50944880907916  0.3444527078604978  1.0000
  I   I1        1.0  0.9021010343745817  0.33592722931698654  0.5913518089983398  1.0000
  I   I2        1.0  0.08212906623687394  0.687652665463375  0.4263015804264327  1.0000
  N   N1        1.0  0.15320951824474352  0.48827121780325194  0.5369064976501932  1.0000
  N   N2        1.0  0.8492103812712986  0.5186266771222492  0.4668421583403131  1.0000
  O   O1        1.0  0.5854771808511856  0.6878790966892083  0.4738147054583025  1.0000
  O   O2        1.0  0.42401952171869073  0.3227689929797677  0.5252353484030509  1.0000
  O   O3        1.0  0.3479053022783845  0.691963230910737  0.5139067370903805  1.0000
  O   O4        1.0  0.6616801936637915  0.3173147653940304  0.4869986166751161  1.0000
  O   O5        1.0  0.6506628479115621  0.5037755962120726  0.3596778482501648  1.0000
  O   O6        1.0  0.3443531113960889  0.5151502183168191  0.6415224364425569  1.0000
  O   O7        1.0  0.4157009678385891  0.5016164286727616  0.3970670906667237  1.0000
  O   O8        1.0  0.5789452361678756  0.5190118438740896  0.6024162810791509  1.0000
