data_image0
_chemical_formula_structural       Cd2H24C24N4O16
_chemical_formula_sum              "Cd2 H24 C24 N4 O16"
_cell_length_a       3.6383074451501045
_cell_length_b       10.336578219981398
_cell_length_c       17.738185544235836
_cell_angle_alpha    88.965101455065
_cell_angle_beta     84.11251807034427
_cell_angle_gamma    79.84650580679074

_space_group_name_H-M_alt    "P 1"
_space_group_IT_number       1

loop_
  _space_group_symop_operation_xyz
  'x, y, z'

loop_
  _atom_site_type_symbol
  _atom_site_label
  _atom_site_symmetry_multiplicity
  _atom_site_fract_x
  _atom_site_fract_y
  _atom_site_fract_z
  _atom_site_occupancy
  Cd  Cd1       1.0  0.032721018883549266  0.0001092793633504  0.9998403946929386  1.0000
  Cd  Cd2       1.0  0.2831048081941103  0.5000756157993038  0.5001851084146908  1.0000
  H   H1        1.0  0.2731713360472055  0.6011697896439047  0.26173461311076823  1.0000
  H   H2        1.0  0.1363616673365866  0.39906108180767325  0.7380508703182118  1.0000
  H   H3        1.0  0.7841233542712158  0.10086129104900722  0.23823051001285486  1.0000
  H   H4        1.0  0.12497111836681504  0.8989973072991763  0.7619867257698304  1.0000
  H   H5        1.0  0.34567548831162737  0.3718643639200181  0.24026963105693266  1.0000
  H   H6        1.0  0.9578625399505468  0.6283797653414354  0.759642416116634  1.0000
  H   H7        1.0  0.8360015220942714  0.87149311122041  0.2597951594307304  1.0000
  H   H8        1.0  0.9677113717883187  0.1282843626367765  0.7404127016144743  1.0000
  H   H9        1.0  0.9936449849241099  0.42768063520826877  0.0288693105153683  1.0000
  H   H10       1.0  0.44915483095876846  0.5719944271238617  0.9711441384610567  1.0000
  H   H11       1.0  0.2730015066978808  0.9278834895585818  0.4710874590171913  1.0000
  H   H12       1.0  0.6705963686226255  0.0720940420013108  0.5289179617714836  1.0000
  H   H13       1.0  0.8964642627516709  0.6685372953959076  0.0555705825197421  1.0000
  H   H14       1.0  0.61965492190172  0.33122403447961096  0.9443095774102518  1.0000
  H   H15       1.0  0.20160640965124785  0.16871623774682828  0.4442656578903198  1.0000
  H   H16       1.0  0.8150632435684526  0.831319072473683  0.5557586627200666  1.0000
  H   H17       1.0  0.511981618683848  0.8779051141893959  0.11927313791219524  1.0000
  H   H18       1.0  0.5093079016225768  0.12234025849948442  0.8803448977332878  1.0000
  H   H19       1.0  0.8809055279544042  0.37781290155746927  0.38065996974628297  1.0000
  H   H20       1.0  0.640501771960501  0.6222842429582016  0.6196233709318264  1.0000
  H   H21       1.0  0.5071290472347627  0.037017751480846114  0.11644402740274272  1.0000
  H   H22       1.0  0.6610470279780997  0.9632301136021084  0.8832661121895313  1.0000
  H   H23       1.0  0.8740999798532131  0.5368749041212125  0.3835778565998211  1.0000
  H   H24       1.0  0.7949278871010677  0.46312248029121866  0.6167499118202784  1.0000
  C   C1        1.0  0.4769248993752127  0.4319164374418206  0.19807209918329255  1.0000
  C   C2        1.0  0.10705781451734687  0.5682131542209561  0.8018031516351984  1.0000
  C   C3        1.0  0.9250500534272703  0.9316773815568526  0.3019341000346715  1.0000
  C   C4        1.0  0.1590551879240535  0.0681595137004507  0.6982354001159764  1.0000
  C   C5        1.0  0.6747531786173507  0.38081005669398854  0.13137307036807752  1.0000
  C   C6        1.0  0.1869176944349106  0.6191691665067652  0.8685451756983795  1.0000
  C   C7        1.0  0.05656961598271689  0.8807410048481759  0.3686333575461234  1.0000
  C   C8        1.0  0.305444753696662  0.11913677938018451  0.6314788095341726  1.0000
  C   C9        1.0  0.566192592337032  0.653216245144364  0.16317760986333243  1.0000
  C   C10       1.0  0.3827023394291586  0.34682781966628806  0.8365823461566891  1.0000
  C   C11       1.0  0.9786481188151515  0.15310285468201104  0.33671953968273277  1.0000
  C   C12       1.0  0.4698435909135485  0.8468234812521799  0.6634335972531744  1.0000
  C   C13       1.0  0.8318053961398133  0.4685286125071856  0.0806782897203462  1.0000
  C   C14       1.0  0.3804248407977865  0.5313049613632119  0.919260755844519  1.0000
  C   C15       1.0  0.16275866566022038  0.9686009107005518  0.41927216375339793  1.0000
  C   C16       1.0  0.5500707619733587  0.0313405474116308  0.580787281627977  1.0000
  C   C17       1.0  0.7800817731087263  0.6007192866503672  0.09515199661149151  1.0000
  C   C18       1.0  0.47535258214926285  0.3991147899140516  0.9047202025936656  1.0000
  C   C19       1.0  0.12496191317534769  0.1007641499065528  0.4047388846349023  1.0000
  C   C20       1.0  0.6309273573521633  0.89916995567652  0.5953444108168071  1.0000
  C   C21       1.0  0.7118752768994412  0.24018783159920795  0.11070423835353442  1.0000
  C   C22       1.0  0.06341627998055069  0.7598405093324134  0.8891767038017948  1.0000
  C   C23       1.0  0.07347337038672928  0.7401479813149905  0.389369836272195  1.0000
  C   C24       1.0  0.20224038097732924  0.2597631901162245  0.6108199503983516  1.0000
  N   N1        1.0  0.43254859710827276  0.5619258573473688  0.21252264133100604  1.0000
  N   N2        1.0  0.20723888594669412  0.4382408700033053  0.7872843463827481  1.0000
  N   N3        1.0  0.8945687082624049  0.061671161441168514  0.2874260410180298  1.0000
  N   N4        1.0  0.24501634207288014  0.9381979731022981  0.7127488443587779  1.0000
  O   O1        1.0  0.4901945838891706  0.7734544261043156  0.18161620288925925  1.0000
  O   O2        1.0  0.4458693451929887  0.22663852369866797  0.8180392820935297  1.0000
  O   O3        1.0  0.9206769726444505  0.2733128925286224  0.31826493468987144  1.0000
  O   O4        1.0  0.5142669935596729  0.7266092960139688  0.6819366332799675  1.0000
  O   O5        1.0  0.5019804026816173  0.957367603553344  0.0832903710107544  1.0000
  O   O6        1.0  0.5427549229630697  0.04289020026167381  0.9163732574715058  1.0000
  O   O7        1.0  0.8355448989104275  0.45720684107522647  0.41668073360415303  1.0000
  O   O8        1.0  0.7101266512162567  0.5428181676044446  0.5836122925814777  1.0000
  O   O9        1.0  0.8739487406829979  0.20759651636205947  0.04467820975946781  1.0000
  O   O10       1.0  0.12706226795124553  0.7924740805398897  0.9551664673673701  1.0000
  O   O11       1.0  0.16952936526723789  0.7076533353489367  0.45540946780339203  1.0000
  O   O12       1.0  0.3316994196125973  0.29240034863860137  0.5448213807638709  1.0000
  O   O13       1.0  0.5740824032923229  0.16193064363186951  0.1579298206157276  1.0000
  O   O14       1.0  0.8949436938284803  0.8381596437186192  0.841908725861842  1.0000
  O   O15       1.0  0.9833183442514724  0.6617764651272111  0.34216051956455124  1.0000
  O   O16       1.0  0.9864594353838145  0.3380712117640314  0.6580978641526443  1.0000
