data_image0
_chemical_formula_structural       Cd2H20C22N4O10
_chemical_formula_sum              "Cd2 H20 C22 N4 O10"
_cell_length_a       8.123126175707899
_cell_length_b       8.25313619888547
_cell_length_c       10.318209388164513
_cell_angle_alpha    65.27615006973348
_cell_angle_beta     68.1053526648298
_cell_angle_gamma    79.27306264935194

_space_group_name_H-M_alt    "P 1"
_space_group_IT_number       1

loop_
  _space_group_symop_operation_xyz
  'x, y, z'

loop_
  _atom_site_type_symbol
  _atom_site_label
  _atom_site_symmetry_multiplicity
  _atom_site_fract_x
  _atom_site_fract_y
  _atom_site_fract_z
  _atom_site_occupancy
  Cd  Cd1       1.0  0.09347633496822987  0.31539928263512  0.9038879594247148  1.0000
  Cd  Cd2       1.0  0.9065211489357876  0.6846052540412018  0.09611142091793579  1.0000
  H   H1        1.0  0.197732331608691  0.992681554710316  0.8508936944715731  1.0000
  H   H2        1.0  0.8022637551959448  0.007325683035773498  0.14910425097060198  1.0000
  H   H3        1.0  0.21082894520991857  0.9440204311898627  0.007635378644188565  1.0000
  H   H4        1.0  0.7891658842828946  0.05598413704824168  0.9923647791740465  1.0000
  H   H5        1.0  0.7185801856945275  0.5970605712286955  0.5501894088451852  1.0000
  H   H6        1.0  0.28142006065705527  0.4029398979100946  0.4498124157719873  1.0000
  H   H7        1.0  0.3344920467100607  0.9475678365413671  0.5879964141604219  1.0000
  H   H8        1.0  0.6655094631390952  0.052434031842800294  0.41199973326554584  1.0000
  H   H9        1.0  0.4748113594578669  0.016000401548410495  0.3094929401450699  1.0000
  H   H10       1.0  0.5251888549368928  0.9840001480146369  0.6905040215451309  1.0000
  H   H11       1.0  0.3343539718343891  0.9222774798551044  0.1792426895369061  1.0000
  H   H12       1.0  0.6656463442053635  0.07771904981704127  0.8207565213180104  1.0000
  H   H13       1.0  0.929820795699591  0.6661550230877465  0.6032135842061593  1.0000
  H   H14       1.0  0.07018082857728561  0.3338427932358242  0.39678675755530446  1.0000
  H   H15       1.0  0.47210347884491444  0.3937437171440124  0.6097353286480002  1.0000
  H   H16       1.0  0.5278967992578814  0.6062554173927664  0.3902669214956094  1.0000
  H   H17       1.0  0.3308200089907061  0.5578862004278304  0.9738303275485694  1.0000
  H   H18       1.0  0.6691816598201112  0.4421102491240204  0.026172384910126  1.0000
  H   H19       1.0  0.6590790431302903  0.6929081174564119  0.770758985933661  1.0000
  H   H20       1.0  0.3409226003206811  0.3070896506126032  0.22924427358398705  1.0000
  C   C1        1.0  0.04137250845570148  0.7507567963380524  0.7793484835371914  1.0000
  C   C2        1.0  0.958630379524365  0.2492436734086567  0.22065061843360215  1.0000
  C   C3        1.0  0.12267612934559219  0.8029425865860275  0.6122158221094268  1.0000
  C   C4        1.0  0.877328181093702  0.1970538635737427  0.3877841677028969  1.0000
  C   C5        1.0  0.2755742371724636  0.9039062237247177  0.5294322234142897  1.0000
  C   C6        1.0  0.724429990590316  0.09609294389363039  0.4705639975889754  1.0000
  C   C7        1.0  0.3520977867604174  0.9439627188151293  0.37449651505563253  1.0000
  C   C8        1.0  0.6479037865911577  0.05603648036500892  0.6255004834232168  1.0000
  C   C9        1.0  0.2730847964461631  0.8907270106758319  0.300205670166072  1.0000
  C   C10       1.0  0.7269168150479856  0.10927083781743359  0.6997927264246045  1.0000
  C   C11       1.0  0.029610229881122087  0.7375631762770496  0.30290185236636097  1.0000
  C   C12       1.0  0.970388670090763  0.26243735689718756  0.6970974432324156  1.0000
  C   C13       1.0  0.04591432389364769  0.7475247078559802  0.5374407899139727  1.0000
  C   C14       1.0  0.9540886593400443  0.2524717580846882  0.4625595886361469  1.0000
  C   C15       1.0  0.47491982714841185  0.46029633472686987  0.679441799931368  1.0000
  C   C16       1.0  0.525079053854995  0.539705500879677  0.32055901531175834  1.0000
  C   C17       1.0  0.40753616159128114  0.5463620196623964  0.8667438322436922  1.0000
  C   C18       1.0  0.5924654437171171  0.4536370990934913  0.13325802916212143  1.0000
  C   C19       1.0  0.5687553284706013  0.6157790399726223  0.7662459515023131  1.0000
  C   C20       1.0  0.4312449496321946  0.38422009456415646  0.23375629864129632  1.0000
  C   C21       1.0  0.11752839030233987  0.7935601657627912  0.3811673888986534  1.0000
  C   C22       1.0  0.8824732275831764  0.206437666645634  0.6188319802774201  1.0000
  N   N1        1.0  0.3506871474017856  0.44926000280396744  0.81085339422539  1.0000
  N   N2        1.0  0.6493144579066126  0.5507391159519128  0.1891484671804237  1.0000
  N   N3        1.0  0.6084785669030807  0.5610538735821321  0.6484135665065979  1.0000
  N   N4        1.0  0.3915230066541042  0.43894657977577367  0.35158786937277864  1.0000
  O   O1        1.0  0.9450045273804688  0.6141371242410115  0.8572752545810973  1.0000
  O   O2        1.0  0.0549970333939882  0.38586336128659576  0.14272423612749216  1.0000
  O   O3        1.0  0.0690355200070911  0.8443121798331248  0.8411222928167563  1.0000
  O   O4        1.0  0.9309633100710143  0.15569103862998904  0.158875179143756  1.0000
  O   O5        1.0  0.11388076233412649  0.7588015100560739  0.1638485358903168  1.0000
  O   O6        1.0  0.8861167786809431  0.24120037350106577  0.8361507229198185  1.0000
  O   O7        1.0  0.8769844896277518  0.671694585619946  0.3720018008423552  1.0000
  O   O8        1.0  0.123014391375655  0.32830724998660804  0.6279990144007714  1.0000
  O   O9        1.0  0.24615191362079258  0.037976094596466184  0.9037386106233288  1.0000
  O   O10       1.0  0.7538415569151978  0.9620298240245476  0.09626151040625795  1.0000
