data_image0
_chemical_formula_structural       Zn4H36C32N4O28
_chemical_formula_sum              "Zn4 H36 C32 N4 O28"
_cell_length_a       9.12113825934388
_cell_length_b       10.038813045186545
_cell_length_c       11.234499385395855
_cell_angle_alpha    90.00069983965375
_cell_angle_beta     110.20354788102117
_cell_angle_gamma    89.99976835858546

_space_group_name_H-M_alt    "P 1"
_space_group_IT_number       1

loop_
  _space_group_symop_operation_xyz
  'x, y, z'

loop_
  _atom_site_type_symbol
  _atom_site_label
  _atom_site_symmetry_multiplicity
  _atom_site_fract_x
  _atom_site_fract_y
  _atom_site_fract_z
  _atom_site_occupancy
  Zn  Zn1       1.0  0.37506899703534907  0.10706037171787838  0.5260870020270687  1.0000
  Zn  Zn2       1.0  0.624932845860947  0.6070593285916531  0.9739158155677573  1.0000
  Zn  Zn3       1.0  0.6249311602000559  0.8929422919396971  0.47391246524147596  1.0000
  Zn  Zn4       1.0  0.37507081567697037  0.39294134279889903  0.026084674547817596  1.0000
  H   H1        1.0  0.4678075201947109  0.26411488639701025  0.710362986235346  1.0000
  H   H2        1.0  0.532190874034633  0.7641116695715411  0.7896405346643791  1.0000
  H   H3        1.0  0.5321915041889297  0.7358887733819444  0.28963436994146013  1.0000
  H   H4        1.0  0.4678080446014263  0.23588900184287806  0.21036213192967787  1.0000
  H   H5        1.0  0.29750701095085924  0.21874929813620264  0.7119628809347988  1.0000
  H   H6        1.0  0.7024868710487623  0.7187444195408048  0.7880299268124774  1.0000
  H   H7        1.0  0.7024908629563313  0.7812543616365277  0.28803324921707235  1.0000
  H   H8        1.0  0.297513303810092  0.28125226730846015  0.21196865535094395  1.0000
  H   H9        1.0  0.299127878248747  0.9292523007817689  0.6660355353366257  1.0000
  H   H10       1.0  0.7008741845305834  0.42925134919161684  0.833965513013226  1.0000
  H   H11       1.0  0.700874597563704  0.07074837061475141  0.33396549889856436  1.0000
  H   H12       1.0  0.2991259903286192  0.5707473299250552  0.16603306916115207  1.0000
  H   H13       1.0  0.328164201209205  0.8629766920524417  0.5512145854931065  1.0000
  H   H14       1.0  0.6718342985406807  0.36297841916776713  0.9487864817276307  1.0000
  H   H15       1.0  0.6718370888777798  0.13702397935004734  0.4487869928617061  1.0000
  H   H16       1.0  0.3281646729685476  0.6370202599609627  0.0512135296386447  1.0000
  H   H17       1.0  0.9990186744315394  0.2963973684514229  0.534081346491796  1.0000
  H   H18       1.0  0.0009797136093893937  0.796394589540256  0.9659234142970378  1.0000
  H   H19       1.0  0.0009756599228793977  0.7036013106646096  0.4659155309192898  1.0000
  H   H20       1.0  0.9990203555027577  0.20360408961298765  0.03408047831100457  1.0000
  H   H21       1.0  0.8829340999796784  0.40261062416230686  0.13869391768582778  1.0000
  H   H22       1.0  0.11707354358138392  0.9026059735227605  0.361313883833141  1.0000
  H   H23       1.0  0.11706720773288032  0.5973960240362929  0.8613067756295507  1.0000
  H   H24       1.0  0.8829312508082978  0.09739370174641242  0.6386887173741729  1.0000
  H   H25       1.0  0.5854853516494173  0.5057114973783784  0.353192902056918  1.0000
  H   H26       1.0  0.41451397460429007  0.0057080682686035  0.14680815051055873  1.0000
  H   H27       1.0  0.414511336532307  0.49429216240032053  0.6468037722145753  1.0000
  H   H28       1.0  0.5854814926026036  0.9942935992608568  0.8531908380141717  1.0000
  H   H29       1.0  0.7410174580665583  0.5241103525377326  0.5803408803650927  1.0000
  H   H30       1.0  0.2589808158911567  0.024099295211030398  0.9196617727636254  1.0000
  H   H31       1.0  0.2589838848941283  0.4758913149801671  0.4196580427783588  1.0000
  H   H32       1.0  0.7410251642232808  0.9758963955173671  0.0803402843021672  1.0000
  H   H33       1.0  0.8744571691865417  0.3921397671627105  0.6457528541992873  1.0000
  H   H34       1.0  0.12555187142470456  0.8921260225558638  0.8542507169673004  1.0000
  H   H35       1.0  0.12554422664767634  0.6078619003369071  0.3542434137273248  1.0000
  H   H36       1.0  0.8744553120402401  0.10787265656157533  0.14574991092300857  1.0000
  C   C1        1.0  0.922915737914174  0.34114721997835323  0.4460820673158781  1.0000
  C   C2        1.0  0.07708138859016599  0.8411464788951547  0.053921105038554615  1.0000
  C   C3        1.0  0.0770809326428719  0.6588554436727421  0.5539154920224192  1.0000
  C   C4        1.0  0.9229175300457158  0.1588531963855644  0.9460815615500311  1.0000
  C   C5        1.0  0.9545031632362395  0.3386172052211549  0.3334242113904652  1.0000
  C   C6        1.0  0.0455021214539784  0.8386161344541065  0.1665822048958177  1.0000
  C   C7        1.0  0.04549584352201209  0.661381473895389  0.6665740298312459  1.0000
  C   C8        1.0  0.9545014695853808  0.16138154855972434  0.8334218254924439  1.0000
  C   C9        1.0  0.8536276193981464  0.4007116433724888  0.22495405018653267  1.0000
  C   C10       1.0  0.14637657206098  0.9007076926225824  0.275050052389915  1.0000
  C   C11       1.0  0.14637604214030384  0.5992920164191703  0.7750464399454629  1.0000
  C   C12       1.0  0.8536258861269629  0.0992929787800279  0.7249518669175573  1.0000
  C   C13       1.0  0.7123822258992478  0.4589359316586084  0.22590256637128914  1.0000
  C   C14       1.0  0.2876197557311357  0.9589334263095494  0.2740961838130503  1.0000
  C   C15       1.0  0.2876179842096818  0.5410667319806777  0.7740942456804236  1.0000
  C   C16       1.0  0.7123804367534629  0.04107023346954009  0.7259015133164155  1.0000
  C   C17       1.0  0.6885715135649876  0.45959323426531284  0.3435107702953674  1.0000
  C   C18       1.0  0.3114257606461521  0.9595950047357319  0.15648839347076665  1.0000
  C   C19       1.0  0.3114217055616493  0.5404034525649024  0.6564831109352767  1.0000
  C   C20       1.0  0.6885732284882877  0.0404076589217155  0.8435107328451256  1.0000
  C   C21       1.0  0.1016892018838647  0.2683565257083771  0.3333547324892551  1.0000
  C   C22       1.0  0.8983101292911897  0.7683661785531016  0.1666536322240263  1.0000
  C   C23       1.0  0.8983085838995423  0.7316401611589215  0.666645822985693  1.0000
  C   C24       1.0  0.10168997507033586  0.2316344928553562  0.8333484902504156  1.0000
  C   C25       1.0  0.7660882365001669  0.4189483939491439  0.5691985923631437  1.0000
  C   C26       1.0  0.23391138067861306  0.9189392729677336  0.9308069712206832  1.0000
  C   C27       1.0  0.23390958453296656  0.5810522774407686  0.4308001929891461  1.0000
  C   C28       1.0  0.7660922279848988  0.08105641777259359  0.06919617408435387  1.0000
  C   C29       1.0  0.6325209125014482  0.3366989897854539  0.5848282445022478  1.0000
  C   C30       1.0  0.36748095886992627  0.8366951267013863  0.9151797522353677  1.0000
  C   C31       1.0  0.3674745723308277  0.663307658406417  0.4151698589775707  1.0000
  C   C32       1.0  0.6325260835991315  0.1633045485985178  0.08482795623865517  1.0000
  N   N1        1.0  0.7928705863521941  0.4045264862755074  0.4480920714019518  1.0000
  N   N2        1.0  0.2071289516786123  0.9045202454677792  0.0519098242076623  1.0000
  N   N3        1.0  0.20712726993014027  0.5954751812359191  0.5519049438112518  1.0000
  N   N4        1.0  0.7928700198311416  0.0954814220620577  0.9480901871750336  1.0000
  O   O1        1.0  0.6031508842682028  0.5093697067096699  0.1265172531530752  1.0000
  O   O2        1.0  0.3968496113829403  0.0093694493783971  0.3734841805916035  1.0000
  O   O3        1.0  0.3968434677109015  0.49062996853397334  0.8734787391912066  1.0000
  O   O4        1.0  0.6031516787042293  0.9906322181577921  0.6265173977686872  1.0000
  O   O5        1.0  0.12320612105154538  0.2549448221756663  0.22898300635358035  1.0000
  O   O6        1.0  0.8767955239508113  0.7549599705718252  0.27102677796042957  1.0000
  O   O7        1.0  0.8767892932784633  0.7450379188317414  0.771018637283973  1.0000
  O   O8        1.0  0.12320691661262369  0.24504070083688131  0.728976026419325  1.0000
  O   O9        1.0  0.1914046597665262  0.23082278800219314  0.4428183357069742  1.0000
  O   O10       1.0  0.8085874908841432  0.7308223153410652  0.057195536354633744  1.0000
  O   O11       1.0  0.8085848083142934  0.7691748950466748  0.5571869136830829  1.0000
  O   O12       1.0  0.191414949679114  0.2691773599339413  0.9428072680196423  1.0000
  O   O13       1.0  0.602697116888855  0.36637554306152237  0.6837922798864328  1.0000
  O   O14       1.0  0.3973106054997401  0.8663692155139627  0.8162177477737773  1.0000
  O   O15       1.0  0.3973053589239512  0.633627120602398  0.31620875435971396  1.0000
  O   O16       1.0  0.6026918174381279  0.1336254790986331  0.18378594164541082  1.0000
  O   O17       1.0  0.5628579429022265  0.24972114966354295  0.5034154518420237  1.0000
  O   O18       1.0  0.4371497734113419  0.7497181384632938  0.9965915235518426  1.0000
  O   O19       1.0  0.43714108148158454  0.7502835062491187  0.49658190434026045  1.0000
  O   O20       1.0  0.5628548623581153  0.25028352912813295  0.0034190433169243484  1.0000
  O   O21       1.0  0.39583276269434714  0.1870401045971377  0.7003215904965147  1.0000
  O   O22       1.0  0.6041656571047086  0.6870357571305236  0.7996784280568081  1.0000
  O   O23       1.0  0.6041685802665171  0.8129625590544619  0.2996773326524151  1.0000
  O   O24       1.0  0.3958309958271187  0.3129629219918613  0.20032001633187246  1.0000
  O   O25       1.0  0.26740757315373287  0.9359556986382105  0.5723139858163507  1.0000
  O   O26       1.0  0.7325921029248547  0.435954914845972  0.9276891095225042  1.0000
  O   O27       1.0  0.7325937169334295  0.0640459688979789  0.4276875925439326  1.0000
  O   O28       1.0  0.2674092047859347  0.5640417720156138  0.07231158373813433  1.0000
