data_image0
_chemical_formula_structural       Zn4H36C56N24O12
_chemical_formula_sum              "Zn4 H36 C56 N24 O12"
_cell_length_a       8.808745442528117
_cell_length_b       9.316118232659822
_cell_length_c       17.10833702800372
_cell_angle_alpha    89.99995800158243
_cell_angle_beta     89.99995091292146
_cell_angle_gamma    105.70120470283759

_space_group_name_H-M_alt    "P 1"
_space_group_IT_number       1

loop_
  _space_group_symop_operation_xyz
  'x, y, z'

loop_
  _atom_site_type_symbol
  _atom_site_label
  _atom_site_symmetry_multiplicity
  _atom_site_fract_x
  _atom_site_fract_y
  _atom_site_fract_z
  _atom_site_occupancy
  Zn  Zn1       1.0  0.0007010453317377867  0.43829887135861867  0.6761684949460687  1.0000
  Zn  Zn2       1.0  0.4993005652940851  0.06170116082466142  0.17616895802369467  1.0000
  Zn  Zn3       1.0  0.999300365500396  0.561700754195563  0.3238312587410306  1.0000
  Zn  Zn4       1.0  0.5006997107137678  0.9382984661645039  0.8238313801740063  1.0000
  H   H1        1.0  0.38018727403524355  0.8054487944712603  0.4068499353875552  1.0000
  H   H2        1.0  0.11981307889395511  0.6945526023390229  0.9068524397883734  1.0000
  H   H3        1.0  0.6198126813871954  0.19454971750649014  0.5931486492793994  1.0000
  H   H4        1.0  0.8801863828756781  0.3054481410970951  0.0931496519403225  1.0000
  H   H5        1.0  0.35295735601528105  0.942449841710356  0.5258030300689427  1.0000
  H   H6        1.0  0.14704125003709834  0.5575511711533352  0.0258042344803115  1.0000
  H   H7        1.0  0.6470417851702307  0.057549786715462396  0.4741961391083152  1.0000
  H   H8        1.0  0.852958211733828  0.44244957228390547  0.9741966882276927  1.0000
  H   H9        1.0  0.06728480145333289  0.1759587956481212  0.3988218804596073  1.0000
  H   H10       1.0  0.4327150084970484  0.32404415894689015  0.8988224417592363  1.0000
  H   H11       1.0  0.9327157951431599  0.8240419463552511  0.6011772887171033  1.0000
  H   H12       1.0  0.5672850944492325  0.675958814517088  0.10117789643783229  1.0000
  H   H13       1.0  0.09725270047481871  0.03831738115136571  0.2795566567782401  1.0000
  H   H14       1.0  0.4027465592031448  0.4616869178112851  0.7795583453013251  1.0000
  H   H15       1.0  0.9027478961216815  0.9616833608520067  0.7204425123984777  1.0000
  H   H16       1.0  0.5972538643285503  0.538317170664115  0.2204437464264899  1.0000
  H   H17       1.0  0.044240271504612814  0.30914093820356925  0.5114090728011433  1.0000
  H   H18       1.0  0.45576024836590523  0.190858295263304  0.011409503449826299  1.0000
  H   H19       1.0  0.9557593633298181  0.6908564587605283  0.4885900963764485  1.0000
  H   H20       1.0  0.5442403482293016  0.8091424467389529  0.9885908347475835  1.0000
  H   H21       1.0  0.23262148283399137  0.22490694588896076  0.7281226886261862  1.0000
  H   H22       1.0  0.2673808270392329  0.2750918705588035  0.22812375310689245  1.0000
  H   H23       1.0  0.7673825182340579  0.7750937918083451  0.2718758960394325  1.0000
  H   H24       1.0  0.7326176729702708  0.7249055278397164  0.7718765850916398  1.0000
  H   H25       1.0  0.280839040306887  0.6109505275503223  0.5337016004902111  1.0000
  H   H26       1.0  0.21915890709001215  0.8890482401934462  0.03370205616704419  1.0000
  H   H27       1.0  0.7191597802906244  0.3890479858618434  0.4662981531976839  1.0000
  H   H28       1.0  0.7808402340948533  0.11095138823181118  0.9662976975205595  1.0000
  H   H29       1.0  0.29264111219166716  0.0447445443272443  0.6323705645198032  1.0000
  H   H30       1.0  0.2073591399588112  0.4552544579773541  0.13237158345107497  1.0000
  H   H31       1.0  0.7073599780537593  0.9552539662144072  0.3676286046572486  1.0000
  H   H32       1.0  0.7926400012254077  0.5447451704473494  0.8676287547468746  1.0000
  H   H33       1.0  0.5888985518581079  0.6172665999437256  0.6720112920616828  1.0000
  H   H34       1.0  0.9111007255494029  0.8827329119849878  0.17201166571449986  1.0000
  H   H35       1.0  0.4111002687393963  0.38273191346844726  0.32798846162621226  1.0000
  H   H36       1.0  0.08889955045909657  0.1172667150047317  0.8279880879728551  1.0000
  C   C1        1.0  0.3136003581049636  0.8883662468170215  0.4046165194541586  1.0000
  C   C2        1.0  0.18639950611844114  0.611637385723121  0.9046190276553929  1.0000
  C   C3        1.0  0.6863987830811952  0.11163338160935869  0.5953820652127533  1.0000
  C   C4        1.0  0.8136020522368953  0.388366701316734  0.09538306407217328  1.0000
  C   C5        1.0  0.2977493706804921  0.9664153439479649  0.47213388195784484  1.0000
  C   C6        1.0  0.20225083775953578  0.5335859281034702  0.9721352453428053  1.0000
  C   C7        1.0  0.70224977050502  0.03358428447785399  0.527865287219413  1.0000
  C   C8        1.0  0.7977512142460198  0.4664159274757793  0.0278656773644101  1.0000
  C   C9        1.0  0.20915277008436559  0.07123107607797859  0.4716448451558151  1.0000
  C   C10       1.0  0.2908465581023947  0.42877062433665  0.9716454271006044  1.0000
  C   C11       1.0  0.7908463710998531  0.9287685523467246  0.5283554930421346  1.0000
  C   C12       1.0  0.7091546796668806  0.571232347691236  0.0283554956065615  1.0000
  C   C13       1.0  0.13863620524345782  0.09699728330516423  0.4010038576428556  1.0000
  C   C14       1.0  0.3613635998776417  0.40300566712001273  0.9010044188210955  1.0000
  C   C15       1.0  0.8613647119403964  0.9030045737112997  0.5989953115335709  1.0000
  C   C16       1.0  0.6386361824812853  0.5969961913308737  0.09899591937626437  1.0000
  C   C17       1.0  0.15521119005586573  0.019796103914693195  0.3334753891137296  1.0000
  C   C18       1.0  0.3447910341700293  0.4802069726881725  0.833476511255455  1.0000
  C   C19       1.0  0.844789406539988  0.9802046380881181  0.6665243645733268  1.0000
  C   C20       1.0  0.655212473245868  0.5197959964680763  0.1665249959615593  1.0000
  C   C21       1.0  0.24170967157095896  0.9134437474396077  0.33472896621774584  1.0000
  C   C22       1.0  0.25829116156880627  0.5865589022100791  0.834730868261957  1.0000
  C   C23       1.0  0.758289790201907  0.0865569959993024  0.6652702029592206  1.0000
  C   C24       1.0  0.7417108904354494  0.41344295336805464  0.16527122346595038  1.0000
  C   C25       1.0  0.2507234973905383  0.8245023155252936  0.2645263668653612  1.0000
  C   C26       1.0  0.24927603571561008  0.6754993547070924  0.7645276528317382  1.0000
  C   C27       1.0  0.7492770992059549  0.17549842647808592  0.7354728023113564  1.0000
  C   C28       1.0  0.75072374664267  0.3245025037432328  0.2354732698759747  1.0000
  C   C29       1.0  0.18664308228010637  0.1510353393422292  0.5419117454441391  1.0000
  C   C30       1.0  0.3133562352557391  0.348963837267938  0.0419127601555758  1.0000
  C   C31       1.0  0.8133557383180448  0.848963174070498  0.45808742373340994  1.0000
  C   C32       1.0  0.6866440407521068  0.6510357897212274  0.9580875780421251  1.0000
  C   C33       1.0  0.10765815640930042  0.259313004468666  0.5529817826553654  1.0000
  C   C34       1.0  0.3923411366256603  0.24068615098625662  0.0529828058396191  1.0000
  C   C35       1.0  0.8923417990124918  0.7406855075085232  0.44701738652193507  1.0000
  C   C36       1.0  0.607658004557912  0.7593134774378854  0.9470181168686765  1.0000
  C   C37       1.0  0.2035203756622508  0.22209392281551738  0.6665351784545308  1.0000
  C   C38       1.0  0.29648061510925316  0.2779038977506331  0.166536228993067  1.0000
  C   C39       1.0  0.7964807145831757  0.7779045877261339  0.333463990722521  1.0000
  C   C40       1.0  0.7035190197238848  0.722093499212349  0.8334641092052237  1.0000
  C   C41       1.0  0.3774792689717188  0.5633125741050334  0.519339000495151  1.0000
  C   C42       1.0  0.12252130044990388  0.9366873332298482  0.0193377261741432  1.0000
  C   C43       1.0  0.622519231037785  0.4366848242934864  0.4806613377033813  1.0000
  C   C44       1.0  0.8774778407368942  0.06331229519709321  0.9806602739824228  1.0000
  C   C45       1.0  0.4959597230481379  0.567009724300256  0.573812999891089  1.0000
  C   C46       1.0  0.004042354280784381  0.9329878460355587  0.0738117792365927  1.0000
  C   C47       1.0  0.5040390975480733  0.4329887891108015  0.4261879228174975  1.0000
  C   C48       1.0  0.9959610056119031  0.0670106616350097  0.9261873899399616  1.0000
  C   C49       1.0  0.6204433541020932  0.5037184630593998  0.5536982305735589  1.0000
  C   C50       1.0  0.8795532743418305  0.9962790478152639  0.0536979882415167  1.0000
  C   C51       1.0  0.37955692190575246  0.49628116392976546  0.4463021076241418  1.0000
  C   C52       1.0  0.12044586684302772  0.0037205806100005  0.9463017654460869  1.0000
  C   C53       1.0  0.750549329864306  0.5123377484640487  0.609731700029478  1.0000
  C   C54       1.0  0.7494486299744807  0.9876607689067143  0.1097309339406038  1.0000
  C   C55       1.0  0.24944949073255168  0.487660764947563  0.390268638168763  1.0000
  C   C56       1.0  0.25055164603401886  0.0123388580830053  0.8902688197467512  1.0000
  N   N1        1.0  0.1591946145271592  0.6866229815909649  0.2494086389748986  1.0000
  N   N2        1.0  0.34080495204052147  0.8133787175337018  0.7494080760003212  1.0000
  N   N3        1.0  0.8408056614813406  0.313376645398762  0.7505911147124563  1.0000
  N   N4        1.0  0.6591948303184055  0.18662314091718457  0.2505922621970456  1.0000
  N   N5        1.0  0.20753674027881894  0.6450158978342061  0.1801061674372093  1.0000
  N   N6        1.0  0.29246233849926984  0.8549837037043203  0.6801050246218949  1.0000
  N   N7        1.0  0.792462080318039  0.35498261557740557  0.8198941707610317  1.0000
  N   N8        1.0  0.7075379375098764  0.1450159232859605  0.3198941445551142  1.0000
  N   N9        1.0  0.32324680962416613  0.7521828626355145  0.1532893703667924  1.0000
  N   N10       1.0  0.1767542775650242  0.7478156722654745  0.6532894903615584  1.0000
  N   N11       1.0  0.6767528252096185  0.24781453432802178  0.8467103833211453  1.0000
  N   N12       1.0  0.8232471332671097  0.252183953288707  0.34671026332554783  1.0000
  N   N13       1.0  0.35305623821650295  0.8661743510584258  0.20524354315404028  1.0000
  N   N14       1.0  0.14694424033553583  0.6338263160179662  0.7052437218269032  1.0000
  N   N15       1.0  0.6469440377926361  0.13382527593185495  0.7947556260229688  1.0000
  N   N16       1.0  0.8530563562596712  0.36617442598429056  0.29475661637049905  1.0000
  N   N17       1.0  0.1196098309147118  0.30228716122567073  0.6303107367153159  1.0000
  N   N18       1.0  0.38039042579531923  0.19771184501586697  0.1303111978248452  1.0000
  N   N19       1.0  0.8803904450944344  0.6977124657646101  0.369688432461686  1.0000
  N   N20       1.0  0.6196092090378186  0.802285551947115  0.8696891403734452  1.0000
  N   N21       1.0  0.24640025227540016  0.1306757893507182  0.6150322271354085  1.0000
  N   N22       1.0  0.2536000382493313  0.36932324608805084  0.115033260033826  1.0000
  N   N23       1.0  0.7536008379700193  0.869322721190933  0.3849669420416433  1.0000
  N   N24       1.0  0.7463999171705141  0.6306752658874615  0.8849676626745191  1.0000
  O   O1        1.0  0.8668367298770009  0.4632494443778654  0.5871783525150107  1.0000
  O   O2        1.0  0.6331612127771109  0.0367484270716218  0.0871784023310624  1.0000
  O   O3        1.0  0.13316322554349108  0.5367490675982083  0.4128219856829816  1.0000
  O   O4        1.0  0.36683760781910035  0.963250086339436  0.9128225203775243  1.0000
  O   O5        1.0  0.7439334356842552  0.5668108288758305  0.6776687436379518  1.0000
  O   O6        1.0  0.756066149789781  0.9331897872548963  0.1776685809103071  1.0000
  O   O7        1.0  0.25606570550060337  0.433188799549427  0.3223310100496519  1.0000
  O   O8        1.0  0.243937851276975  0.06681095044130098  0.8223311727760034  1.0000
  O   O9        1.0  0.4902953017433803  0.629707810536175  0.6448684043440167  1.0000
  O   O10       1.0  0.009701264789235602  0.8702907461998849  0.14486837526847296  1.0000
  O   O11       1.0  0.5097035188541313  0.37029070287599103  0.3551313493438783  1.0000
  O   O12       1.0  0.9902967415719958  0.1297088836609177  0.8551313784193794  1.0000
