data_image0
_chemical_formula_structural       Ag4H28C24I4N4
_chemical_formula_sum              "Ag4 H28 C24 I4 N4"
_cell_length_a       4.495958870001881
_cell_length_b       10.610392753034098
_cell_length_c       16.098611362054058
_cell_angle_alpha    89.99971527504596
_cell_angle_beta     90.00006270775533
_cell_angle_gamma    90.00008154128909

_space_group_name_H-M_alt    "P 1"
_space_group_IT_number       1

loop_
  _space_group_symop_operation_xyz
  'x, y, z'

loop_
  _atom_site_type_symbol
  _atom_site_label
  _atom_site_symmetry_multiplicity
  _atom_site_fract_x
  _atom_site_fract_y
  _atom_site_fract_z
  _atom_site_occupancy
  Ag  Ag1       1.0  0.38164336573156993  0.9054038783324857  0.7413662911194121  1.0000
  Ag  Ag2       1.0  0.8816309643389321  0.09459607925991521  0.7586368631414756  1.0000
  Ag  Ag3       1.0  0.6183701093515167  0.5945936327700353  0.24136407520555275  1.0000
  Ag  Ag4       1.0  0.1183741265790275  0.40540344274008083  0.2586328608598548  1.0000
  H   H1        1.0  0.6433173502171743  0.5734482973241553  0.4946853413151756  1.0000
  H   H2        1.0  0.1433072352809219  0.42655067732455626  0.0053196786069734  1.0000
  H   H3        1.0  0.3566814170363558  0.9265472554565194  0.9946775423498477  1.0000
  H   H4        1.0  0.8566903212909837  0.07345834275158583  0.5053218762395344  1.0000
  H   H5        1.0  0.3303583077356933  0.3965167481139106  0.5502897443728897  1.0000
  H   H6        1.0  0.8303572549248415  0.6034784678663101  0.9497140133248649  1.0000
  H   H7        1.0  0.6696305049051432  0.10348061465957412  0.05028751782865019  1.0000
  H   H8        1.0  0.16962578983375212  0.8965230873769628  0.4497131629899228  1.0000
  H   H9        1.0  0.03759568291360439  0.43205678647776596  0.6807021274169924  1.0000
  H   H10       1.0  0.5376051817513458  0.5679448598335598  0.8192990442922718  1.0000
  H   H11       1.0  0.9623735553981092  0.06794805034020611  0.18070446380760782  1.0000
  H   H12       1.0  0.46237074668772504  0.9320454514832905  0.3192950759713255  1.0000
  H   H13       1.0  0.0663731289871308  0.6443182292204528  0.7492965298187926  1.0000
  H   H14       1.0  0.5663727460837295  0.3556806060952767  0.7507021671636804  1.0000
  H   H15       1.0  0.9336314762117156  0.8556811054842157  0.24930290708523717  1.0000
  H   H16       1.0  0.4336300936066663  0.14431237995050591  0.2506953804062419  1.0000
  H   H17       1.0  0.5647429997984049  0.8904919299278049  0.5507766161532501  1.0000
  H   H18       1.0  0.064753290391188  0.10950878939833335  0.9492239437788111  1.0000
  H   H19       1.0  0.4352787238242968  0.6095023422124513  0.050774289291091186  1.0000
  H   H20       1.0  0.9352902606027271  0.3905005689017359  0.4492202717279809  1.0000
  H   H21       1.0  0.8725883441056865  0.8360282130136057  0.608289791422173  1.0000
  H   H22       1.0  0.37258973500838277  0.1639745668464485  0.89171025384568  1.0000
  H   H23       1.0  0.12741355719373362  0.66396938438281  0.10828966885954117  1.0000
  H   H24       1.0  0.6274247054780562  0.336033351132656  0.39170416446908957  1.0000
  H   H25       1.0  0.8183838373532668  0.7809646620640862  0.5043697266148753  1.0000
  H   H26       1.0  0.31839022515257653  0.21903525945872818  0.9956315422472239  1.0000
  H   H27       1.0  0.18161326198974595  0.7190327962581551  0.0043638564809427  1.0000
  H   H28       1.0  0.6816245688579486  0.28097374005345443  0.4956318591091174  1.0000
  C   C1        1.0  0.5222089835067791  0.7001010620120669  0.5936035878915645  1.0000
  C   C2        1.0  0.022208681399753502  0.2998986905685897  0.9063994420101124  1.0000
  C   C3        1.0  0.4777884193892206  0.7998947639796795  0.09360191029281847  1.0000
  C   C4        1.0  0.9777969121745187  0.20010628642646822  0.40639515012308874  1.0000
  C   C5        1.0  0.7053291226107135  0.8074657818966744  0.5621094274665879  1.0000
  C   C6        1.0  0.20533077172969172  0.192534075137921  0.9378924234502932  1.0000
  C   C7        1.0  0.29469041537242907  0.6925415972294787  0.062110513924459085  1.0000
  C   C8        1.0  0.7946993953738968  0.3074640611065576  0.4378852407904502  1.0000
  C   C9        1.0  0.5137388791396661  0.5847162384327618  0.5514287043942545  1.0000
  C   C10       1.0  0.013728007927326804  0.4152835093040751  0.9485768072613607  1.0000
  C   C11       1.0  0.48625615604986905  0.9152676614588773  0.05142790374204509  1.0000
  C   C12       1.0  0.9862554869520963  0.0847381061306152  0.44857040193770087  1.0000
  C   C13       1.0  0.3396135000038996  0.48694966060035216  0.582199807325537  1.0000
  C   C14       1.0  0.8396142426819395  0.5130446181896036  0.9178033324046595  1.0000
  C   C15       1.0  0.6603976633862703  0.013048397957952304  0.08219910861625118  1.0000
  C   C16       1.0  0.16039093570957874  0.9869515289254313  0.41780094784191846  1.0000
  C   C17       1.0  0.17594223116214644  0.5062492794762721  0.6545786617528788  1.0000
  C   C18       1.0  0.6759248655344692  0.4937467909168023  0.845419451969576  1.0000
  C   C19       1.0  0.8240487065142262  0.9937536148948283  0.154580833310682  1.0000
  C   C20       1.0  0.32403158776592283  0.0062454628331423  0.3454254914849812  1.0000
  C   C21       1.0  0.19333367725092646  0.6233428218952071  0.6930718600583103  1.0000
  C   C22       1.0  0.693344680978285  0.37665702829765735  0.8069306078814545  1.0000
  C   C23       1.0  0.8066484944901974  0.8766663722234256  0.19306756650039594  1.0000
  C   C24       1.0  0.3066583499860442  0.12333081067911422  0.3069294347087775  1.0000
  I   I1        1.0  0.8813744803303154  0.8668093581794666  0.8517977030902768  1.0000
  I   I2        1.0  0.38136826126076784  0.13320002399034794  0.6482035875488348  1.0000
  I   I3        1.0  0.1186282493281112  0.6331948389720026  0.35179829691232806  1.0000
  I   I4        1.0  0.618625332902788  0.3668031791507503  0.14819988158286884  1.0000
  N   N1        1.0  0.3625924612347049  0.7181858437562171  0.6638213890013984  1.0000
  N   N2        1.0  0.8625921075657818  0.2818141029925201  0.8361767892974041  1.0000
  N   N3        1.0  0.6373962836524499  0.7818103818536741  0.16382417256027534  1.0000
  N   N4        1.0  0.13740212602821342  0.21818764697894724  0.3361733912584342  1.0000
