data_image0
_chemical_formula_structural       Sm4H32C48N8O28
_chemical_formula_sum              "Sm4 H32 C48 N8 O28"
_cell_length_a       8.996258422206918
_cell_length_b       11.90226737680257
_cell_length_c       13.546996847923578
_cell_angle_alpha    89.99661001488418
_cell_angle_beta     90.00185261749499
_cell_angle_gamma    89.0860413254545

_space_group_name_H-M_alt    "P 1"
_space_group_IT_number       1

loop_
  _space_group_symop_operation_xyz
  'x, y, z'

loop_
  _atom_site_type_symbol
  _atom_site_label
  _atom_site_symmetry_multiplicity
  _atom_site_fract_x
  _atom_site_fract_y
  _atom_site_fract_z
  _atom_site_occupancy
  Sm  Sm1       1.0  0.7636977802683447  0.5675824379498382  0.1369021340301444  1.0000
  Sm  Sm2       1.0  0.23631511387864634  0.9324169532830239  0.6369043211416923  1.0000
  Sm  Sm3       1.0  0.236302770357149  0.4324187700429363  0.863092440937649  1.0000
  Sm  Sm4       1.0  0.7636832096721305  0.06758260401545607  0.36308951560929614  1.0000
  H   H1        1.0  0.1279172333523775  0.164703691006288  0.026941136936500198  1.0000
  H   H2        1.0  0.8720902636077669  0.33529179884374827  0.5269589767535905  1.0000
  H   H3        1.0  0.8720966432315793  0.8352906184579255  0.9730519620371751  1.0000
  H   H4        1.0  0.12788915342985524  0.6647046478357056  0.47305626651908744  1.0000
  H   H5        1.0  0.1479862467310511  0.9637190257581595  0.0165062739763329  1.0000
  H   H6        1.0  0.8520120448435052  0.5362895244996366  0.5165206160510607  1.0000
  H   H7        1.0  0.8520465746666445  0.036296036944953904  0.983475014621888  1.0000
  H   H8        1.0  0.1479618008514763  0.4637011150700517  0.4834938889433715  1.0000
  H   H9        1.0  0.29981856239822247  0.7888509335223334  0.03480770429662531  1.0000
  H   H10       1.0  0.7002051760405905  0.7111667839106701  0.5348228709582301  1.0000
  H   H11       1.0  0.7002253688223947  0.2111606206479877  0.9651750609237268  1.0000
  H   H12       1.0  0.2997998213688718  0.2888343639041011  0.46518868204846353  1.0000
  H   H13       1.0  0.371938832051157  0.7207061201354109  0.2013159987135111  1.0000
  H   H14       1.0  0.6281046705794395  0.7792857598006294  0.7013367264094867  1.0000
  H   H15       1.0  0.6280684034856988  0.2793017207917643  0.7986719328455862  1.0000
  H   H16       1.0  0.37190924244058726  0.22072535153937173  0.2986755649368931  1.0000
  H   H17       1.0  0.29628917860411264  0.8305360452215922  0.3508302467899965  1.0000
  H   H18       1.0  0.703748632639858  0.669421509714816  0.850845948378563  1.0000
  H   H19       1.0  0.7037013447394644  0.1694552146656108  0.649153255417751  1.0000
  H   H20       1.0  0.29624525677235886  0.3305839867856549  0.1491641280023543  1.0000
  H   H21       1.0  0.14415347966834702  0.0047570837952762  0.3335356397329718  1.0000
  H   H22       1.0  0.8558782192857635  0.49520111627523994  0.833551301672486  1.0000
  H   H23       1.0  0.8558359301154753  0.9952333504037227  0.666453029648757  1.0000
  H   H24       1.0  0.1440989834330537  0.5047995604164655  0.16646910872575663  1.0000
  H   H25       1.0  0.5521774257187815  0.5163521478576313  0.3047596150898002  1.0000
  H   H26       1.0  0.4477940645476793  0.983616169344714  0.8048046501880464  1.0000
  H   H27       1.0  0.4478431357347149  0.4836487939043366  0.6952371748689786  1.0000
  H   H28       1.0  0.5521775448455983  0.016368617265470703  0.1952334762503369  1.0000
  H   H29       1.0  0.5661926539085514  0.6470989503901947  0.3190688194605685  1.0000
  H   H30       1.0  0.4338087042638961  0.8528520865009526  0.8190390422748308  1.0000
  H   H31       1.0  0.4338190064562469  0.3528987477964948  0.680947900916948  1.0000
  H   H32       1.0  0.5661717789403015  0.14712334302799226  0.18095257964401407  1.0000
  C   C1        1.0  0.8019634876843966  0.314803028704489  0.2564494707444922  1.0000
  C   C2        1.0  0.1980788915864764  0.18518806031823937  0.756465293238449  1.0000
  C   C3        1.0  0.1980481654881601  0.6851913105531366  0.7435399373211382  1.0000
  C   C4        1.0  0.8019283220092817  0.814809698273827  0.2435307582452424  1.0000
  C   C5        1.0  0.9017257563482775  0.24450853548362522  0.1928380575879558  1.0000
  C   C6        1.0  0.09830487778420863  0.25547627107909676  0.6928536749511663  1.0000
  C   C7        1.0  0.0982847741629698  0.7554807777305328  0.8071498741310208  1.0000
  C   C8        1.0  0.9016934347795953  0.7445182448017178  0.3071482817025313  1.0000
  C   C9        1.0  0.9695652371923273  0.2636351371309686  0.1020903255908934  1.0000
  C   C10       1.0  0.030440565509046308  0.2363628705762011  0.6021080442481123  1.0000
  C   C11       1.0  0.030451974549038103  0.7363591282570212  0.8978983444365412  1.0000
  C   C12       1.0  0.9695410786451081  0.7636352274341931  0.3978976028475785  1.0000
  C   C13       1.0  0.9642498581241199  0.3514351634994526  0.024810692876272404  1.0000
  C   C14       1.0  0.035735434624228894  0.14856676606178354  0.5248205774468744  1.0000
  C   C15       1.0  0.035749571650811204  0.6485618583753876  0.9751860965961471  1.0000
  C   C16       1.0  0.9642551087152853  0.8514337341886318  0.4751843316793511  1.0000
  C   C17       1.0  0.04712540896817789  0.09886960147018438  0.1643337899699233  1.0000
  C   C18       1.0  0.9529009870759637  0.40110869463137533  0.6643453064265188  1.0000
  C   C19       1.0  0.9528806929532508  0.9011281724960796  0.8356526652643907  1.0000
  C   C20       1.0  0.047090642384255005  0.5988800281950973  0.33566772265815104  1.0000
  C   C21       1.0  0.13437834454529002  0.9951465299715567  0.17412672406371854  1.0000
  C   C22       1.0  0.8656509130804653  0.5048430115159164  0.6741397770264612  1.0000
  C   C23       1.0  0.865638896419  0.0048611780448410994  0.8258589932214306  1.0000
  C   C24       1.0  0.13433405704891047  0.49515084083517996  0.325874728218963  1.0000
  C   C25       1.0  0.18096443336969506  0.9349132689733037  0.0899360069665534  1.0000
  C   C26       1.0  0.8190577308294351  0.5650901095773193  0.5899507394020134  1.0000
  C   C27       1.0  0.8190706041157441  0.06509840300643789  0.9100541397511961  1.0000
  C   C28       1.0  0.180929460900586  0.4349028730548312  0.41006376590016913  1.0000
  C   C29       1.0  0.26573902839711383  0.8365046029950065  0.09998053739651172  1.0000
  C   C30       1.0  0.734291959168303  0.6635024604319073  0.5999984852222866  1.0000
  C   C31       1.0  0.734301558525715  0.16350279430509568  0.9000096094722565  1.0000
  C   C32       1.0  0.2657030419451374  0.33650302110364555  0.40001454386913343  1.0000
  C   C33       1.0  0.3057973571792303  0.7977557211243537  0.1938460083362799  1.0000
  C   C34       1.0  0.6942439770183171  0.7022345886460927  0.6938609687971677  1.0000
  C   C35       1.0  0.6942232061447555  0.20224606147263563  0.8061397090540651  1.0000
  C   C36       1.0  0.30575880793087157  0.2977716298340595  0.3061476314505924  1.0000
  C   C37       1.0  0.2617512099661853  0.8583173521169273  0.2775739513104797  1.0000
  C   C38       1.0  0.7382927599361294  0.6416525153881096  0.7775893285644104  1.0000
  C   C39       1.0  0.7382615567482133  0.14167781255606118  0.7224147186070766  1.0000
  C   C40       1.0  0.26170111669031126  0.35834709995106095  0.222422224184001  1.0000
  C   C41       1.0  0.17619098681492323  0.9563885890406354  0.2682203316832386  1.0000
  C   C42       1.0  0.823844174203714  0.5435867500049482  0.7682347424994945  1.0000
  C   C43       1.0  0.8238206700090063  0.043607430522804705  0.7317690763751017  1.0000
  C   C44       1.0  0.17613747355999723  0.456413027674607  0.23178123898270542  1.0000
  C   C45       1.0  0.5086429271820379  0.5565891442390125  0.9715991860212156  1.0000
  C   C46       1.0  0.4913451430094825  0.9434239148246277  0.47160138699894105  1.0000
  C   C47       1.0  0.4913265337545312  0.4434301199799151  0.0284101515461188  1.0000
  C   C48       1.0  0.5086476384066502  0.056583277765121016  0.5283924495864483  1.0000
  N   N1        1.0  0.9481592784405707  0.14139816604327396  0.22892362919426293  1.0000
  N   N2        1.0  0.05187439521283469  0.358580470344819  0.7289302226514636  1.0000
  N   N3        1.0  0.051844587280690704  0.8585937565096348  0.7710613496704897  1.0000
  N   N4        1.0  0.9481305803212411  0.6414105961352874  0.2710732105181322  1.0000
  N   N5        1.0  0.0597292349067118  0.1708527966766837  0.0868103191340239  1.0000
  N   N6        1.0  0.9402733416962475  0.32914041681058154  0.5868277718466786  1.0000
  N   N7        1.0  0.9402813248065557  0.8291499588475589  0.9131798270395776  1.0000
  N   N8        1.0  0.0597049526830489  0.6708510038708724  0.4131852569083634  1.0000
  O   O1        1.0  0.7258231525812137  0.2631374897754455  0.3204738818052562  1.0000
  O   O2        1.0  0.27418202745158743  0.23684871767812152  0.8205135473085647  1.0000
  O   O3        1.0  0.27418516909425966  0.7368585740006421  0.6795177406863715  1.0000
  O   O4        1.0  0.7258307355815673  0.763144766234305  0.1794825043261454  1.0000
  O   O5        1.0  0.8027731987552826  0.42085593298378393  0.2476278810360952  1.0000
  O   O6        1.0  0.19732037612605072  0.07912884209775939  0.7476372159296574  1.0000
  O   O7        1.0  0.19723734634651888  0.5791401012262513  0.7523637415086456  1.0000
  O   O8        1.0  0.8026934967497823  0.9208637861966197  0.2523699083000395  1.0000
  O   O9        1.0  0.8717611992274429  0.43212188169993465  0.0310958749873862  1.0000
  O   O10       1.0  0.1282140299313568  0.06787604577107229  0.5311079233397038  1.0000
  O   O11       1.0  0.12823043213610671  0.5678676824617882  0.968897961648004  1.0000
  O   O12       1.0  0.8717887696472247  0.9321368942961286  0.4688947715110032  1.0000
  O   O13       1.0  0.0557314034538976  0.33561961872093343  0.95427777752775  1.0000
  O   O14       1.0  0.9442405656366687  0.16440178258316968  0.45428998936932163  1.0000
  O   O15       1.0  0.9442613743228068  0.6643858937448996  0.0457131063809868  1.0000
  O   O16       1.0  0.0557455235593878  0.8355954163696001  0.5457119669813153  1.0000
  O   O17       1.0  0.602049460442892  0.6254151966940285  0.0062321672999275  1.0000
  O   O18       1.0  0.3979577915596195  0.8745869400311792  0.5062425663889982  1.0000
  O   O19       1.0  0.39793000955755536  0.3746056146925697  0.9937786468411076  1.0000
  O   O20       1.0  0.6020405356544813  0.1254142977550146  0.4937483176707502  1.0000
  O   O21       1.0  0.4294634349660527  0.5713441156198655  0.8958195536775478  1.0000
  O   O22       1.0  0.5705107651270255  0.9286641898065467  0.3958212286182814  1.0000
  O   O23       1.0  0.5705138043083052  0.42867336476662377  0.10419052225397252  1.0000
  O   O24       1.0  0.42947644678708485  0.0713380360537172  0.6041681788302782  1.0000
  O   O25       1.0  0.5621445954028773  0.5875746463593855  0.2698972005316165  1.0000
  O   O26       1.0  0.43790504454345586  0.9124187781886164  0.7698966212844525  1.0000
  O   O27       1.0  0.4378704238711748  0.41243393001172285  0.7301106618263519  1.0000
  O   O28       1.0  0.5620710428526366  0.08758023361694708  0.2301134547007209  1.0000
