data_image0
_chemical_formula_structural       Mn2H34C48N10O8
_chemical_formula_sum              "Mn2 H34 C48 N10 O8"
_cell_length_a       8.439722398600535
_cell_length_b       10.37786611226275
_cell_length_c       14.568736738564576
_cell_angle_alpha    99.24336900500963
_cell_angle_beta     91.91149977927273
_cell_angle_gamma    109.19222538897465

_space_group_name_H-M_alt    "P 1"
_space_group_IT_number       1

loop_
  _space_group_symop_operation_xyz
  'x, y, z'

loop_
  _atom_site_type_symbol
  _atom_site_label
  _atom_site_symmetry_multiplicity
  _atom_site_fract_x
  _atom_site_fract_y
  _atom_site_fract_z
  _atom_site_occupancy
  Mn  Mn1       1.0  0.7728382015157677  0.23242736653013907  0.24313239152020572  1.0000
  Mn  Mn2       1.0  0.2271636814830842  0.7675726252081319  0.7568676897923083  1.0000
  H   H1        1.0  0.8058249541898095  0.27349249494248085  0.5998855047436109  1.0000
  H   H2        1.0  0.19415772200400733  0.7265012089717685  0.4001115781966575  1.0000
  H   H3        1.0  0.40784891075870894  0.400853760857089  0.1190797997855171  1.0000
  H   H4        1.0  0.5921431468813054  0.5991453656462368  0.8809234590706155  1.0000
  H   H5        1.0  0.8153044196261304  0.7565793904259124  0.2605830449432389  1.0000
  H   H6        1.0  0.18470148048280066  0.24340732062208295  0.7394206495367044  1.0000
  H   H7        1.0  0.4312453905609388  0.8145741573899201  0.08770173742657049  1.0000
  H   H8        1.0  0.5687757154328423  0.1854321533143732  0.9123020322236217  1.0000
  H   H9        1.0  0.1882853037167393  0.6234984305923987  0.023800099472872163  1.0000
  H   H10       1.0  0.8117254024572135  0.37650569748270607  0.9762005316838369  1.0000
  H   H11       1.0  0.2788170486249228  0.5133661582973872  0.9561598459939376  1.0000
  H   H12       1.0  0.7211961770691389  0.48664117253132844  0.043843194845486294  1.0000
  H   H13       1.0  0.04052884955895315  0.5111900098338255  0.1764794244277894  1.0000
  H   H14       1.0  0.959480639540672  0.4888140579787432  0.8235198060561117  1.0000
  H   H15       1.0  0.8849754402700967  0.09602938935259428  0.0366137392073966  1.0000
  H   H16       1.0  0.11503008218383567  0.9039736785499101  0.9633860126680035  1.0000
  H   H17       1.0  0.12616661014686056  0.25963196367423785  0.9370704397531782  1.0000
  H   H18       1.0  0.8738448033999974  0.7403710318371138  0.06292803590098119  1.0000
  H   H19       1.0  0.1842146300013567  0.3443607482332496  0.24903182811862476  1.0000
  H   H20       1.0  0.8157880898895441  0.6556383600771555  0.750971617414848  1.0000
  H   H21       1.0  0.43073375074046544  0.4393361698470457  0.3662917219384667  1.0000
  H   H22       1.0  0.5692626267989523  0.5606733901038581  0.6337139803301142  1.0000
  H   H23       1.0  0.37971168543548833  0.4592602662615732  0.5386549233582869  1.0000
  H   H24       1.0  0.6202814652109296  0.5407472234994798  0.46135052473012916  1.0000
  H   H25       1.0  0.08968742914948538  0.380866584004643  0.5822975962100401  1.0000
  H   H26       1.0  0.9103037062270403  0.6191303436980178  0.4177026900880207  1.0000
  H   H27       1.0  0.3405110184895719  0.09938597180274657  0.3036410132711111  1.0000
  H   H28       1.0  0.659477219711846  0.9006241100008198  0.6963529207396846  1.0000
  H   H29       1.0  0.1075868116329204  0.0293303287563447  0.40594939951927966  1.0000
  H   H30       1.0  0.8924024935118098  0.9706766065132867  0.5940435669654605  1.0000
  H   H31       1.0  0.16982306128426933  0.05954541553427361  0.5789138939436924  1.0000
  H   H32       1.0  0.8301602512061877  0.9404584787559856  0.4210800504597429  1.0000
  H   H33       1.0  0.4614822579704381  0.16413688187457606  0.6531073499429141  1.0000
  H   H34       1.0  0.5385017942727045  0.8358659421358966  0.3468858188888504  1.0000
  C   C1        1.0  0.40109048980747275  0.6006098080785875  0.09502716610791849  1.0000
  C   C2        1.0  0.5989150812161342  0.3993933532498771  0.9049746556637928  1.0000
  C   C3        1.0  0.4681568003474795  0.5134118614962304  0.1347183239185057  1.0000
  C   C4        1.0  0.5318426764605205  0.48658514548233706  0.8652841774693557  1.0000
  C   C5        1.0  0.6178993328234057  0.5690623369468213  0.1941163756948114  1.0000
  C   C6        1.0  0.38209844516663344  0.43093055270828273  0.8058863902658616  1.0000
  C   C7        1.0  0.6988913017519424  0.7127691157053492  0.21461347190727756  1.0000
  C   C8        1.0  0.30111596998432333  0.28722378892025796  0.7853901499542533  1.0000
  C   C9        1.0  0.6308964369597944  0.8009329873460374  0.17694541703145458  1.0000
  C   C10       1.0  0.3691208588360126  0.19906408273695317  0.8230594653816325  1.0000
  C   C11       1.0  0.4822639834158195  0.7442987921232954  0.11683259104288617  1.0000
  C   C12       1.0  0.5177514247345272  0.25570233906348955  0.8831705846407374  1.0000
  C   C13       1.0  0.2455527148169665  0.5432077149227865  0.026642061659551085  1.0000
  C   C14       1.0  0.7544564956617209  0.4567985225698975  0.9733594306750533  1.0000
  C   C15       1.0  0.03136438962508948  0.4196187059414527  0.1257763463405155  1.0000
  C   C16       1.0  0.9686443435319562  0.5803864010089157  0.8742229697496171  1.0000
  C   C17       1.0  0.9542249801205713  0.20660370748863946  0.051015470765698  1.0000
  C   C18       1.0  0.04579061938456162  0.7934065458158059  0.9489837700674927  1.0000
  C   C19       1.0  0.07232985833670108  0.2856325440768472  0.0010446285527762873  1.0000
  C   C20       1.0  0.9276722557426353  0.7143708101678357  0.9989612707857917  1.0000
  C   C21       1.0  0.6976434425245513  0.4751270374219415  0.23122196039591358  1.0000
  C   C22       1.0  0.3023505620692787  0.5248596004144443  0.7687794567684492  1.0000
  C   C23       1.0  0.7152951478795015  0.9555673277932257  0.20395472271976436  1.0000
  C   C24       1.0  0.28472714912551567  0.0444275333819277  0.7960472908448964  1.0000
  C   C25       1.0  0.16661187200315908  0.35549594392912803  0.3232060352084646  1.0000
  C   C26       1.0  0.8333864039204003  0.6445010339288899  0.6767957554720354  1.0000
  C   C27       1.0  0.30482991946838217  0.4093454137350321  0.3898596786396382  1.0000
  C   C28       1.0  0.6951666675104206  0.5906589254492118  0.6101448434065659  1.0000
  C   C29       1.0  0.2761301891210622  0.4190270574670835  0.4839629035222898  1.0000
  C   C30       1.0  0.7238603404439061  0.5809741161698554  0.516039836580866  1.0000
  C   C31       1.0  0.11160755213958139  0.3729830384945387  0.5084674678936736  1.0000
  C   C32       1.0  0.8883812624175319  0.6270139866769496  0.49153484681684745  1.0000
  C   C33       1.0  0.980335944147896  0.31962162060845856  0.4369654782826657  1.0000
  C   C34       1.0  0.01965189515406243  0.6803701858178072  0.5630356354635495  1.0000
  C   C35       1.0  0.8033713898665839  0.26477298313905345  0.452912061752791  1.0000
  C   C36       1.0  0.19661931675797462  0.7352229074472447  0.5470881181971095  1.0000
  C   C37       1.0  0.5645805214659135  0.19045068999611203  0.5196647010678888  1.0000
  C   C38       1.0  0.43541341647364373  0.8095501972986484  0.4803318915720993  1.0000
  C   C39       1.0  0.5314473560048754  0.1717942284765428  0.4212318992094453  1.0000
  C   C40       1.0  0.4685410872139358  0.8282077060417521  0.5787646960690651  1.0000
  C   C41       1.0  0.3660543230585134  0.11216736548645656  0.3789424967432851  1.0000
  C   C42       1.0  0.63393415696207  0.8878375578344162  0.6210516369760128  1.0000
  C   C43       1.0  0.2377144871498444  0.07298781059302678  0.4370631058994405  1.0000
  C   C44       1.0  0.7622720522336195  0.927018153887083  0.562931092684167  1.0000
  C   C45       1.0  0.2722011593078051  0.0918014107618461  0.5347718519619136  1.0000
  C   C46       1.0  0.7277876479033976  0.9082014363048713  0.4652220898029995  1.0000
  C   C47       1.0  0.43603824088026505  0.1506020442775835  0.5778546666950534  1.0000
  C   C48       1.0  0.5639478167595656  0.8493998631415992  0.4221411971341595  1.0000
  N   N1        1.0  0.00744143372113369  0.3128909004990917  0.345282833501976  1.0000
  N   N2        1.0  0.9925560008883922  0.687104034268188  0.6547194344476494  1.0000
  N   N3        1.0  0.6824707689616291  0.21956765922485735  0.38248041770761193  1.0000
  N   N4        1.0  0.3175270340622802  0.7804311146094491  0.617515355238325  1.0000
  N   N5        1.0  0.7380922035883516  0.24997018379938396  0.5369330257500096  1.0000
  N   N6        1.0  0.2618948356233374  0.7500254948573327  0.46306226221604163  1.0000
  N   N7        1.0  0.9300078955433976  0.2914129958291269  0.1286021617983053  1.0000
  N   N8        1.0  0.07000070367251963  0.7085889354667573  0.8713954760584032  1.0000
  N   N9        1.0  0.11971471837527052  0.4205330753906297  0.0495973455417698  1.0000
  N   N10       1.0  0.880292385145374  0.5794709653228267  0.950401153492841  1.0000
  O   O1        1.0  0.6141989535867155  0.34426477206950074  0.211723506103823  1.0000
  O   O2        1.0  0.38578899801527206  0.6557216267381848  0.7882722876273931  1.0000
  O   O3        1.0  0.8421035001038961  0.5276653325774278  0.2756108289942745  1.0000
  O   O4        1.0  0.15788885424166205  0.4723172813614624  0.7243929226392114  1.0000
  O   O5        1.0  0.6368655524347347  0.0315155692188043  0.17461735849662577  1.0000
  O   O6        1.0  0.3631632145461979  0.9684834634780373  0.8253858533938113  1.0000
  O   O7        1.0  0.8532032850767521  0.003915647821173697  0.2542000208395905  1.0000
  O   O8        1.0  0.1468212635661174  0.9960760647986004  0.7458010459409365  1.0000
