data_image0
_chemical_formula_structural       Cd2H30C40N8O10
_chemical_formula_sum              "Cd2 H30 C40 N8 O10"
_cell_length_a       8.712171748339772
_cell_length_b       9.904410371538962
_cell_length_c       12.182864113807113
_cell_angle_alpha    87.80354454351158
_cell_angle_beta     81.75260645774352
_cell_angle_gamma    66.90008809304246

_space_group_name_H-M_alt    "P 1"
_space_group_IT_number       1

loop_
  _space_group_symop_operation_xyz
  'x, y, z'

loop_
  _atom_site_type_symbol
  _atom_site_label
  _atom_site_symmetry_multiplicity
  _atom_site_fract_x
  _atom_site_fract_y
  _atom_site_fract_z
  _atom_site_occupancy
  Cd  Cd1       1.0  0.02552274794631171  0.7776880180337925  0.0630626051510959  1.0000
  Cd  Cd2       1.0  0.9744773042139202  0.2223119693338091  0.9369377905560228  1.0000
  H   H1        1.0  0.6011852016112087  0.23966290606364987  0.89161247603829  1.0000
  H   H2        1.0  0.3988156430338209  0.7603304777653078  0.10838974871720097  1.0000
  H   H3        1.0  0.98504759909153  0.6107742974989349  0.6579011210479705  1.0000
  H   H4        1.0  0.014955263649518736  0.38922462107134237  0.3420981930633218  1.0000
  H   H5        1.0  0.7736564519953218  0.9850628826426087  0.8710368378961562  1.0000
  H   H6        1.0  0.2263452507415948  0.014935993738440298  0.1289609620198959  1.0000
  H   H7        1.0  0.6113028768426431  0.30585634543375306  0.6899425114529905  1.0000
  H   H8        1.0  0.3886983447138306  0.694143706339453  0.3100610383025284  1.0000
  H   H9        1.0  0.33814799326543005  0.22562920185272614  0.9917362533316378  1.0000
  H   H10       1.0  0.6618511538424128  0.7743651818809524  0.008260367949148395  1.0000
  H   H11       1.0  0.10357470896838814  0.3248625951830703  0.71076901850914  1.0000
  H   H12       1.0  0.8964289081422976  0.6751396451294054  0.2892292554200679  1.0000
  H   H13       1.0  0.22558352358615258  0.3867619486852262  0.5425445300090104  1.0000
  H   H14       1.0  0.7744190842031456  0.6132425313297388  0.4574570443333669  1.0000
  H   H15       1.0  0.36052543431389944  0.47989865139697235  0.557423469347917  1.0000
  H   H16       1.0  0.639480498109009  0.5201036621858036  0.4425770130452022  1.0000
  H   H17       1.0  0.7149481058639464  0.0928341283905638  0.350027132158246  1.0000
  H   H18       1.0  0.2850472213416993  0.9071635638429212  0.6499738711315359  1.0000
  H   H19       1.0  0.26750469891916834  0.49708338360997567  0.386484777073278  1.0000
  H   H20       1.0  0.7324959851042577  0.5029177102571933  0.6135146834027907  1.0000
  H   H21       1.0  0.531953913633579  0.3394474775847129  0.06310064373553101  1.0000
  H   H22       1.0  0.4680478125835916  0.6605514543372518  0.936901255813396  1.0000
  H   H23       1.0  0.650869760289126  0.005435648815883102  0.6822789390267799  1.0000
  H   H24       1.0  0.34912786814059155  0.9945620833633483  0.31772181294719093  1.0000
  H   H25       1.0  0.7159119943890956  0.8434898637959091  0.6005037575968686  1.0000
  H   H26       1.0  0.28409023179271026  0.15650793716662287  0.3994956718188973  1.0000
  H   H27       1.0  0.8789500348348935  0.12253811548255558  0.6848162380049841  1.0000
  H   H28       1.0  0.12104449518990631  0.8774661691813889  0.3151821163098488  1.0000
  H   H29       1.0  0.9174760979821314  0.8063443755370159  0.4359750450973293  1.0000
  H   H30       1.0  0.08251946484430309  0.1936577249653624  0.5640241084372164  1.0000
  C   C1        1.0  0.4946054080989057  0.25940040242366535  0.8471437007442688  1.0000
  C   C2        1.0  0.505395035607677  0.7405962720664332  0.15285678956045962  1.0000
  C   C3        1.0  0.9574279346739017  0.6816007855748933  0.7299160710521306  1.0000
  C   C4        1.0  0.04257441401434652  0.31839923063026987  0.2700832534126008  1.0000
  C   C5        1.0  0.8457052367910336  0.8746397283846008  0.8378051116356885  1.0000
  C   C6        1.0  0.15429647064193117  0.12535915910462586  0.1621935082069328  1.0000
  C   C7        1.0  0.4990331043733249  0.29653682689466615  0.7357144791516177  1.0000
  C   C8        1.0  0.5009664384301685  0.7034642692159988  0.2642867468355092  1.0000
  C   C9        1.0  0.3480146808270206  0.25052303891981603  0.903702768177119  1.0000
  C   C10       1.0  0.6519863900467016  0.7494747309616656  0.09629596696997567  1.0000
  C   C11       1.0  0.21788795480213002  0.30756618116620865  0.7463646403015005  1.0000
  C   C12       1.0  0.7821143938861256  0.6924338350389547  0.2536346841632238  1.0000
  C   C13       1.0  0.3568292988183543  0.3231669765691834  0.6840125666912726  1.0000
  C   C14       1.0  0.6431725405131561  0.6768341483790434  0.3159875880534671  1.0000
  C   C15       1.0  0.3485882197593426  0.372755293066433  0.5664854848850566  1.0000
  C   C16       1.0  0.6514132374179267  0.627249166975666  0.4335162151152261  1.0000
  C   C17       1.0  0.4901130739117079  0.2918758170840903  0.3827891201949426  1.0000
  C   C18       1.0  0.5098859548389927  0.708126376661454  0.617212116145616  1.0000
  C   C19       1.0  0.6231794305667717  0.18718929778651727  0.3140352921785023  1.0000
  C   C20       1.0  0.37682011693276984  0.8128118094323252  0.685966753735201  1.0000
  C   C21       1.0  0.3716851813156268  0.4122106139737411  0.3364284194344123  1.0000
  C   C22       1.0  0.6283160120645448  0.5877893711503646  0.6635702107616481  1.0000
  C   C23       1.0  0.6376420439470821  0.20373327568452027  0.19900210864884826  1.0000
  C   C24       1.0  0.36235686229716896  0.7962667028183927  0.8009992326427449  1.0000
  C   C25       1.0  0.5188958456344109  0.324097789132665  0.15225030866478312  1.0000
  C   C26       1.0  0.4811042065258276  0.6759021982349365  0.8477500870423356  1.0000
  C   C27       1.0  0.3857404018716507  0.4270162075948746  0.22063875157292054  1.0000
  C   C28       1.0  0.6142561984524734  0.5729837198541147  0.7793620211079072  1.0000
  C   C29       1.0  0.25611027045154333  0.5559883575958792  0.1725272027208149  1.0000
  C   C30       1.0  0.7438884991981071  0.4440093723398561  0.8274717837420908  1.0000
  C   C31       1.0  0.7786411161515474  0.08985751904788228  0.12492540904343488  1.0000
  C   C32       1.0  0.22135894540078746  0.9101424905360885  0.8750766265168365  1.0000
  C   C33       1.0  0.761369834585196  0.9115250484077173  0.6448632336964408  1.0000
  C   C34       1.0  0.2386295716236971  0.08847379913576957  0.3551356374619914  1.0000
  C   C35       1.0  0.882155248359169  0.9596064374722527  0.5687721181872546  1.0000
  C   C36       1.0  0.1178368626311581  0.0403956031114987  0.4312274123210074  1.0000
  C   C37       1.0  0.9297118562245644  0.06860010337677379  0.6037543793906437  1.0000
  C   C38       1.0  0.07028370660187747  0.9314019971256041  0.39624477414390197  1.0000
  C   C39       1.0  0.9535657262791373  0.8912254204700713  0.4648877374139673  1.0000
  C   C40       1.0  0.0464331799651134  0.10877455803284158  0.5351136038776332  1.0000
  N   N1        1.0  0.9519209717208739  0.766966518251358  0.8906416793024263  1.0000
  N   N2        1.0  0.04808201352662417  0.23303461556155014  0.10935752985783147  1.0000
  N   N3        1.0  0.8443876123531026  0.8248452290623403  0.7358170472574203  1.0000
  N   N4        1.0  0.15561358572311693  0.17515476716994977  0.2641824028652167  1.0000
  N   N5        1.0  0.023476260197071535  0.6436077792615291  0.8226330663933085  1.0000
  N   N6        1.0  0.9765272437992676  0.35639226802468466  0.177366952340094  1.0000
  N   N7        1.0  0.21277293175675988  0.27260010414513397  0.8540000455846268  1.0000
  N   N8        1.0  0.7872271157074239  0.7273998721142829  0.14599953019590828  1.0000
  O   O1        1.0  0.8807238835430835  0.9819438934366855  0.17249068683852184  1.0000
  O   O2        1.0  0.11927439083797961  0.018054978566659895  0.8275115896841285  1.0000
  O   O3        1.0  0.1514137015138957  0.6580898590345184  0.23838235248201298  1.0000
  O   O4        1.0  0.848586350646336  0.3419101283330832  0.7616180432250985  1.0000
  O   O5        1.0  0.2562946331344735  0.5589427910376511  0.06760172605104489  1.0000
  O   O6        1.0  0.7437054096336622  0.441057174113581  0.9323970298029207  1.0000
  O   O7        1.0  0.48291752618846573  0.2651959738566346  0.49491507223753217  1.0000
  O   O8        1.0  0.5170804791526892  0.734808426266845  0.5050870047364668  1.0000
  O   O9        1.0  0.7864754066439089  0.10595777805026069  0.02001992687743128  1.0000
  O   O10       1.0  0.21353131356774926  0.8940379208856866  0.9799815646374838  1.0000
