data_image0
_chemical_formula_structural       Zn2H44C50N8O10
_chemical_formula_sum              "Zn2 H44 C50 N8 O10"
_cell_length_a       8.386720935056744
_cell_length_b       10.887064537198375
_cell_length_c       14.125551876624682
_cell_angle_alpha    83.62291827478697
_cell_angle_beta     72.70524087932027
_cell_angle_gamma    68.00651807118948

_space_group_name_H-M_alt    "P 1"
_space_group_IT_number       1

loop_
  _space_group_symop_operation_xyz
  'x, y, z'

loop_
  _atom_site_type_symbol
  _atom_site_label
  _atom_site_symmetry_multiplicity
  _atom_site_fract_x
  _atom_site_fract_y
  _atom_site_fract_z
  _atom_site_occupancy
  Zn  Zn1       1.0  0.9367904904675229  0.7499436591058455  0.12686613365462304  1.0000
  Zn  Zn2       1.0  0.06321001576883144  0.2500549110356545  0.8731328731826904  1.0000
  H   H1        1.0  0.8047386923701296  0.4846351011005795  0.9641528830968511  1.0000
  H   H2        1.0  0.2313335506460139  0.0152001293200428  0.9638041435855907  1.0000
  H   H3        1.0  0.1952636584897931  0.5153624696916665  0.035847263472220385  1.0000
  H   H4        1.0  0.7686670415108381  0.9848004167638182  0.036195078610290844  1.0000
  H   H5        1.0  0.6634597723491568  0.6426230206083545  0.9394862632732451  1.0000
  H   H6        1.0  0.39757261998403276  0.8572713388469779  0.9390866631188782  1.0000
  H   H7        1.0  0.3365410676581675  0.3573755460299354  0.06051366826540771  1.0000
  H   H8        1.0  0.6024276384018492  0.142729210740093  0.06091163437566389  1.0000
  H   H9        1.0  0.40848924541855774  0.6082376698262524  0.07979979719008412  1.0000
  H   H10       1.0  0.5111614687628645  0.8918399052294887  0.07981853151745363  1.0000
  H   H11       1.0  0.5915136663392179  0.39176088631221967  0.9202005646281675  1.0000
  H   H12       1.0  0.48884005262513625  0.10816162795710228  0.9201792716647359  1.0000
  H   H13       1.0  0.5543272164383239  0.4459860961803486  0.09529768773602851  1.0000
  H   H14       1.0  0.3497155883902395  0.054050145683866915  0.0951321063888173  1.0000
  H   H15       1.0  0.4456760290904216  0.5540124564549201  0.9047035987835697  1.0000
  H   H16       1.0  0.6502860742041536  0.9459504004097996  0.9048647719826446  1.0000
  H   H17       1.0  0.2482048635638491  0.67026477859595  0.24936887319991993  1.0000
  H   H18       1.0  0.5031259925598164  0.8294809480464526  0.24948631675162145  1.0000
  H   H19       1.0  0.7517906558609514  0.3297348013848164  0.7506309074504427  1.0000
  H   H20       1.0  0.4968758625991474  0.1705205816369357  0.7505124111319005  1.0000
  H   H21       1.0  0.8862189379847862  0.4952397852147498  0.23206691746576508  1.0000
  H   H22       1.0  0.881875154580179  0.005064896418296899  0.23204822604801478  1.0000
  H   H23       1.0  0.11378497901363023  0.5047538266961666  0.7679323039644428  1.0000
  H   H24       1.0  0.11812856592592878  0.9949326656208368  0.7679530603621953  1.0000
  H   H25       1.0  0.09126892597153342  0.3404260492619074  0.35776817139431216  1.0000
  H   H26       1.0  0.5507595724628372  0.15984035055262782  0.35769718550365326  1.0000
  H   H27       1.0  0.9087339857862424  0.6595725068765715  0.6422321904239395  1.0000
  H   H28       1.0  0.4492443544465841  0.8401611686309423  0.6423019726594745  1.0000
  H   H29       1.0  0.548675738145235  0.48349699630220755  0.25595625587688886  1.0000
  H   H30       1.0  0.19579545035178117  0.016452744988633607  0.25588689550023247  1.0000
  H   H31       1.0  0.45132510186209657  0.5165015703360822  0.7440436756617641  1.0000
  H   H32       1.0  0.8042039647234493  0.983548793438068  0.7441130363665706  1.0000
  H   H33       1.0  0.779923539706978  0.3679125404528564  0.34246583478433473  1.0000
  H   H34       1.0  0.8778620122465597  0.13185486317164677  0.34244191272460967  1.0000
  H   H35       1.0  0.22007603729823436  0.6320850425859135  0.6575345910666709  1.0000
  H   H36       1.0  0.12213930273813389  0.868142712870508  0.6575580187046624  1.0000
  H   H37       1.0  0.38554651461024037  0.2978189422746027  0.5949672581053916  1.0000
  H   H38       1.0  0.019054526416930243  0.20199761600424893  0.5950628864635943  1.0000
  H   H39       1.0  0.6144476006060419  0.7021806411995685  0.4050339416680514  1.0000
  H   H40       1.0  0.9809416191026372  0.7980078935601044  0.4049359059995935  1.0000
  H   H41       1.0  0.15283158621099371  0.40239541337299306  0.5047557939918119  1.0000
  H   H42       1.0  0.3421519542281076  0.09761534293745912  0.5048086999891196  1.0000
  H   H43       1.0  0.8471648624449558  0.5976051537105037  0.4952425676448583  1.0000
  H   H44       1.0  0.657843908878661  0.9023921408127505  0.4951919420955092  1.0000
  C   C1        1.0  0.7358882536009405  0.6253913029767803  0.07417799813459423  1.0000
  C   C2        1.0  0.19010465754459444  0.8744345426666628  0.07376698304018697  1.0000
  C   C3        1.0  0.2641138494085027  0.3746082472610368  0.9258214390917059  1.0000
  C   C4        1.0  0.8098939487822963  0.12556798985937692  0.9262320242346572  1.0000
  C   C5        1.0  0.6845345438298767  0.5688044504880096  0.9989313330566456  1.0000
  C   C6        1.0  0.316766218686354  0.9310769132002009  0.9985734003378466  1.0000
  C   C7        1.0  0.31546710492578006  0.43119312205094223  0.0010695230739657072  1.0000
  C   C8        1.0  0.6832326354910094  0.0689236398802748  0.00142631627976896  1.0000
  C   C9        1.0  0.5244049511067532  0.5250165605616032  0.040219248171283105  1.0000
  C   C10       1.0  0.43520138896798943  0.9749946259859855  0.04009721148574391  1.0000
  C   C11       1.0  0.4755984356283918  0.47498100498073365  0.9597811135375947  1.0000
  C   C12       1.0  0.5648009411683432  0.0250059131012677  0.9599015162883971  1.0000
  C   C13       1.0  0.1782955415369828  0.6014358521827391  0.26019702400983385  1.0000
  C   C14       1.0  0.5619637909658197  0.8984962456983822  0.260258182548931  1.0000
  C   C15       1.0  0.821702751742528  0.3985637155515035  0.7398024773586015  1.0000
  C   C16       1.0  0.43803665998463276  0.1015052874784104  0.7397419644576713  1.0000
  C   C17       1.0  0.9916918223764885  0.5063711949494872  0.25588951370053786  1.0000
  C   C18       1.0  0.7526475157045952  0.9938098972468268  0.25589920650342884  1.0000
  C   C19       1.0  0.008307527501827576  0.4936253992398463  0.74411162160262  1.0000
  C   C20       1.0  0.2473546939489212  0.006188660638351  0.7441018648763701  1.0000
  C   C21       1.0  0.08915490543125766  0.4317164185530019  0.3180778861839144  1.0000
  C   C22       1.0  0.5928311976582139  0.06844706502594988  0.3180609741042843  1.0000
  C   C23       1.0  0.9108474454286584  0.5682811522392441  0.6819222603851569  1.0000
  C   C24       1.0  0.40717076414482994  0.9315534723047919  0.6819393879327362  1.0000
  C   C25       1.0  0.33862382775407684  0.4424559141661036  0.37328310655207986  1.0000
  C   C26       1.0  0.2881815968169121  0.057480952672897  0.37330251874855935  1.0000
  C   C27       1.0  0.6613741831126277  0.5575456277539957  0.6267182444377966  1.0000
  C   C28       1.0  0.7118175704078387  0.9425225651993684  0.6266967037754653  1.0000
  C   C29       1.0  0.5133531713487546  0.43799630390832783  0.32837836529313336  1.0000
  C   C30       1.0  0.15851522004938814  0.06188277555202859  0.3283501898496225  1.0000
  C   C31       1.0  0.4866448395179575  0.5620052380117713  0.6716229856967428  1.0000
  C   C32       1.0  0.8414845287968051  0.9381187593714628  0.6716506667185127  1.0000
  C   C33       1.0  0.6430126071958927  0.3742441419555504  0.37801289335804705  1.0000
  C   C34       1.0  0.9791147985290963  0.12556140767057403  0.3780068271178577  1.0000
  C   C35       1.0  0.35698658075244777  0.6257564076217152  0.6219877479609079  1.0000
  C   C36       1.0  0.020884616546127076  0.8744401307561275  0.621993104748938  1.0000
  C   C37       1.0  0.6003116786543785  0.3187607494353557  0.47256877731444985  1.0000
  C   C38       1.0  0.9269897099758638  0.18102871159538134  0.4726001219884991  1.0000
  C   C39       1.0  0.3996849625661418  0.6812408012378625  0.5274314338342804  1.0000
  C   C40       1.0  0.07300993222625629  0.8189738156807492  0.5273991004261376  1.0000
  C   C41       1.0  0.42097628980020835  0.33391041910487473  0.5193530541068013  1.0000
  C   C42       1.0  0.05942461912482608  0.16592608008908635  0.5194195147622265  1.0000
  C   C43       1.0  0.5790186134408233  0.6660911385649514  0.4806476514636627  1.0000
  C   C44       1.0  0.9405735981451926  0.8340794189754492  0.4805797079805599  1.0000
  C   C45       1.0  0.2911313968386651  0.3935730465721008  0.4694414745592467  1.0000
  C   C46       1.0  0.23929136540247242  0.10635607699139632  0.4694881475524467  1.0000
  C   C47       1.0  0.7088652443818547  0.6064285041011105  0.5305587365894837  1.0000
  C   C48       1.0  0.7607083627201378  0.8936484262270953  0.5305112902207653  1.0000
  C   C49       1.0  0.7359926207419748  0.24988371283862418  0.5277265244906103  1.0000
  C   C50       1.0  0.26400505635377397  0.7501178325846852  0.4722739017979264  1.0000
  N   N1        1.0  0.04749867095031151  0.61169911784188  0.22133421711621537  1.0000
  N   N2        1.0  0.7316503427704079  0.8883253494986649  0.22139177455143505  1.0000
  N   N3        1.0  0.9524995364087023  0.3882984739500018  0.7786650688936516  1.0000
  N   N4        1.0  0.26835139190574614  0.11167419898264802  0.7786092969377449  1.0000
  N   N5        1.0  0.20725208269328016  0.492637496344507  0.3203308426293319  1.0000
  N   N6        1.0  0.4726196754239071  0.007364054608785903  0.32035068558121077  1.0000
  N   N7        1.0  0.7927472464614597  0.5073620661398338  0.6796688738788959  1.0000
  N   N8        1.0  0.5273814776308045  0.9926374768213009  0.6796487518638512  1.0000
  O   O1        1.0  0.8575383362291686  0.6772375307295349  0.035705827369902514  1.0000
  O   O2        1.0  0.10739575235553636  0.8221944789062477  0.0352899872731314  1.0000
  O   O3        1.0  0.1424620288007932  0.3227620265048969  0.9642941042781316  1.0000
  O   O4        1.0  0.8926078615064984  0.1778040754855255  0.9647096649835871  1.0000
  O   O5        1.0  0.6657349664719022  0.6195650655845668  0.16570523384879715  1.0000
  O   O6        1.0  0.16823490050116177  0.880594511395053  0.1652981361983663  1.0000
  O   O7        1.0  0.3342671365375411  0.38043448465325014  0.8342942033775029  1.0000
  O   O8        1.0  0.8317570462315944  0.11941398220422172  0.8347009358748989  1.0000
  O   O9        1.0  0.6899976095327961  0.24985473783446824  0.6195180700155163  1.0000
  O   O10       1.0  0.31000093159719466  0.7501428504542106  0.3804821406956832  1.0000
