data_image0
_chemical_formula_structural       Al6H44C84N6O28
_chemical_formula_sum              "Al6 H44 C84 N6 O28"
_cell_length_a       13.529421162017345
_cell_length_b       13.502358929312159
_cell_length_c       28.29743957000459
_cell_angle_alpha    90.44458361480233
_cell_angle_beta     90.3026650357318
_cell_angle_gamma    60.047349520470696

_space_group_name_H-M_alt    "P 1"
_space_group_IT_number       1

loop_
  _space_group_symop_operation_xyz
  'x, y, z'

loop_
  _atom_site_type_symbol
  _atom_site_label
  _atom_site_symmetry_multiplicity
  _atom_site_fract_x
  _atom_site_fract_y
  _atom_site_fract_z
  _atom_site_occupancy
  Al  Al1       1.0  0.24692263990773708  0.23571882419577148  0.5039643898588224  1.0000
  Al  Al2       1.0  0.4776382527841605  0.24797473846106036  0.5018317164189625  1.0000
  Al  Al3       1.0  0.2557420039455849  0.46882530501713404  0.5020174408281761  1.0000
  Al  Al4       1.0  0.752016382401642  0.4821644557935516  0.0017638214200772005  1.0000
  Al  Al5       1.0  0.5215469325171611  0.726395171687734  0.0016555766019194999  1.0000
  Al  Al6       1.0  0.7443060051856137  0.723632366813035  0.0021563893953810997  1.0000
  H   H1        1.0  0.3332349109293773  0.6895265829116255  0.7713747632676589  1.0000
  H   H2        1.0  0.4707371646255751  0.8812419728136193  0.2907603795923706  1.0000
  H   H3        1.0  0.8918745678711842  0.6629600889474074  0.2919452297110112  1.0000
  H   H4        1.0  0.6551923421463072  0.4578849568011875  0.2934502488224098  1.0000
  H   H5        1.0  0.4858290664136433  0.6803326641960368  0.7009566334269692  1.0000
  H   H6        1.0  0.8422377327255575  0.4778798510638465  0.7051684623348748  1.0000
  H   H7        1.0  0.6911303481362198  0.837877737061298  0.7094042553135439  1.0000
  H   H8        1.0  0.5148862085213395  0.16628270764916647  0.20095925445161103  1.0000
  H   H9        1.0  0.15592642839689566  0.3136703154568891  0.20580230036440383  1.0000
  H   H10       1.0  0.3071068665742658  0.5310499938671284  0.20954585496067318  1.0000
  H   H11       1.0  0.24285150888682236  0.5607448512868698  0.7500176246766159  1.0000
  H   H12       1.0  0.9993914274912042  0.33256069430376567  0.7747109980444975  1.0000
  H   H13       1.0  0.3074516999028702  0.43499726848237685  0.7208903782372647  1.0000
  H   H14       1.0  0.25020186139880707  0.3016134484842325  0.7509947778362404  1.0000
  H   H15       1.0  0.2032897181598514  0.3084211460728738  0.6959984299760719  1.0000
  H   H16       1.0  0.48663892990682456  0.23618717280763235  0.7625944475129742  1.0000
  H   H17       1.0  0.5170338894826614  0.20025129328052307  0.7060731537691183  1.0000
  H   H18       1.0  0.7554789994042821  0.8018352561099106  0.2523325718450593  1.0000
  H   H19       1.0  0.6920807516507138  0.7438852704899263  0.2204461989578874  1.0000
  H   H20       1.0  0.7477869041681656  0.5536294022093528  0.2507769541312896  1.0000
  H   H21       1.0  0.7946463492352649  0.5115139621059581  0.1959638260227479  1.0000
  H   H22       1.0  0.5126308751170398  0.7236265233860804  0.2625496338762048  1.0000
  H   H23       1.0  0.6826599730809448  0.9862319634024382  0.7830750048683087  1.0000
  H   H24       1.0  0.4835165545616463  0.7170030903431267  0.2058992477646413  1.0000
  H   H25       1.0  0.6786514618383704  0.34260302731455977  0.7190459236064869  1.0000
  H   H26       1.0  0.952109115967012  0.7012171600281645  0.7227168415303283  1.0000
  H   H27       1.0  0.3545685332327011  0.9640922156376772  0.7199315911456098  1.0000
  H   H28       1.0  0.3220526090245812  0.021405301886645113  0.21833814092616421  1.0000
  H   H29       1.0  0.05154419922851619  0.6459945643060648  0.2222888841673694  1.0000
  H   H30       1.0  0.6435954013250509  0.31925094855612435  0.21987435699224284  1.0000
  H   H31       1.0  0.6730355324835954  0.537211580684044  0.7605197531853563  1.0000
  H   H32       1.0  0.7815770184531488  0.6682150753814536  0.766154324870854  1.0000
  H   H33       1.0  0.5493725855842158  0.7829848264031154  0.7640187804863672  1.0000
  H   H34       1.0  0.6663974135303972  0.02350173825612954  0.2721170904508057  1.0000
  H   H35       1.0  0.3268251579241833  0.21095308360165183  0.2597328149643374  1.0000
  H   H36       1.0  0.2196770807860204  0.4417509070270357  0.2663523470335321  1.0000
  H   H37       1.0  0.4489229058430197  0.3336140684588285  0.2639494928628352  1.0000
  H   H38       1.0  0.9971709670979082  0.329722991004864  0.2752453327907816  1.0000
  H   H39       1.0  0.3171465303858767  0.6699235169944869  0.2832922501730479  1.0000
  H   H40       1.0  0.5286885590765777  0.35158123395685686  0.7906827895217603  1.0000
  H   H41       1.0  0.1105934664819159  0.5554920682845078  0.7924250524641678  1.0000
  H   H42       1.0  0.34451358644317037  0.11374737569698828  0.793404159951784  1.0000
  H   H43       1.0  0.13491708877671016  0.15930251206112434  0.477550750554208  1.0000
  H   H44       1.0  0.8405589640737288  0.29630299561097206  0.031991954835739  1.0000
  C   C1        1.0  0.12249919716094838  0.43940213413815593  0.568407627340541  1.0000
  C   C2        1.0  0.5012129643900708  0.9981704394321654  0.1974531519218914  1.0000
  C   C3        1.0  0.0045589781522963  0.5043848940165956  0.2009578939423236  1.0000
  C   C4        1.0  0.4925342103501436  0.5066667090016139  0.2039012687701316  1.0000
  C   C5        1.0  0.5178334734731606  0.4239015131480884  0.7694688199502195  1.0000
  C   C6        1.0  0.0513343909090693  0.5388282806168264  0.7721016228477637  1.0000
  C   C7        1.0  0.42123874061882555  0.05267755493000691  0.774168806699585  1.0000
  C   C8        1.0  0.4819142534339846  0.9424637894541235  0.2695415799451624  1.0000
  C   C9        1.0  0.9501133754347889  0.5862527907068937  0.2718444485390421  1.0000
  C   C10       1.0  0.5781640319175025  0.47402536345821733  0.2742300192988978  1.0000
  C   C11       1.0  0.4104140523693188  0.5062908124622112  0.7378690708997483  1.0000
  C   C12       1.0  0.45045950705680576  0.11602097708605189  0.5689870163970241  1.0000
  C   C13       1.0  0.0855731849500643  0.43239375114860207  0.7393898699202809  1.0000
  C   C14       1.0  0.5002700144182411  0.08329451548909375  0.7449045162553319  1.0000
  C   C15       1.0  0.589747298161157  0.9172226284746255  0.2382393308365209  1.0000
  C   C16       1.0  0.9139770535327685  0.5152002927810241  0.239349494453144  1.0000
  C   C17       1.0  0.49916720901453004  0.5840827307181654  0.245036436263419  1.0000
  C   C18       1.0  0.52292149071031  0.5459199819665626  0.8419642677657251  1.0000
  C   C19       1.0  0.9353271502237418  0.5286875819989871  0.84521272096503  1.0000
  C   C20       1.0  0.5391621990041671  0.9277020354762656  0.8477422224967485  1.0000
  C   C21       1.0  0.4752604058454395  0.07056974163224772  0.3419043443581131  1.0000
  C   C22       1.0  0.0640642638477189  0.46062560220394727  0.3454275821717374  1.0000
  C   C23       1.0  0.4346421551271931  0.43175445573582744  0.5653786286763207  1.0000
  C   C24       1.0  0.46069806434795874  0.46685707267376125  0.3477814537581949  1.0000
  C   C25       1.0  0.486233200184877  0.4798689024672456  0.6494104575345645  1.0000
  C   C26       1.0  0.025799907739262596  0.5002235502609621  0.6526841708111277  1.0000
  C   C27       1.0  0.4935046162895701  0.030292343945745995  0.6555955928481795  1.0000
  C   C28       1.0  0.5151524184350578  0.9655130355736925  0.14954377451427803  1.0000
  C   C29       1.0  0.9748850268557376  0.5204950028596539  0.1526293782108183  1.0000
  C   C30       1.0  0.5050492803585411  0.5250896331575632  0.1557046655300454  1.0000
  C   C31       1.0  0.12704060692968264  0.4327011589151367  0.4352430492762878  1.0000
  C   C32       1.0  0.4391226070520062  0.12485160576887461  0.432879501073991  1.0000
  C   C33       1.0  0.4336155031321455  0.4244379148354297  0.4363369567643788  1.0000
  C   C34       1.0  0.8782808351834605  0.5590492873815402  0.0680948267526844  1.0000
  C   C35       1.0  0.8708264679443614  0.5601193408347881  0.9347135613094154  1.0000
  C   C36       1.0  0.5571737921473812  0.5652953047111565  0.9330253713012554  1.0000
  C   C37       1.0  0.5672559813904384  0.8582011467524635  0.9363232991280555  1.0000
  C   C38       1.0  0.4950214384592257  0.6073862090426799  0.7210790805414575  1.0000
  C   C39       1.0  0.9016257895607964  0.4948699169370982  0.7251686411104856  1.0000
  C   C40       1.0  0.6146458357549632  0.898875691847074  0.7286850214836207  1.0000
  C   C41       1.0  0.5054766088630842  0.10269993936208258  0.2210947597710131  1.0000
  C   C42       1.0  0.09741732111835688  0.39077147337230395  0.22554268028564192  1.0000
  C   C43       1.0  0.3839560351781229  0.5150503348853163  0.2287724829726301  1.0000
  C   C44       1.0  0.41037111271334936  0.6125193948403833  0.7595268359336914  1.0000
  C   C45       1.0  0.549069192433393  0.5670746515944811  0.0691405923462156  1.0000
  C   C46       1.0  0.9895090676861785  0.41387149207758955  0.7626740321095369  1.0000
  C   C47       1.0  0.6098498761951346  0.9815730026544288  0.7686555175987168  1.0000
  C   C48       1.0  0.5894494342604303  0.023566909486454738  0.259947856693806  1.0000
  C   C49       1.0  0.0086495723070499  0.40002725462585437  0.2630183782715818  1.0000
  C   C50       1.0  0.3895855930512652  0.5923510914449821  0.2688211821792379  1.0000
  C   C51       1.0  0.5325584458982036  0.5530095101764231  0.884548774581937  1.0000
  C   C52       1.0  0.9145876720217386  0.5399164024293055  0.8873837023764678  1.0000
  C   C53       1.0  0.5463879058499757  0.9056427189959136  0.8897664956285141  1.0000
  C   C54       1.0  0.46454390873817897  0.0878657890095268  0.384428080940971  1.0000
  C   C55       1.0  0.0839903605325887  0.453209691674182  0.3876913475939432  1.0000
  C   C56       1.0  0.5650993467516443  0.8662333752155147  0.0654392249142148  1.0000
  C   C57       1.0  0.453872887213059  0.45150270412114657  0.38976697113265146  1.0000
  C   C58       1.0  0.4667924853402781  0.46125607472640695  0.609089931185416  1.0000
  C   C59       1.0  0.062210160083161284  0.4778677547029915  0.6124032280131075  1.0000
  C   C60       1.0  0.4802238804649973  0.06320831859957826  0.614821379129701  1.0000
  C   C61       1.0  0.5339598639434016  0.9276411978107573  0.10922928327563851  1.0000
  C   C62       1.0  0.9385812495566342  0.5352368343620808  0.112272523131864  1.0000
  C   C63       1.0  0.5185190916751309  0.544818061914256  0.1149829277768575  1.0000
  C   C64       1.0  0.5988366974450442  0.527562862627384  0.7532303538765959  1.0000
  C   C65       1.0  0.8683547285075478  0.6011304584875389  0.7576477463636309  1.0000
  C   C66       1.0  0.5352516466313801  0.8688931159463208  0.7578030597620398  1.0000
  C   C67       1.0  0.49996730974938686  0.4984679807532401  0.697330486574394  1.0000
  C   C68       1.0  0.4011707786043671  0.12697560260307478  0.2528115027460203  1.0000
  C   C69       1.0  0.1324304801287255  0.4628075296891366  0.2578012946118946  1.0000
  C   C70       1.0  0.46331327405171396  0.40525121946471643  0.2577815186882546  1.0000
  C   C71       1.0  0.5134472120096304  0.532982577034737  0.792809247664387  1.0000
  C   C72       1.0  0.9569828321252344  0.5200351472807722  0.7961338904971527  1.0000
  C   C73       1.0  0.5299510329747719  0.9523181639706447  0.7989136426145508  1.0000
  C   C74       1.0  0.48578298645127654  0.04751295458630264  0.29279530261073466  1.0000
  C   C75       1.0  0.0430179119875334  0.47261771952709347  0.2962543478622095  1.0000
  C   C76       1.0  0.4694465051471682  0.48272205024175446  0.2989659583386626  1.0000
  C   C77       1.0  0.6019470831945952  0.4197195754863257  0.7310165577624801  1.0000
  C   C78       1.0  0.9959398519437028  0.5137850352451635  0.7009587836146948  1.0000
  C   C79       1.0  0.9628306310459749  0.6195523058265022  0.7346213536758981  1.0000
  C   C80       1.0  0.4270526026077235  0.9692256409781587  0.7342996248290133  1.0000
  C   C81       1.0  0.398483052382808  0.02195437637766409  0.2306884717441662  1.0000
  C   C82       1.0  0.03936546832037641  0.5761468863629345  0.2344119279293935  1.0000
  C   C83       1.0  0.5715323842959279  0.39697041643777425  0.2342956764866742  1.0000
  C   C84       1.0  0.5060628672223544  0.9994630411383266  0.7038118304331178  1.0000
  N   N1        1.0  0.30828195072818687  0.5088619367980344  0.7283744082256192  1.0000
  N   N2        1.0  0.1987224913909671  0.3552396929062238  0.725265188618323  1.0000
  N   N3        1.0  0.4727322241351785  0.1967474654387117  0.7345445748629656  1.0000
  N   N4        1.0  0.6922901386124636  0.8176381851057071  0.2288794559251386  1.0000
  N   N5        1.0  0.800440188593889  0.5533887499812307  0.22510143993601872  1.0000
  N   N6        1.0  0.5270711137115853  0.6697336722042945  0.2346688538696142  1.0000
  O   O1        1.0  0.35622502329367467  0.13606291632370224  0.5516567150651568  1.0000
  O   O2        1.0  0.846940135907829  0.4897384046834076  0.0543263067121345  1.0000
  O   O3        1.0  0.47770914942785936  0.6630574182546379  0.04981469011943321  1.0000
  O   O4        1.0  0.6648426802983635  0.8351506902458964  0.0493481081944864  1.0000
  O   O5        1.0  0.34240584543676517  0.14847140390203611  0.4483218194089318  1.0000
  O   O6        1.0  0.5060537298788289  0.3264175719268961  0.4527596701552029  1.0000
  O   O7        1.0  0.15234178645411586  0.5061450029283563  0.4523819281707304  1.0000
  O   O8        1.0  0.652367608819226  0.49065891356157443  0.9493010056258627  1.0000
  O   O9        1.0  0.4940150071803728  0.8345976346467407  0.9533258079557426  1.0000
  O   O10       1.0  0.8504354579464105  0.6556072613251014  0.9539209731524779  1.0000
  O   O11       1.0  0.1409960365231839  0.34363256033458356  0.4555572806606989  1.0000
  O   O12       1.0  0.5064538927727611  0.3367196709785957  0.5458183867806099  1.0000
  O   O13       1.0  0.5163133094372299  0.13465637091204027  0.45619805931723795  1.0000
  O   O14       1.0  0.3419087577394677  0.4979852421684257  0.45695610965398714  1.0000
  O   O15       1.0  0.8517985083485655  0.4862708561677137  0.9528884844322719  1.0000
  O   O16       1.0  0.48101337974410535  0.6544816058900765  0.9555351293368446  1.0000
  O   O17       1.0  0.6603545070233068  0.8379282245265567  0.9564526212935293  1.0000
  O   O18       1.0  0.3274044463689592  0.3181880517155589  0.5021774408767357  1.0000
  O   O19       1.0  0.6717798600576684  0.6455007900601328  0.0020399263426398  1.0000
  O   O20       1.0  0.13988629186427906  0.512046866789653  0.5457538857710205  1.0000
  O   O21       1.0  0.6443416212323995  0.4930197762513303  0.0526329996916246  1.0000
  O   O22       1.0  0.4930672192009523  0.8425118431274753  0.0464470184530512  1.0000
  O   O23       1.0  0.8577837878479143  0.6521083343482984  0.0472436214587688  1.0000
  O   O24       1.0  0.1565810385903603  0.33711765493197265  0.556395195830369  1.0000
  O   O25       1.0  0.5215509422966633  0.14195019682997395  0.5504058358374593  1.0000
  O   O26       1.0  0.33414423600060417  0.5003981223183018  0.5497404880969938  1.0000
  O   O27       1.0  0.17653622467177849  0.15679353459007217  0.5058041753572766  1.0000
  O   O28       1.0  0.8234798010195946  0.3327065764591735  0.001443130447349  1.0000
