data_image0
_chemical_formula_structural       Ce2H24C24N6O18
_chemical_formula_sum              "Ce2 H24 C24 N6 O18"
_cell_length_a       8.618660165296195
_cell_length_b       9.133127416334101
_cell_length_c       10.555460672709787
_cell_angle_alpha    98.7271616599158
_cell_angle_beta     97.63521514741134
_cell_angle_gamma    117.11647911535125

_space_group_name_H-M_alt    "P 1"
_space_group_IT_number       1

loop_
  _space_group_symop_operation_xyz
  'x, y, z'

loop_
  _atom_site_type_symbol
  _atom_site_label
  _atom_site_symmetry_multiplicity
  _atom_site_fract_x
  _atom_site_fract_y
  _atom_site_fract_z
  _atom_site_occupancy
  Ce  Ce1       1.0  0.26596720103121646  0.1574599185664169  0.9700174696315853  1.0000
  Ce  Ce2       1.0  0.7340350594156817  0.8425417106323893  0.029981566392372358  1.0000
  H   H1        1.0  0.45153452807477373  0.8606580144535768  0.31130689307135373  1.0000
  H   H2        1.0  0.5484653704689748  0.13934361797540618  0.6886956675895843  1.0000
  H   H3        1.0  0.4153820333352627  0.020524116717744796  0.25630649722423016  1.0000
  H   H4        1.0  0.5846105920548935  0.9794724645066137  0.7436917478663287  1.0000
  H   H5        1.0  0.280220434537739  0.7634324366341544  0.08414126401050474  1.0000
  H   H6        1.0  0.7197632467184647  0.23656037041427413  0.9158507489515485  1.0000
  H   H7        1.0  0.15550725182308875  0.6375356503774583  0.18460938030550977  1.0000
  H   H8        1.0  0.844476877810713  0.36246729132841427  0.8154010528907417  1.0000
  H   H9        1.0  0.1901252114356707  0.2861055973638073  0.6720687706467172  1.0000
  H   H10       1.0  0.8098743367321787  0.7138998489683386  0.3279304566729876  1.0000
  H   H11       1.0  0.22204805361509014  0.32496119021711667  0.5136916000075968  1.0000
  H   H12       1.0  0.7779531275708819  0.6750315550758542  0.4863071078018278  1.0000
  H   H13       1.0  0.5577069595502948  0.40404158938723356  0.6050302066801548  1.0000
  H   H14       1.0  0.44229233993231526  0.5959587853271414  0.3949635967652794  1.0000
  H   H15       1.0  0.4857301707858781  0.5517468968472059  0.6441009955941721  1.0000
  H   H16       1.0  0.5142663123078179  0.44825727677204696  0.3559090906790202  1.0000
  H   H17       1.0  0.9682132703653394  0.5929834085912233  0.5671926580886504  1.0000
  H   H18       1.0  0.03178302528421986  0.4070157041328882  0.43280253870321406  1.0000
  H   H19       1.0  0.9976312644799709  0.7468987847862109  0.7067907233818784  1.0000
  H   H20       1.0  0.002368875407327733  0.25309650061138467  0.2932100922813986  1.0000
  H   H21       1.0  0.11891236189764966  0.5517319182664837  0.7596590391365294  1.0000
  H   H22       1.0  0.8810898924251377  0.448269709860064  0.24034094344813883  1.0000
  H   H23       1.0  0.2678199915598396  0.623563282986019  0.6567358908858336  1.0000
  H   H24       1.0  0.7321666310707329  0.3764193577531644  0.3432560789042326  1.0000
  C   C1        1.0  0.22048761241647707  0.8068056194635745  0.4685314575525793  1.0000
  C   C2        1.0  0.7795096755388826  0.1931909445778146  0.5314692038710759  1.0000
  C   C3        1.0  0.29974450528714414  0.09102209401253698  0.4381841745183122  1.0000
  C   C4        1.0  0.7002601832264759  0.9089820575784981  0.5618230411325127  1.0000
  C   C5        1.0  0.1628396038030218  0.9975174587705451  0.6206716837415696  1.0000
  C   C6        1.0  0.8371684156247383  0.0024816227910307003  0.3793191417152712  1.0000
  C   C7        1.0  0.3511862277668882  0.8987052078670387  0.28222987618610756  1.0000
  C   C8        1.0  0.648809376959882  0.10129263105853428  0.7177707618008495  1.0000
  C   C9        1.0  0.20973213471562252  0.7630696385413813  0.1636355282776164  1.0000
  C   C10       1.0  0.7902610051997672  0.23692567155839578  0.8363626094467161  1.0000
  C   C11       1.0  0.055785600922590224  0.7942607797908893  0.11833268287942639  1.0000
  C   C12       1.0  0.9442268470685137  0.20575605026827049  0.8816694727801103  1.0000
  C   C13       1.0  0.27270742217400107  0.293500438038329  0.6003511846757161  1.0000
  C   C14       1.0  0.7272971634313806  0.7065011814967407  0.39965000607550377  1.0000
  C   C15       1.0  0.4676751122848088  0.42924875150970365  0.6584273339218852  1.0000
  C   C16       1.0  0.5323320839089689  0.5707579364129528  0.3415757560666177  1.0000
  C   C17       1.0  0.5378045239112765  0.4525694589820047  0.8035419204259849  1.0000
  C   C18       1.0  0.46218410170322943  0.5474080876085309  0.19645813894555883  1.0000
  C   C19       1.0  0.06755485767860835  0.7053578120885502  0.6431289518196406  1.0000
  C   C20       1.0  0.9324421693432826  0.29463367819054304  0.3568681788511653  1.0000
  C   C21       1.0  0.19602899769716228  0.6622085006984547  0.7207656012250749  1.0000
  C   C22       1.0  0.803967678948844  0.3377868034838087  0.27922819610449057  1.0000
  C   C23       1.0  0.3345910571163628  0.8028184072649011  0.8362566087139242  1.0000
  C   C24       1.0  0.6654082791109062  0.1971819738830476  0.16373151536726732  1.0000
  N   N1        1.0  0.28350605905858134  0.9310112659414643  0.3989116334522149  1.0000
  N   N2        1.0  0.7165009852340773  0.0689928813471283  0.6010930041223401  1.0000
  N   N3        1.0  0.2472543263270879  0.12119813982072707  0.554515454086811  1.0000
  N   N4        1.0  0.7527489141773884  0.878800938550839  0.44549093969035874  1.0000
  N   N5        1.0  0.15614729892273974  0.8432691928941338  0.5768044395302422  1.0000
  N   N6        1.0  0.8438494622591647  0.15672864012731216  0.4231982223810531  1.0000
  O   O1        1.0  0.21970598016977055  0.6713684750145603  0.4353989721605628  1.0000
  O   O2        1.0  0.7802872099560858  0.32863826124020784  0.564599708510755  1.0000
  O   O3        1.0  0.35911770180827324  0.19999645108382677  0.3765193007039612  1.0000
  O   O4        1.0  0.640894284355376  0.8000127560008821  0.6234884442744215  1.0000
  O   O5        1.0  0.0962654246386734  0.022916997181454197  0.7127760185283447  1.0000
  O   O6        1.0  0.9037318277896064  0.9770909780032538  0.28723843769219565  1.0000
  O   O7        1.0  0.08379795937477749  0.9241774590804397  0.06969971928202055  1.0000
  O   O8        1.0  0.916218345102287  0.07583554579672838  0.9303061621275145  1.0000
  O   O9        1.0  0.9013196490270802  0.6935727969132798  0.12906752117940093  1.0000
  O   O10       1.0  0.09867794394808975  0.3064402659731228  0.8709381605047991  1.0000
  O   O11       1.0  0.668094300973756  0.5956362541224961  0.8662123149593481  1.0000
  O   O12       1.0  0.3318972317056251  0.4043539548790065  0.13380961146971518  1.0000
  O   O13       1.0  0.46565933944238935  0.32634511648090836  0.8546004207836684  1.0000
  O   O14       1.0  0.5343379828224641  0.6736286188402614  0.14537833041048023  1.0000
  O   O15       1.0  0.31539415037627094  0.9308427601567146  0.874893692069868  1.0000
  O   O16       1.0  0.6846312942062696  0.0691740532087479  0.12508813152554404  1.0000
  O   O17       1.0  0.4639840244506671  0.7827973803912013  0.8859558218257673  1.0000
  O   O18       1.0  0.5360179628145474  0.2171991729007914  0.11404157656675547  1.0000
