data_image0
_chemical_formula_structural       Cu2H36C32N4O10
_chemical_formula_sum              "Cu2 H36 C32 N4 O10"
_cell_length_a       6.756732577807898
_cell_length_b       9.823971224568773
_cell_length_c       12.561433509347228
_cell_angle_alpha    86.05506617263417
_cell_angle_beta     83.68759862300907
_cell_angle_gamma    76.15996128080359

_space_group_name_H-M_alt    "P 1"
_space_group_IT_number       1

loop_
  _space_group_symop_operation_xyz
  'x, y, z'

loop_
  _atom_site_type_symbol
  _atom_site_label
  _atom_site_symmetry_multiplicity
  _atom_site_fract_x
  _atom_site_fract_y
  _atom_site_fract_z
  _atom_site_occupancy
  Cu  Cu1       1.0  0.7334571197159008  0.27145275546749303  0.20682431285557362  1.0000
  Cu  Cu2       1.0  0.26656883244405793  0.7285424029401356  0.7931722195553307  1.0000
  H   H1        1.0  0.5549888260979403  0.8490294180383274  0.5460160850668815  1.0000
  H   H2        1.0  0.44500125133918544  0.15095872215677286  0.4539861116038892  1.0000
  H   H3        1.0  0.7114372914674335  0.970053906228877  0.5441946040002892  1.0000
  H   H4        1.0  0.28854944883579486  0.029932354178953312  0.4558151723941394  1.0000
  H   H5        1.0  0.8123355589355228  0.798513560682615  0.3955431373924156  1.0000
  H   H6        1.0  0.18765635100188402  0.2014851559231019  0.6044572339263823  1.0000
  H   H7        1.0  0.5728179456309093  0.8763100192232899  0.3424558665980655  1.0000
  H   H8        1.0  0.42717073299193237  0.12368982070729122  0.657547839077516  1.0000
  H   H9        1.0  0.7202609711500259  0.5609178580679882  0.2837969612246241  1.0000
  H   H10       1.0  0.27976273532432566  0.439089561641616  0.7161899400651565  1.0000
  H   H11       1.0  0.7166301960524422  0.7987867580895839  0.19311026444875523  1.0000
  H   H12       1.0  0.2833187493130396  0.2012239166896279  0.8068723894591514  1.0000
  H   H13       1.0  0.3252804269676162  0.5504581349361929  0.4597184270697241  1.0000
  H   H14       1.0  0.674791494606559  0.44955425142399724  0.5402819819007476  1.0000
  H   H15       1.0  0.3480302825238084  0.38207894733537984  0.5185630602893951  1.0000
  H   H16       1.0  0.6520138271844189  0.6179316083921977  0.48143559795949636  1.0000
  H   H17       1.0  0.8014775993452687  0.9806724059228106  0.8697561573645487  1.0000
  H   H18       1.0  0.19851025600682695  0.019317868395951603  0.1302476192804534  1.0000
  H   H19       1.0  0.7252075404653266  0.8209334859563598  0.990989920067733  1.0000
  H   H20       1.0  0.2747262185016197  0.17906625464614487  0.008993993996128305  1.0000
  H   H21       1.0  0.7603243117194013  0.02013672233868391  0.07039445886601921  1.0000
  H   H22       1.0  0.23968918995251454  0.9798560859895176  0.929603999333189  1.0000
  H   H23       1.0  0.023552276918238073  0.3644781126832798  0.44031313766261354  1.0000
  H   H24       1.0  0.9764668105902174  0.6355684203355594  0.5596979055007837  1.0000
  H   H25       1.0  0.00805971068654543  0.5315928482348796  0.3781637952254613  1.0000
  H   H26       1.0  0.9919761517145176  0.4684531278284681  0.6218492282013841  1.0000
  H   H27       1.0  0.8089210436620675  0.1863711797954082  0.7431999608257769  1.0000
  H   H28       1.0  0.1910470340343977  0.8136151535683923  0.256797657991129  1.0000
  H   H29       1.0  0.7360823978965455  0.6115774394530292  0.8907632469166487  1.0000
  H   H30       1.0  0.26390271189063697  0.3884100136222274  0.1092258323673292  1.0000
  H   H31       1.0  0.7748708110035449  0.4234468872264758  0.8169565792733523  1.0000
  H   H32       1.0  0.2251201947693886  0.5765377951412418  0.1830386676694431  1.0000
  H   H33       1.0  0.0513136598639221  0.13541600827091574  0.2840964591468094  1.0000
  H   H34       1.0  0.9486859911806604  0.8645774880490721  0.7159260856531516  1.0000
  H   H35       1.0  0.15276041443064503  0.2682970473146754  0.2526341527301383  1.0000
  H   H36       1.0  0.84725631723083  0.7316859760244014  0.7473816229199314  1.0000
  C   C1        1.0  0.41300398098778857  0.3869074080668399  0.34821755413453565  1.0000
  C   C2        1.0  0.5870126549463422  0.6131074623212386  0.6517740289418085  1.0000
  C   C3        1.0  0.7563120702240198  0.34269926261664113  0.9814258238203167  1.0000
  C   C4        1.0  0.24369228944716784  0.6572857775171671  0.0185699883184895  1.0000
  C   C5        1.0  0.5957438120923298  0.940088657497107  0.5012979078854373  1.0000
  C   C6        1.0  0.4042472319816071  0.05989755991909361  0.49870836291106  1.0000
  C   C7        1.0  0.6919080387002198  0.8955334936558542  0.38858747968082963  1.0000
  C   C8        1.0  0.3080794300338567  0.10446222806214682  0.6114198510320817  1.0000
  C   C9        1.0  0.7269672423822441  0.577684675018901  0.19690863750850704  1.0000
  C   C10       1.0  0.2730469986999537  0.4223204934299788  0.8030807549301997  1.0000
  C   C11       1.0  0.7428221488550618  0.47458899346502664  0.03354308646665062  1.0000
  C   C12       1.0  0.25718600151561316  0.5254013120075387  0.9664496078593318  1.0000
  C   C13       1.0  0.7242274071714758  0.7085451689272092  0.1459475788880057  1.0000
  C   C14       1.0  0.2757450602354155  0.2914630151517059  0.8540375107060996  1.0000
  C   C15       1.0  0.2895547572918673  0.44863608098258834  0.4494350874170223  1.0000
  C   C16       1.0  0.7104921831667494  0.5513831631439106  0.550566611176322  1.0000
  C   C17       1.0  0.786297604970379  0.08458053242848962  0.9002449925057618  1.0000
  C   C18       1.0  0.21368908308569695  0.915408557255404  0.09975658066828429  1.0000
  C   C19       1.0  0.7918282488043857  0.006907542650239398  0.3301696483553869  1.0000
  C   C20       1.0  0.2081495053521394  0.993094413085629  0.6698402737781706  1.0000
  C   C21       1.0  0.7287993598084056  0.7208985532128767  0.0345700751602891  1.0000
  C   C22       1.0  0.27116267853624265  0.27910203924918164  0.9654172309026663  1.0000
  C   C23       1.0  0.7659470198744103  0.1047287197200006  0.010081834377203312  1.0000
  C   C24       1.0  0.23405365863759908  0.8952628216034881  0.9899192830448911  1.0000
  C   C25       1.0  0.059215089052870006  0.46655433396652773  0.4494362521216928  1.0000
  C   C26       1.0  0.9408223272622391  0.5334873793324492  0.5505754207081852  1.0000
  C   C27       1.0  0.7906531858316015  0.20012083348662205  0.8294920609836893  1.0000
  C   C28       1.0  0.209327640818742  0.7998637985369828  0.1705079355479029  1.0000
  C   C29       1.0  0.7376866347060087  0.6030057740941359  0.9774558915919869  1.0000
  C   C30       1.0  0.26231028901154463  0.3969819351870428  0.022532282851649703  1.0000
  C   C31       1.0  0.7741650905680757  0.3310800297452587  0.8702672182818816  1.0000
  C   C32       1.0  0.22582386216575384  0.6689098593926845  0.1297269464096615  1.0000
  N   N1        1.0  0.735794884348955  0.46380036791919127  0.14189875612090933  1.0000
  N   N2        1.0  0.2642296968890392  0.536197761574833  0.8580936440281519  1.0000
  N   N3        1.0  0.7531957392046564  0.23011537378799576  0.049630499480052485  1.0000
  N   N4        1.0  0.24681407758709628  0.7698751723135903  0.9503668311650985  1.0000
  O   O1        1.0  0.07502986805248921  0.20689949628966534  0.2252429089655692  1.0000
  O   O2        1.0  0.9249810514836908  0.7930835032480915  0.7747756938167784  1.0000
  O   O3        1.0  0.6092034109818272  0.3509923114322362  0.3495493335211322  1.0000
  O   O4        1.0  0.3908155418772167  0.6490205291338215  0.6504430442930911  1.0000
  O   O5        1.0  0.32265672263361717  0.37550344743637254  0.2676081401804852  1.0000
  O   O6        1.0  0.6773334503976542  0.6245008236117043  0.7323990645940697  1.0000
  O   O7        1.0  0.6896738875194188  0.08447348470038213  0.2573860855460879  1.0000
  O   O8        1.0  0.3103279127291643  0.9155235708152958  0.7426192644095836  1.0000
  O   O9        1.0  0.9616960479679906  0.017096774918712806  0.35650441352459694  1.0000
  O   O10       1.0  0.038283966574560735  0.98290458174197  0.6435149524884451  1.0000
