data_image0
_chemical_formula_structural       Ag4H20C28N16
_chemical_formula_sum              "Ag4 H20 C28 N16"
_cell_length_a       4.772462294290513
_cell_length_b       14.29845383020885
_cell_length_c       12.221068339563828
_cell_angle_alpha    113.04205443581938
_cell_angle_beta     89.99479430458082
_cell_angle_gamma    89.99497354921233

_space_group_name_H-M_alt    "P 1"
_space_group_IT_number       1

loop_
  _space_group_symop_operation_xyz
  'x, y, z'

loop_
  _atom_site_type_symbol
  _atom_site_label
  _atom_site_symmetry_multiplicity
  _atom_site_fract_x
  _atom_site_fract_y
  _atom_site_fract_z
  _atom_site_occupancy
  Ag  Ag1       1.0  0.9099772834612024  0.56214592757798  0.1674586025383107  1.0000
  Ag  Ag2       1.0  0.4100340570584891  0.437893217195537  0.3325549086484827  1.0000
  Ag  Ag3       1.0  0.0900461013233311  0.4378564196246729  0.8325419948670146  1.0000
  Ag  Ag4       1.0  0.589974659322607  0.5621134439050337  0.6674440250054445  1.0000
  H   H1        1.0  0.8082899832452952  0.7447632553934296  0.7764632740215873  1.0000
  H   H2        1.0  0.30839006956067294  0.25519917701886646  0.723537560267623  1.0000
  H   H3        1.0  0.19165378027437902  0.2552351298636637  0.22352270798123194  1.0000
  H   H4        1.0  0.6916458876012116  0.7448017709539986  0.2764641531885987  1.0000
  H   H5        1.0  0.0018619307398708002  0.8880387328740654  0.9487849261562219  1.0000
  H   H6        1.0  0.5019940034418938  0.11190773330368131  0.5512448900792108  1.0000
  H   H7        1.0  0.9980608781192971  0.11195796085740992  0.0512192971213494  1.0000
  H   H8        1.0  0.498008428890806  0.8880901839325619  0.44875568702529023  1.0000
  H   H9        1.0  0.4042816540464854  0.9882182517961836  0.9221660897384111  1.0000
  H   H10       1.0  0.9043936411802918  0.011699488286261299  0.5778331430335442  1.0000
  H   H11       1.0  0.5956600122318036  0.011777741427323503  0.077849359663638  1.0000
  H   H12       1.0  0.09559203098200442  0.9882923094369008  0.4221536490022545  1.0000
  H   H13       1.0  0.6217639757669174  0.9401837473302738  0.7233319915411587  1.0000
  H   H14       1.0  0.12189899022879302  0.05975999068262888  0.7766689862020398  1.0000
  H   H15       1.0  0.37820911791217776  0.05981976433265862  0.2766961261222889  1.0000
  H   H16       1.0  0.8781223034698087  0.9402314572477907  0.22331274972054876  1.0000
  H   H17       1.0  0.42593819231861124  0.7963453256923075  0.5492462526434778  1.0000
  H   H18       1.0  0.9260375870340881  0.20364141763834454  0.950731891366125  1.0000
  H   H19       1.0  0.5740495681083005  0.20366728064354336  0.450763939564446  1.0000
  H   H20       1.0  0.0739962775591465  0.796351486721392  0.049260238776156616  1.0000
  C   C1        1.0  0.9851893347820353  0.6832817220954582  0.54395399313902  1.0000
  C   C2        1.0  0.48525359030106335  0.3167118026332148  0.9560419555595701  1.0000
  C   C3        1.0  0.0147963318180757  0.3167286116841837  0.45604467771693896  1.0000
  C   C4        1.0  0.5147656061347305  0.6832827921429258  0.043953271193380834  1.0000
  C   C5        1.0  0.10524642608953633  0.7610856517503849  0.6509757389620673  1.0000
  C   C6        1.0  0.6053329828211815  0.23888573630848955  0.8490150561087333  1.0000
  C   C7        1.0  0.8947224791791727  0.23891628767756865  0.3490296307594534  1.0000
  C   C8        1.0  0.39471345250581885  0.7611111897294336  0.15098186537050404  1.0000
  C   C9        1.0  0.9891203370485611  0.7862828706062007  0.7644093981804261  1.0000
  C   C10       1.0  0.48921579615562644  0.21367629000008045  0.7355923462400965  1.0000
  C   C11       1.0  0.010835998037386198  0.2137140564354283  0.23558752580076  1.0000
  C   C12       1.0  0.5108201601690537  0.7863289134746482  0.26440686053676643  1.0000
  C   C13       1.0  0.0975440423024523  0.8673810178774987  0.8615185963766976  1.0000
  C   C14       1.0  0.5976701372812059  0.13256331733206392  0.638495237684161  1.0000
  C   C15       1.0  0.9024018152451135  0.13261643337472864  0.1384859105815082  1.0000
  C   C16       1.0  0.40234905687957223  0.8674389716846209  0.36150451731685257  1.0000
  C   C17       1.0  0.3232346948574687  0.923301729033341  0.8469540863322678  1.0000
  C   C18       1.0  0.8233502640769004  0.076628833994171  0.6530488571269046  1.0000
  C   C19       1.0  0.676719543677521  0.07669478889701513  0.1530582769586388  1.0000
  C   C20       1.0  0.176668932157817  0.923368967343052  0.34693936602262454  1.0000
  C   C21       1.0  0.4441504166304996  0.8971693014335358  0.7347010046110255  1.0000
  C   C22       1.0  0.9442740621005401  0.10277477275814562  0.7652947382229484  1.0000
  C   C23       1.0  0.5558205831366649  0.10283199590583791  0.265316434221134  1.0000
  C   C24       1.0  0.0557744697324978  0.8972219793114888  0.2346889871879299  1.0000
  C   C25       1.0  0.335982632014897  0.8168958280556426  0.6374504613353338  1.0000
  C   C26       1.0  0.8360755422815415  0.18307286643053544  0.8625415681464972  1.0000
  C   C27       1.0  0.6640009396376243  0.18310931701697095  0.3625585728236089  1.0000
  C   C28       1.0  0.16396879837204636  0.8169235937694881  0.1374486132255016  1.0000
  N   N1        1.0  0.0486833614593607  0.6777742908626224  0.43399874961477286  1.0000
  N   N2        1.0  0.5487491998464407  0.322242301890995  0.06600857260399098  1.0000
  N   N3        1.0  0.9513211631155658  0.32223557609268744  0.5660038490002393  1.0000
  N   N4        1.0  0.45128256762341584  0.6777567229449277  0.9339866746825151  1.0000
  N   N5        1.0  0.8946448639470503  0.6013289222424377  0.3603513357876054  1.0000
  N   N6        1.0  0.3946758224465938  0.39870217063803187  0.13965905758383462  1.0000
  N   N7        1.0  0.1053701384926811  0.39867651439632823  0.6396512416538158  1.0000
  N   N8        1.0  0.6053559440962317  0.6012999435406386  0.8603381695060364  1.0000
  N   N9        1.0  0.7413411358646017  0.5604940715816511  0.42081521439759223  1.0000
  N   N10       1.0  0.24134538543135867  0.43952720557418706  0.07919380516133863  1.0000
  N   N11       1.0  0.2586717713058135  0.4395113068478055  0.5791865205813309  1.0000
  N   N12       1.0  0.758682191540089  0.5604710615308904  0.9208011579208774  1.0000
  N   N13       1.0  0.7950186917465273  0.6108964623990971  0.5371765625891882  1.0000
  N   N14       1.0  0.2950398728932271  0.38910438913492146  0.962831928605958  1.0000
  N   N15       1.0  0.2049774522123116  0.3891110148517072  0.46282349825519725  1.0000
  N   N16       1.0  0.7049793232871764  0.6108903803391856  0.03716582570902469  1.0000
