data_image0
_chemical_formula_structural       Cu2H36C24N4O8
_chemical_formula_sum              "Cu2 H36 C24 N4 O8"
_cell_length_a       6.610931059254076
_cell_length_b       8.98300432656856
_cell_length_c       10.592105832067709
_cell_angle_alpha    89.99966669665295
_cell_angle_beta     89.99977323742515
_cell_angle_gamma    89.82450123619354

_space_group_name_H-M_alt    "P 1"
_space_group_IT_number       1

loop_
  _space_group_symop_operation_xyz
  'x, y, z'

loop_
  _atom_site_type_symbol
  _atom_site_label
  _atom_site_symmetry_multiplicity
  _atom_site_fract_x
  _atom_site_fract_y
  _atom_site_fract_z
  _atom_site_occupancy
  Cu  Cu1       1.0  0.9999972687545408  1.0657971479596498e-05  0.499992835868696  1.0000
  Cu  Cu2       1.0  0.4999978375138312  1.7693182456989093e-06  4.108388218100001e-06  1.0000
  H   H1        1.0  0.12155852566234422  0.3447459106031801  0.6868850943816371  1.0000
  H   H2        1.0  0.37844908628551366  0.6552445119834402  0.18687486510496146  1.0000
  H   H3        1.0  0.8784435169145509  0.6552469891976429  0.31311260646789674  1.0000
  H   H4        1.0  0.6215484789656784  0.34475178158682945  0.8131209475432115  1.0000
  H   H5        1.0  0.6252799740601489  0.2688757063344411  0.2501433674444797  1.0000
  H   H6        1.0  0.874720105869713  0.7311300924708773  0.7501482802599357  1.0000
  H   H7        1.0  0.37472222912331427  0.7311260980231182  0.7498552774827092  1.0000
  H   H8        1.0  0.1252775195679874  0.26886954026318216  0.24986074977070427  1.0000
  H   H9        1.0  0.8165416488118141  0.2360076779449116  0.3615771444988526  1.0000
  H   H10       1.0  0.6834561286823941  0.7639929071996506  0.8615861434256901  1.0000
  H   H11       1.0  0.18345593650956724  0.7639897286887632  0.6384205563452598  1.0000
  H   H12       1.0  0.3165445418626831  0.23600780222595574  0.13842571889660604  1.0000
  H   H13       1.0  0.581330075789559  0.14391452853341488  0.3767474426327127  1.0000
  H   H14       1.0  0.9186751074740583  0.8560825203540434  0.8767563654010079  1.0000
  H   H15       1.0  0.4186720671743344  0.8560839366240317  0.6232483700046175  1.0000
  H   H16       1.0  0.08132842750164569  0.14390924814296113  0.12325549693935055  1.0000
  H   H17       1.0  0.32475206135883633  0.9020425076869074  0.3908347219907  1.0000
  H   H18       1.0  0.17524856307735356  0.09796659605662941  0.8908478987819709  1.0000
  H   H19       1.0  0.6752455842001484  0.0979582381666901  0.6091601465473035  1.0000
  H   H20       1.0  0.8247508158038245  0.9020463753431258  0.10915829891635555  1.0000
  H   H21       1.0  0.19744671969632316  0.5082726941569078  0.7660586648213157  1.0000
  H   H22       1.0  0.302567990823924  0.49171930976513073  0.2660522426703836  1.0000
  H   H23       1.0  0.8025658502806648  0.4917167391307516  0.23394281242101306  1.0000
  H   H24       1.0  0.6974312073865149  0.5082836440210913  0.733949234555695  1.0000
  H   H25       1.0  0.13986625720367837  0.9062662948316814  0.2843565836102115  1.0000
  H   H26       1.0  0.36013361307440306  0.09374802427703338  0.7843646075939649  1.0000
  H   H27       1.0  0.8601359459797847  0.09373550952588522  0.7156420613169703  1.0000
  H   H28       1.0  0.6398702029830899  0.9062593272165602  0.21564253421181698  1.0000
  H   H29       1.0  0.024763502887807903  0.5212975284889297  0.639973435421638  1.0000
  H   H30       1.0  0.47524751312523245  0.47869763817753613  0.13996570921214876  1.0000
  H   H31       1.0  0.9752492076315704  0.47869969629866926  0.3600252095037321  1.0000
  H   H32       1.0  0.5247485395758033  0.5212986735439955  0.8600395444311107  1.0000
  H   H33       1.0  0.14516991085406517  0.7760883319985371  0.39360523313741436  1.0000
  H   H34       1.0  0.35482625877585855  0.22392637228323053  0.8936135860876464  1.0000
  H   H35       1.0  0.8548218452160512  0.22392139113240014  0.6063952999821113  1.0000
  H   H36       1.0  0.6451821550675164  0.7760842638642488  0.10639449980391194  1.0000
  C   C1        1.0  0.4107856183063562  0.3610316847549555  0.5122537041828894  1.0000
  C   C2        1.0  0.08920967364082341  0.638970140736376  0.012255590817737505  1.0000
  C   C3        1.0  0.5892166451327512  0.6389734588423438  0.4877364438422094  1.0000
  C   C4        1.0  0.9107862184626541  0.3610172664383172  0.9877458864498867  1.0000
  C   C5        1.0  0.3336630457088249  0.4814559199882211  0.5821602869221325  1.0000
  C   C6        1.0  0.16634527323640924  0.5185374613217419  0.08215973349373233  1.0000
  C   C7        1.0  0.6663436548795404  0.5185436036731943  0.4178393021043761  1.0000
  C   C8        1.0  0.8336568094658291  0.481457664589371  0.9178464642443347  1.0000
  C   C9        1.0  0.5758685304038877  0.37742469709951376  0.4298751315575089  1.0000
  C   C10       1.0  0.9241346815827853  0.6225653199025558  0.929880447186925  1.0000
  C   C11       1.0  0.42413819025766497  0.6225759396286038  0.5701254015656192  1.0000
  C   C12       1.0  0.07586425561304819  0.3774231639471709  0.07012858286900332  1.0000
  C   C13       1.0  0.31247314270144233  0.21089453475699574  0.5283680740853287  1.0000
  C   C14       1.0  0.18752505155924837  0.789106028525879  0.028381268872806207  1.0000
  C   C15       1.0  0.6875123224430482  0.7891019043469355  0.47161074478940185  1.0000
  C   C16       1.0  0.8124861865593614  0.21089344054968961  0.9716277611415622  1.0000
  C   C17       1.0  0.16095984788778855  0.4619570629920773  0.6728242920734858  1.0000
  C   C18       1.0  0.33905243129925106  0.5380356295338232  0.17281755711074007  1.0000
  C   C19       1.0  0.8390497974329918  0.538037972017456  0.32717624105957555  1.0000
  C   C20       1.0  0.6609496112566048  0.4619572702438787  0.8271867524340948  1.0000
  C   C21       1.0  0.6520364520502541  0.24978323868595004  0.3514103069889388  1.0000
  C   C22       1.0  0.8479643951533192  0.7502162681480729  0.851418025504785  1.0000
  C   C23       1.0  0.34796871595684564  0.7502151901062533  0.6485845615454481  1.0000
  C   C24       1.0  0.1520393004439882  0.2497844049221811  0.1485900604165806  1.0000
  N   N1        1.0  0.1709851346519073  0.886800772481486  0.37828975513287605  1.0000
  N   N2        1.0  0.3290126450264594  0.11321402075880371  0.8782977613872023  1.0000
  N   N3        1.0  0.8290141438753408  0.11320663359796164  0.6217079456850457  1.0000
  N   N4        1.0  0.6709896986663253  0.8867955750623792  0.12170843631563605  1.0000
  O   O1        1.0  0.1478870315478602  0.19165711979857034  0.4653393067365317  1.0000
  O   O2        1.0  0.35209964631627605  0.8083594178996661  0.9653486228032339  1.0000
  O   O3        1.0  0.8520854834181861  0.8083762142608323  0.5346432884623553  1.0000
  O   O4        1.0  0.6478934014207455  0.1916380432604257  0.0346566308409351  1.0000
  O   O5        1.0  0.38807537723399593  0.11524254952350077  0.6017322828915682  1.0000
  O   O6        1.0  0.1119056318356613  0.8847532482875806  0.10174236898949833  1.0000
  O   O7        1.0  0.6119054500293188  0.8847483788492738  0.3982276540155638  1.0000
  O   O8        1.0  0.8880932652348362  0.11523300945184899  0.8982581641778966  1.0000
