data_image0
_chemical_formula_structural       Co2H16C24N8
_chemical_formula_sum              "Co2 H16 C24 N8"
_cell_length_a       5.334359259617149
_cell_length_b       13.409776604406863
_cell_length_c       13.711223046594121
_cell_angle_alpha    92.08397162442807
_cell_angle_beta     73.79671170878252
_cell_angle_gamma    75.4136792241312

_space_group_name_H-M_alt    "P 1"
_space_group_IT_number       1

loop_
  _space_group_symop_operation_xyz
  'x, y, z'

loop_
  _atom_site_type_symbol
  _atom_site_label
  _atom_site_symmetry_multiplicity
  _atom_site_fract_x
  _atom_site_fract_y
  _atom_site_fract_z
  _atom_site_occupancy
  Co  Co1       1.0  0.1956346075633705  0.5254050961509549  0.48260227042310794  1.0000
  Co  Co2       1.0  0.8044568685203471  0.47457358924816634  0.5173913497366414  1.0000
  H   H1        1.0  0.2892988731466843  0.583845487078861  0.7140844913231277  1.0000
  H   H2        1.0  0.22112360740833734  0.2872201961293754  0.4142353778178319  1.0000
  H   H3        1.0  0.7106367702231748  0.4161828943406221  0.2859361119385326  1.0000
  H   H4        1.0  0.7789254911377625  0.7127835922051915  0.58576307014674  1.0000
  H   H5        1.0  0.6588736024804832  0.42147693687685006  0.7768726019360628  1.0000
  H   H6        1.0  0.8400504641792352  0.23301057278253984  0.570399703844018  1.0000
  H   H7        1.0  0.34108227752459896  0.5785461295328176  0.22313664947532175  1.0000
  H   H8        1.0  0.16006744558617925  0.7669156958574348  0.4295745617835324  1.0000
  H   H9        1.0  0.24916307577946376  0.6099937675393364  0.06126451627554269  1.0000
  H   H10       1.0  0.253543547341387  0.9325126647419919  0.395340387171224  1.0000
  H   H11       1.0  0.7507402788414552  0.39004521564368133  0.9387518843311184  1.0000
  H   H12       1.0  0.7463980601051433  0.06747054264392462  0.604653198260344  1.0000
  H   H13       1.0  0.21759417462087766  0.6139116562961959  0.8869111911516541  1.0000
  H   H14       1.0  0.285213998822023  0.1107735211756307  0.38854909941640875  1.0000
  H   H15       1.0  0.782423563723718  0.3860916805237338  0.11309896956969821  1.0000
  H   H16       1.0  0.7146330816400381  0.8892181656465468  0.6114721025566539  1.0000
  C   C1        1.0  0.13240417685641137  0.5458369065965343  0.7142111546581447  1.0000
  C   C2        1.0  0.37495804305248726  0.29000509028432486  0.4512181135172355  1.0000
  C   C3        1.0  0.8675827419458243  0.45419118520876367  0.28582089071192485  1.0000
  C   C4        1.0  0.6250904540125717  0.7099777928073648  0.5487792209236986  1.0000
  C   C5        1.0  0.8142056541769876  0.4603011204505025  0.7453139718926708  1.0000
  C   C6        1.0  0.6859974396776068  0.2630314683602535  0.5331587377863302  1.0000
  C   C7        1.0  0.18578595572782303  0.5397276499149228  0.25468011324007034  1.0000
  C   C8        1.0  0.3141199850238932  0.7369294850968588  0.466813039875241  1.0000
  C   C9        1.0  0.973445985226825  0.503112143794567  0.7930666686703205  1.0000
  C   C10       1.0  0.5290531864009366  0.21164949311943096  0.49312226691787947  1.0000
  C   C11       1.0  0.026537698974898664  0.49694437079421055  0.20694464190849265  1.0000
  C   C12       1.0  0.4709851361500199  0.788325561942372  0.5068419666360527  1.0000
  C   C13       1.0  0.983245235823105  0.5019141114111605  0.8980632610168727  1.0000
  C   C14       1.0  0.5176221270214822  0.10427587387746942  0.49617561544899763  1.0000
  C   C15       1.0  0.01667001605846954  0.4981341438814297  0.10195140570464645  1.0000
  C   C16       1.0  0.4823530478053966  0.8956970559487517  0.5037995395780328  1.0000
  C   C17       1.0  0.14003631582151138  0.5611126639327607  0.035049231329090005  1.0000
  C   C18       1.0  0.3614429819692048  0.961369473243401  0.4419575637616192  1.0000
  C   C19       1.0  0.8598941688075428  0.43892710975016064  0.9649565092924633  1.0000
  C   C20       1.0  0.6385126261994926  0.03861530043354831  0.5580308428413261  1.0000
  C   C21       1.0  0.12276665877400447  0.5631262452762087  0.9359552920692594  1.0000
  C   C22       1.0  0.37921623746363753  0.06278451874396042  0.4382221623413542  1.0000
  C   C23       1.0  0.8771707811822722  0.4369098557312867  0.06405194376988994  1.0000
  C   C24       1.0  0.6207164345365681  0.9371932492296509  0.56177004866057  1.0000
  N   N1        1.0  0.07200316367480042  0.5284751181651117  0.6276218209912656  1.0000
  N   N2        1.0  0.4357263082521212  0.38009975108970906  0.4654489354487837  1.0000
  N   N3        1.0  0.92802930191403  0.47152565689042814  0.37239574285066374  1.0000
  N   N4        1.0  0.5643757572150037  0.6198746693161468  0.5345646947808691  1.0000
  N   N5        1.0  0.8764360705183165  0.4770853665063727  0.6464471101389863  1.0000
  N   N6        1.0  0.6263274131040077  0.3635174367574336  0.5161050441278549  1.0000
  N   N7        1.0  0.12359272409439365  0.5229128631128575  0.353541205175823  1.0000
  N   N8        1.0  0.3738227509378333  0.6364492097942787  0.4838892773444671  1.0000
