data_image0
_chemical_formula_structural       Ag8H36C56N8O18
_chemical_formula_sum              "Ag8 H36 C56 N8 O18"
_cell_length_a       5.98494017624651
_cell_length_b       14.439985404679467
_cell_length_c       17.1827
_cell_angle_alpha    109.35098712457787
_cell_angle_beta     100.1483868071677
_cell_angle_gamma    89.96014615391503

_space_group_name_H-M_alt    "P 1"
_space_group_IT_number       1

loop_
  _space_group_symop_operation_xyz
  'x, y, z'

loop_
  _atom_site_type_symbol
  _atom_site_label
  _atom_site_symmetry_multiplicity
  _atom_site_fract_x
  _atom_site_fract_y
  _atom_site_fract_z
  _atom_site_occupancy
  Ag  Ag1       1.0  0.67243011449159  0.6139847228646786  0.825933286359387  1.0000
  Ag  Ag2       1.0  0.1465241358815064  0.1121503097069976  0.8251884693239191  1.0000
  Ag  Ag3       1.0  0.24397185252689016  0.3265457316374167  0.8920161686120806  1.0000
  Ag  Ag4       1.0  0.6553695231089804  0.8298060990545508  0.8939458875902418  1.0000
  Ag  Ag5       1.0  0.7030389857785764  0.42910780429705403  0.9571133962864097  1.0000
  Ag  Ag6       1.0  0.2589042032428424  0.928915435639837  0.9579501909321024  1.0000
  Ag  Ag7       1.0  0.30910936329500777  0.5299997675584223  0.8956789387143901  1.0000
  Ag  Ag8       1.0  0.5837968756849108  0.031863716427992  0.8945057600735352  1.0000
  H   H1        1.0  0.2746701524429583  0.5409043832156044  0.6809844201372856  1.0000
  H   H2        1.0  0.40137093893684295  0.040812884753606206  0.6816070298965612  1.0000
  H   H3        1.0  0.17165983020957043  0.527959013009685  0.5289071367473781  1.0000
  H   H4        1.0  0.35627246312052563  0.029411133934282  0.5300951931639233  1.0000
  H   H5        1.0  0.8416888845980425  0.6605837902451128  0.5548038444313832  1.0000
  H   H6        1.0  0.7110788019409641  0.1619734015709184  0.5537808118396939  1.0000
  H   H7        1.0  0.9211648654586783  0.6625774787429961  0.7030686399829237  1.0000
  H   H8        1.0  0.7760993258993238  0.1624764199894173  0.7016029372977002  1.0000
  H   H9        1.0  0.2546697598029652  0.6204445383443513  0.2112211444972232  1.0000
  H   H10       1.0  0.9595306712072187  0.1206214634536309  0.2113708615642338  1.0000
  H   H11       1.0  0.041708724262107956  0.6916304694465654  0.32537910262029623  1.0000
  H   H12       1.0  0.2883381119913793  0.1918176902544602  0.32513470715057485  1.0000
  H   H13       1.0  0.6695983498107765  0.7648571550975092  0.2967021715919742  1.0000
  H   H14       1.0  0.6315554295469566  0.263979506504846  0.2958221341620871  1.0000
  H   H15       1.0  0.5238109196268398  0.7698696895134347  0.15229854302049978  1.0000
  H   H16       1.0  0.6303174430612088  0.2683713573751376  0.15115793144546072  1.0000
  H   H17       1.0  0.07386162421414613  0.37290137928609113  0.07522445072825693  1.0000
  H   H18       1.0  0.005977830982089922  0.872979640421292  0.07540504655966639  1.0000
  H   H19       1.0  0.1621258144557203  0.3755142805155245  0.223392070159484  1.0000
  H   H20       1.0  0.06306711559995651  0.8763478046855084  0.22364126492753672  1.0000
  H   H21       1.0  0.5296301174928929  0.5148091996453772  0.2602929865006304  1.0000
  H   H22       1.0  0.733037058261445  0.0163002971433315  0.262812949343818  1.0000
  H   H23       1.0  0.4578435509017639  0.4982581286998382  0.10717594627087834  1.0000
  H   H24       1.0  0.6545545252946354  0.9988188168562858  0.10953214520802143  1.0000
  H   H25       1.0  0.9669276015790303  0.41110871688071177  0.5783940254044708  1.0000
  H   H26       1.0  0.6096854187135179  0.9110590171901549  0.5784069636590632  1.0000
  H   H27       1.0  0.6385428528000077  0.3520908307382911  0.4614718314095967  1.0000
  H   H28       1.0  0.8190878040311702  0.8506320911502954  0.4613063025556698  1.0000
  H   H29       1.0  0.27772351062059647  0.286890377572  0.48470715367605527  1.0000
  H   H30       1.0  0.20261431416027884  0.7844197178906427  0.48463136448523875  1.0000
  H   H31       1.0  0.2538080102945273  0.2814505716631643  0.6272605452839599  1.0000
  H   H32       1.0  0.3707046442103774  0.7797417936800102  0.6273967298242411  1.0000
  H   H33       1.0  0.14389225438163322  0.7394459000787493  0.8549367939514881  1.0000
  H   H34       1.0  0.710474331705271  0.2393242499279253  0.8548060848937098  1.0000
  H   H35       1.0  0.11887055959605423  0.7186125539125642  0.9398833631666862  1.0000
  H   H36       1.0  0.820322239175276  0.2183938300318502  0.9397753654745601  1.0000
  C   C1        1.0  0.394829982659104  0.5654927177514679  0.6498840549815839  1.0000
  C   C2        1.0  0.2507198246201199  0.0656497868705372  0.6501301065801499  1.0000
  C   C3        1.0  0.3375241867627992  0.5593292713107587  0.5662964050971482  1.0000
  C   C4        1.0  0.22662854429287901  0.0603688288833339  0.5668403350804353  1.0000
  C   C5        1.0  0.4990439721339683  0.5942147752849678  0.5309437915452335  1.0000
  C   C6        1.0  0.030593843422416007  0.0957007249336144  0.5310455415388021  1.0000
  C   C7        1.0  0.7131408205662098  0.6320514677291129  0.579957723953811  1.0000
  C   C8        1.0  0.8641561880551478  0.1331116166989403  0.5793011936808199  1.0000
  C   C9        1.0  0.7570789391295776  0.6340400083776885  0.6627147383775593  1.0000
  C   C10       1.0  0.90089364327563  0.1342478205828357  0.6618055371622376  1.0000
  C   C11       1.0  0.4428032118958286  0.5933977380584283  0.4465253259868264  1.0000
  C   C12       1.0  0.0049115178827037025  0.0960169499627881  0.4470215026059918  1.0000
  C   C13       1.0  0.14095639050761122  0.6105893485398042  0.047132302961728184  1.0000
  C   C14       1.0  0.9065763572384287  0.1093601753798268  0.04687723632891762  1.0000
  C   C15       1.0  0.012346878811513307  0.6551528092208159  0.11732917205177533  1.0000
  C   C16       1.0  0.1060196972554337  0.154626685195467  0.11699857174993161  1.0000
  C   C17       1.0  0.0949954664313282  0.6536378707089625  0.19834945569846246  1.0000
  C   C18       1.0  0.1059346374384873  0.1535500492821882  0.19819121719194752  1.0000
  C   C19       1.0  0.9745152668190898  0.6943448568481472  0.26299512395341657  1.0000
  C   C20       1.0  0.2921237825373169  0.1942312961748058  0.2626474740965676  1.0000
  C   C21       1.0  0.7676594371226884  0.7358916778322495  0.24692922032872394  1.0000
  C   C22       1.0  0.4827358848108788  0.2352280326895553  0.2462458740752282  1.0000
  C   C23       1.0  0.6855898212829176  0.7390620176014764  0.16667023877756298  1.0000
  C   C24       1.0  0.4830705670329252  0.23804243544920214  0.1658521725560718  1.0000
  C   C25       1.0  0.8075199359077702  0.6997920168274235  0.10198730050198904  1.0000
  C   C26       1.0  0.2952502031544029  0.19892098689815904  0.10138270854542242  1.0000
  C   C27       1.0  0.7231342970493558  0.7059113388454534  0.016440896865361883  1.0000
  C   C28       1.0  0.2931653848120348  0.20457847329218742  0.01570823005575763  1.0000
  C   C29       1.0  0.9562703756505401  0.4024412094531797  0.11770971704542894  1.0000
  C   C30       1.0  0.16548023349356814  0.9028489329443516  0.11838943979023506  1.0000
  C   C31       1.0  0.006727179951134612  0.405291647158009  0.20069330490303372  1.0000
  C   C32       1.0  0.19647082387523082  0.9061398794688886  0.2014512994118577  1.0000
  C   C33       1.0  0.8516509083218295  0.4460979132482095  0.2531826915981554  1.0000
  C   C34       1.0  0.40339219854480046  0.9473763586801809  0.2546409631147101  1.0000
  C   C35       1.0  0.6517697544955681  0.481949006671968  0.2205985698278923  1.0000
  C   C36       1.0  0.5716316444133085  0.9831097869767973  0.22261513884714665  1.0000
  C   C37       1.0  0.6132166771534316  0.4742706217194055  0.13648287705909476  1.0000
  C   C38       1.0  0.5275413169072111  0.9750158970440452  0.1383948460364409  1.0000
  C   C39       1.0  0.8918875988752364  0.4482563329240818  0.33812210710668467  1.0000
  C   C40       1.0  0.4467638644100447  0.9499591082207814  0.33969539274129806  1.0000
  C   C41       1.0  0.996467871139494  0.4095261209207592  0.7411297377037088  1.0000
  C   C42       1.0  0.7443239998856512  0.9102044742043419  0.7412313348288748  1.0000
  C   C43       1.0  0.7974409834193922  0.3798686256265356  0.6686693857221542  1.0000
  C   C44       1.0  0.8701956167066882  0.8797740661062577  0.6688238645667824  1.0000
  C   C45       1.0  0.8105057265699003  0.3829154170122706  0.5890978027319634  1.0000
  C   C46       1.0  0.7765892843059774  0.8824406520499367  0.5891133295920241  1.0000
  C   C47       1.0  0.6248877279552545  0.3488690124759444  0.5229449759801739  1.0000
  C   C48       1.0  0.8947915201558061  0.8475522064475527  0.5228464413599241  1.0000
  C   C49       1.0  0.4238018539910442  0.31214499089026054  0.5360618134004298  1.0000
  C   C50       1.0  0.10869148112043801  0.8103479640617479  0.5360141643478542  1.0000
  C   C51       1.0  0.4093311574059015  0.309035689905734  0.6154557921814289  1.0000
  C   C52       1.0  0.20358220117812212  0.8077247671336991  0.6155717569612237  1.0000
  C   C53       1.0  0.5946858332018863  0.3429269235556518  0.6816999819394809  1.0000
  C   C54       1.0  0.08576094314454961  0.8424175944622264  0.6819437375304532  1.0000
  C   C55       1.0  0.5793414608244519  0.3407427646332266  0.7672399826410582  1.0000
  C   C56       1.0  0.18759197383180756  0.8401459221014846  0.7675254565786461  1.0000
  N   N1        1.0  0.600609438216388  0.6018519774430331  0.6969844274268909  1.0000
  N   N2        1.0  0.0908317292853695  0.1016678176934178  0.6965395558720502  1.0000
  N   N3        1.0  0.3935590785234027  0.594517762987337  0.3780174300201153  1.0000
  N   N4        1.0  0.9882167887193845  0.0981444825427857  0.37890237890403  1.0000
  N   N5        1.0  0.7631787953710615  0.4360228367373296  0.08623374574617065  1.0000
  N   N6        1.0  0.32792504475272477  0.9364577702891524  0.08746901342638586  1.0000
  N   N7        1.0  0.9205873723376358  0.44816073000828294  0.4071006424737931  1.0000
  N   N8        1.0  0.4861435143177603  0.950133399690344  0.4087637673302852  1.0000
  O   O1        1.0  0.049373464241327304  0.3433865529585205  0.7735620427520401  1.0000
  O   O2        1.0  0.721937496352453  0.8444377576137114  0.7738039466452022  1.0000
  O   O3        1.0  0.042966948660982524  0.7445841890992995  0.8960168428369784  1.0000
  O   O4        1.0  0.8525927993528839  0.2441727885729037  0.8959130086434044  1.0000
  O   O5        1.0  0.09043155853166243  0.4957106786973782  0.7640146436685029  1.0000
  O   O6        1.0  0.6751831997043141  0.9967979182977518  0.7639173213917162  1.0000
  O   O7        1.0  0.5180241113973238  0.2612173176453609  0.774723056079587  1.0000
  O   O8        1.0  0.25523057464549487  0.7604535377145043  0.7749578866045326  1.0000
  O   O9        1.0  0.6322030135450092  0.4235701892512935  0.8274803869204845  1.0000
  O   O10       1.0  0.19609323723578606  0.922961580206838  0.8278900684910724  1.0000
  O   O11       1.0  0.22247645992301562  0.6678525534738426  0.015082964321457878  1.0000
  O   O12       1.0  0.7919700814868804  0.16609168102061742  0.014210640618323113  1.0000
  O   O13       1.0  0.16251736109855133  0.518386219510262  0.024260342716893014  1.0000
  O   O14       1.0  0.8630246555676353  0.0172769176985526  0.0248200468983484  1.0000
  O   O15       1.0  0.6775725372837371  0.7893748905570916  0.011442594808883754  1.0000
  O   O16       1.0  0.3355078783927397  0.2876765277026649  0.010368846501982906  1.0000
  O   O17       1.0  0.712666629080559  0.6245672302363233  0.9552363327069388  1.0000
  O   O18       1.0  0.24037470255263574  0.12313067228976851  0.954706355698704  1.0000
