data_image0
_chemical_formula_structural       Cu2H28C28N20O12
_chemical_formula_sum              "Cu2 H28 C28 N20 O12"
_cell_length_a       6.82053972367395
_cell_length_b       7.992405189372236
_cell_length_c       16.897773352583922
_cell_angle_alpha    90.00065704401528
_cell_angle_beta     89.99921926832543
_cell_angle_gamma    97.88655731716709

_space_group_name_H-M_alt    "P 1"
_space_group_IT_number       1

loop_
  _space_group_symop_operation_xyz
  'x, y, z'

loop_
  _atom_site_type_symbol
  _atom_site_label
  _atom_site_symmetry_multiplicity
  _atom_site_fract_x
  _atom_site_fract_y
  _atom_site_fract_z
  _atom_site_occupancy
  Cu  Cu1       1.0  0.5000014695970235  0.4999980955046012  0.4999989911596002  1.0000
  Cu  Cu2       1.0  0.499998049739709  2.2940712654002964e-06  3.9154252110000014e-07  1.0000
  H   H1        1.0  0.1368148585727837  0.6504144040588854  0.46222383119440025  1.0000
  H   H2        1.0  0.8631895201350374  0.849584412113998  0.9622249271913788  1.0000
  H   H3        1.0  0.863189140907231  0.34958810254931894  0.5377782936967108  1.0000
  H   H4        1.0  0.136808195633499  0.15041559922183007  0.0377783812982173  1.0000
  H   H5        1.0  0.15260948364363713  0.883008584215453  0.5522356886748199  1.0000
  H   H6        1.0  0.8473878604225575  0.6169970596252129  0.0522417213725248  1.0000
  H   H7        1.0  0.847384685764986  0.11699650275063789  0.44776584445656903  1.0000
  H   H8        1.0  0.15261425002948673  0.3830029284949533  0.9477604035169519  1.0000
  H   H9        1.0  0.10827822801073948  0.6347936401067996  0.3234978975741143  1.0000
  H   H10       1.0  0.8917324258845412  0.8651972503977561  0.8234983288718071  1.0000
  H   H11       1.0  0.8917316506228801  0.3652176850768072  0.6765042273247417  1.0000
  H   H12       1.0  0.10826129974940811  0.1347964608568191  0.1765055714056203  1.0000
  H   H13       1.0  0.5365029188478659  0.8093472747012316  0.6242717274107932  1.0000
  H   H14       1.0  0.46349475330551826  0.6906573113213738  0.1242714094766981  1.0000
  H   H15       1.0  0.46348683638512966  0.19064898589401477  0.375723887769297  1.0000
  H   H16       1.0  0.536506740554735  0.30934773696615986  0.8757295318403706  1.0000
  H   H17       1.0  0.4804440803881533  0.45123308833225895  0.3093371055557839  1.0000
  H   H18       1.0  0.5195661524251847  0.048762189537832505  0.8093349141554214  1.0000
  H   H19       1.0  0.5195682647378562  0.5487579960965332  0.6906614685174262  1.0000
  H   H20       1.0  0.4804263400430813  0.9512416420392853  0.1906654353892989  1.0000
  H   H21       1.0  0.8808914660432023  0.022999229566352093  0.6447707419238711  1.0000
  H   H22       1.0  0.11910223151615898  0.4770129995785338  0.1447750738435403  1.0000
  H   H23       1.0  0.11909223712962101  0.9770046483933329  0.3552272404695103  1.0000
  H   H24       1.0  0.8809019800425091  0.5229907701348465  0.8552264592564782  1.0000
  H   H25       1.0  0.7983613351472628  0.5413430503243004  0.2162727302564846  1.0000
  H   H26       1.0  0.20165109529584413  0.958645639065189  0.7162715725722038  1.0000
  H   H27       1.0  0.2016527261090886  0.45866698852627513  0.7837276192454468  1.0000
  H   H28       1.0  0.7983394885181525  0.0413468245288158  0.2837305523286773  1.0000
  C   C1        1.0  0.9893784163735404  0.5848456983506692  0.4791584357414748  1.0000
  C   C2        1.0  0.010623773456359212  0.9151522112887917  0.9791586902770675  1.0000
  C   C3        1.0  0.010620764301428701  0.41515430523847385  0.5208436891561519  1.0000
  C   C4        1.0  0.9893758313490935  0.08485031852897858  0.0208440264202139  1.0000
  C   C5        1.0  0.9975189782594711  0.840211116431057  0.5644851437458982  1.0000
  C   C6        1.0  0.0024798845673004092  0.6597972982132488  0.06448898497755101  1.0000
  C   C7        1.0  0.0024735142177406003  0.15979271513996446  0.43551461400488023  1.0000
  C   C8        1.0  0.9975209730748632  0.34020396074657805  0.9355125481249046  1.0000
  C   C9        1.0  0.9529629817711509  0.5843259688609449  0.3321758559005588  1.0000
  C   C10       1.0  0.04704719771683592  0.9156638373000874  0.8321765034430442  1.0000
  C   C11       1.0  0.04704604860150849  0.4156803038654003  0.6678250853989809  1.0000
  C   C12       1.0  0.9529484169629756  0.08433239243034049  0.16782621324811936  1.0000
  C   C13       1.0  0.6818372419460133  0.798219308460105  0.6007812176908018  1.0000
  C   C14       1.0  0.31815863467377875  0.7017873353595757  0.1007817648719538  1.0000
  C   C15       1.0  0.3181527253298669  0.20177821526469586  0.3992161728739845  1.0000
  C   C16       1.0  0.6818422229683847  0.29821392360025095  0.8992197682305019  1.0000
  C   C17       1.0  0.6312740867866182  0.49160026977947513  0.3280126314578311  1.0000
  C   C18       1.0  0.36873641013644226  0.008391595743582102  0.8280110550489255  1.0000
  C   C19       1.0  0.3687391066093043  0.5083958671004823  0.6719865344207392  1.0000
  C   C20       1.0  0.6312571230809283  0.9916097018765128  0.1719892944860106  1.0000
  C   C21       1.0  0.8592493418727257  0.908029316377366  0.6101343291105152  1.0000
  C   C22       1.0  0.1407452111943144  0.5919800541135061  0.1101388109150889  1.0000
  C   C23       1.0  0.1407387559657067  0.09197453837884237  0.38986365327063777  1.0000
  C   C24       1.0  0.859258788294639  0.408022452488609  0.8898627221820732  1.0000
  C   C25       1.0  0.7972325225697999  0.5409312044181505  0.2803137143136283  1.0000
  C   C26       1.0  0.2027775477776572  0.9590562779898945  0.780312552627727  1.0000
  C   C27       1.0  0.20278047834693072  0.4590725188699949  0.7196860433800865  1.0000
  C   C28       1.0  0.7972155612823928  0.04094249341985549  0.2196889804894013  1.0000
  N   N1        1.0  0.7092812516423238  0.6673360102226125  0.5540101259574328  1.0000
  N   N2        1.0  0.2907197973447992  0.8326658575621194  0.054009170846598  1.0000
  N   N3        1.0  0.2907191818872477  0.33266272249639417  0.4459896317574774  1.0000
  N   N4        1.0  0.7092800195572054  0.16733793534864108  0.9459917704716929  1.0000
  N   N5        1.0  0.8785110089479744  0.5587436758037682  0.4065911222392131  1.0000
  N   N6        1.0  0.12149273839572315  0.9412489496078462  0.9065903134591763  1.0000
  N   N7        1.0  0.12149507205708691  0.44125376287210116  0.5934092272504827  1.0000
  N   N8        1.0  0.8785020476136368  0.0587510771847803  0.0934118114506788  1.0000
  N   N9        1.0  0.6809861764820511  0.5004865576880135  0.4051451658405938  1.0000
  N   N10       1.0  0.3190195036035917  0.9995085564231091  0.9051441728366142  1.0000
  N   N11       1.0  0.31902345090976075  0.4995058053393109  0.5948551836254623  1.0000
  N   N12       1.0  0.6809788483919803  0.0004952442343296001  0.0948579520736459  1.0000
  N   N13       1.0  0.9027997246637439  0.6966808463417847  0.5314753403431212  1.0000
  N   N14       1.0  0.0972020055262917  0.803320557242955  0.0314758883676021  1.0000
  N   N15       1.0  0.0971965262430956  0.3033191727102533  0.4685261927687066  1.0000
  N   N16       1.0  0.9027986400461643  0.19667943860560652  0.9685256447320044  1.0000
  N   N17       1.0  0.5257648232124054  0.17330479203176447  0.6146622499424055  1.0000
  N   N18       1.0  0.4742335232634929  0.3266941549100649  0.1146744495328704  1.0000
  N   N19       1.0  0.4742431273553294  0.8266863155273539  0.3853292226156597  1.0000
  N   N20       1.0  0.5257631517917217  0.6733083903584073  0.8853264917907211  1.0000
  O   O1        1.0  0.611556852741586  0.24197048342335847  0.5526297661305364  1.0000
  O   O2        1.0  0.3884401682375654  0.2579993895319674  0.05264798441653079  1.0000
  O   O3        1.0  0.3884468564765911  0.7579953618799419  0.4473587474007203  1.0000
  O   O4        1.0  0.6115583958545585  0.742005674218454  0.9473523651147459  1.0000
  O   O5        1.0  0.35450198298148194  0.09328302959671221  0.6085149504552305  1.0000
  O   O6        1.0  0.6454969539910209  0.40670946733570185  0.1085189446212667  1.0000
  O   O7        1.0  0.6455122119825134  0.9066928742873017  0.3914830317775682  1.0000
  O   O8        1.0  0.35450243877155435  0.593291799352521  0.8914819966913186  1.0000
  O   O9        1.0  0.6152579651310147  0.1882881707381827  0.6803606399659826  1.0000
  O   O10       1.0  0.3847359484397828  0.3117412198231264  0.1803732534091438  1.0000
  O   O11       1.0  0.38474127447652506  0.8117383812996196  0.31963260809457944  1.0000
  O   O12       1.0  0.6152611507548614  0.6882638516678838  0.8196276879201534  1.0000
