data_image0
_chemical_formula_structural       Cd2H60C54N16O12
_chemical_formula_sum              "Cd2 H60 C54 N16 O12"
_cell_length_a       9.223498668544101
_cell_length_b       11.563459368359858
_cell_length_c       14.347026725041902
_cell_angle_alpha    79.58096256566049
_cell_angle_beta     80.79195617629001
_cell_angle_gamma    78.03170329008995

_space_group_name_H-M_alt    "P 1"
_space_group_IT_number       1

loop_
  _space_group_symop_operation_xyz
  'x, y, z'

loop_
  _atom_site_type_symbol
  _atom_site_label
  _atom_site_symmetry_multiplicity
  _atom_site_fract_x
  _atom_site_fract_y
  _atom_site_fract_z
  _atom_site_occupancy
  Cd  Cd1       1.0  0.5189282330446828  0.7125677359373556  0.7474947227124245  1.0000
  Cd  Cd2       1.0  0.4810702130679303  0.2874306369701216  0.252505143044324  1.0000
  H   H1        1.0  0.2694377209732223  0.5690864499084539  0.7423006720174851  1.0000
  H   H2        1.0  0.7305584490860824  0.4309173138390463  0.25770070837130976  1.0000
  H   H3        1.0  0.9365584798489338  0.7679419019614641  0.5656342117053296  1.0000
  H   H4        1.0  0.06344328727712417  0.2320564227966813  0.4343625387758862  1.0000
  H   H5        1.0  0.08410491697707563  0.93522096861539  0.5304599061531048  1.0000
  H   H6        1.0  0.9158944459166135  0.0647782795054965  0.46953834245980614  1.0000
  H   H7        1.0  0.31527098858212105  0.9110630914872287  0.6060318209552447  1.0000
  H   H8        1.0  0.6847277938619171  0.08893884002715421  0.3939660850965651  1.0000
  H   H9        1.0  0.9083129293686696  0.5620411904471823  0.6561164870273044  1.0000
  H   H10       1.0  0.0916895219375249  0.437958942404542  0.34388410650257123  1.0000
  H   H11       1.0  0.9129349642567915  0.36688199726174286  0.6958452451516022  1.0000
  H   H12       1.0  0.08706638656454398  0.6331181452371482  0.30415545774020086  1.0000
  H   H13       1.0  0.23527525819855546  0.2323919747452265  0.6580089893975438  1.0000
  H   H14       1.0  0.7647230139897018  0.7676072734189037  0.341987974982409  1.0000
  H   H15       1.0  0.11642472572948749  0.296896890216928  0.5699405432958855  1.0000
  H   H16       1.0  0.8835726198982667  0.7031014923377157  0.4300594318227766  1.0000
  H   H17       1.0  0.9662970333316848  0.3438336703139626  0.8627593493691559  1.0000
  H   H18       1.0  0.03370723686751378  0.6561682273704647  0.13724010026537306  1.0000
  H   H19       1.0  0.14809567035056395  0.26236777158517555  0.8317924613987554  1.0000
  H   H20       1.0  0.8519091851880065  0.7376314379038008  0.16820663399943198  1.0000
  H   H21       1.0  0.9356803005617067  0.1612718080870295  0.6437396675248903  1.0000
  H   H22       1.0  0.06431625646403213  0.8387301667314802  0.3562619412379746  1.0000
  H   H23       1.0  0.11618161279508138  0.0787631264025634  0.6133505904052539  1.0000
  H   H24       1.0  0.8838120395219421  0.9212370788245322  0.3866501812225564  1.0000
  H   H25       1.0  0.16365274294608412  0.045536640597269695  0.7827036597195939  1.0000
  H   H26       1.0  0.8363424017119527  0.9544617612517072  0.21729653412291577  1.0000
  H   H27       1.0  0.9721252116571362  0.1230958948118115  0.9080174005704645  1.0000
  H   H28       1.0  0.027877046165841114  0.8769051325044115  0.09198307877238684  1.0000
  H   H29       1.0  0.8473287806273933  0.18914808975305417  0.8245975133424462  1.0000
  H   H30       1.0  0.15267327882265394  0.8108538368296223  0.17540354861081645  1.0000
  H   H31       1.0  0.11102317083006598  0.870677712844831  0.8707808724589083  1.0000
  H   H32       1.0  0.8889752899517018  0.1293206456567688  0.12921690290551877  1.0000
  H   H33       1.0  0.039156831701980345  0.6914860501473116  0.9764113832822684  1.0000
  H   H34       1.0  0.9608370189879737  0.3085132558133239  0.02358880573513028  1.0000
  H   H35       1.0  0.870184331638029  0.5380370615066639  0.018041082761506313  1.0000
  H   H36       1.0  0.12981301398972525  0.46196132104797977  0.9819588923571627  1.0000
  H   H37       1.0  0.6704360762109899  0.550438824110124  0.9183770243648437  1.0000
  H   H38       1.0  0.32956107593354733  0.44956045290901164  0.08162283656679384  1.0000
  H   H39       1.0  0.7777061599352703  0.8624478400034122  0.7500892496250697  1.0000
  H   H40       1.0  0.2222909775401263  0.13755145142160793  0.24991270169889643  1.0000
  H   H41       1.0  0.5327187329065453  0.42019817773500295  0.8179030509726457  1.0000
  H   H42       1.0  0.46727782411919344  0.5798037970834998  0.18209855779021916  1.0000
  H   H43       1.0  0.6440243455581864  0.24116175746554797  0.5703969052575102  1.0000
  H   H44       1.0  0.3559773415945671  0.758841943640249  0.4296018379293542  1.0000
  H   H45       1.0  0.6930116756534659  0.4377719380891563  0.47244649944180833  1.0000
  H   H46       1.0  0.30698961475341946  0.5622335615495473  0.5275534089658789  1.0000
  H   H47       1.0  0.6545137771750262  0.6163306062364596  0.5541882546751252  1.0000
  H   H48       1.0  0.3454831015129828  0.38367494159482624  0.44581348477512944  1.0000
  H   H49       1.0  0.5678300664409263  0.1265604591443648  0.7213235960087443  1.0000
  H   H50       1.0  0.43216851763017405  0.8734423716364718  0.27867489265347695  1.0000
  H   H51       1.0  0.49554716792199116  0.0150722671232799  0.8570646396779862  1.0000
  H   H52       1.0  0.5044577022857197  0.984926927959826  0.1429323653278729  1.0000
  H   H53       1.0  0.2672152586853613  0.1253903364706872  0.94365446943123  1.0000
  H   H54       1.0  0.7327888980039247  0.8746070793305806  0.056342873310619324  1.0000
  H   H55       1.0  0.37834443564092607  0.16053219944853936  0.020552366405397014  1.0000
  H   H56       1.0  0.6216584221905634  0.8394661252663621  0.9794456683087771  1.0000
  H   H57       1.0  0.6639477671111605  0.09270710120613049  0.9957732743638059  1.0000
  H   H58       1.0  0.3360572819106267  0.9072912138183467  0.004225935221413088  1.0000
  H   H59       1.0  0.7435819498914  0.012760679032503195  0.900072710124064  1.0000
  H   H60       1.0  0.2564220084249555  0.9872376360352317  0.0999252152281898  1.0000
  C   C1        1.0  0.2255884809283089  0.6492617368799927  0.6949434118533303  1.0000
  C   C2        1.0  0.7744091912514364  0.3507402138854658  0.3050559971552857  1.0000
  C   C3        1.0  0.09556626368558332  0.6541005461726429  0.6545241191779564  1.0000
  C   C4        1.0  0.9044351066946064  0.3458995771184092  0.3454737965240823  1.0000
  C   C5        1.0  0.040033300205344284  0.7597121721256245  0.5961485129268452  1.0000
  C   C6        1.0  0.9599656757219107  0.24028886492425977  0.4038495073120031  1.0000
  C   C7        1.0  0.1197660528421451  0.8529034520938621  0.5776624778803876  1.0000
  C   C8        1.0  0.8802301074377253  0.1471003212575539  0.4223402961033002  1.0000
  C   C9        1.0  0.24988434683288568  0.8401052140442145  0.6190649877014777  1.0000
  C   C10       1.0  0.7501159132830183  0.15989492849792702  0.3809344309573674  1.0000
  C   C11       1.0  0.02550417257548788  0.5480561048220594  0.6705557486026805  1.0000
  C   C12       1.0  0.9744964891759978  0.45194223438520703  0.32944180803789874  1.0000
  C   C13       1.0  0.030547925343874693  0.3415143906461111  0.7114788239698979  1.0000
  C   C14       1.0  0.9694534352568882  0.6584857422488638  0.2885204853270195  1.0000
  C   C15       1.0  0.11743207540670399  0.2538213168515995  0.6448514848892444  1.0000
  C   C16       1.0  0.8825674663010615  0.7461770512106726  0.35514896830301973  1.0000
  C   C17       1.0  0.03176988925077501  0.281197757814489  0.815775840511989  1.0000
  C   C18       1.0  0.9682360716623605  0.7188014372253662  0.18422244872683533  1.0000
  C   C19       1.0  0.0512500460633163  0.1402104712299135  0.6613464456659626  1.0000
  C   C20       1.0  0.948747289785011  0.859787920928646  0.33865492304758493  1.0000
  C   C21       1.0  0.0475948872510656  0.07824081411293092  0.7655367561248949  1.0000
  C   C22       1.0  0.9524022502243312  0.9217584773120889  0.2344651951990642  1.0000
  C   C23       1.0  0.9666862242517879  0.1670488808543382  0.8335895261020309  1.0000
  C   C24       1.0  0.033314021194975445  0.8329512760936805  0.1664119829491355  1.0000
  C   C25       1.0  0.008949061051964666  0.8849014097586191  0.8357619441233195  1.0000
  C   C26       1.0  0.9910464101580557  0.11510056030117971  0.1642376836091443  1.0000
  C   C27       1.0  0.9210663527958118  0.7884033312027653  0.8591163271206452  1.0000
  C   C28       1.0  0.07893060097579511  0.21159684508283053  0.14088411642140383  1.0000
  C   C29       1.0  0.9483338761470106  0.6951329875175815  0.9349774899095561  1.0000
  C   C30       1.0  0.05166289881051968  0.3048680688266288  0.06502074905312577  1.0000
  C   C31       1.0  0.8566815334741238  0.6095888746658034  0.9576577054373341  1.0000
  C   C32       1.0  0.14331592077382987  0.39041399457394727  0.04234507337145741  1.0000
  C   C33       1.0  0.7432537811823606  0.6164816689870563  0.9026605542831658  1.0000
  C   C34       1.0  0.25674574096654373  0.38351671828304756  0.09734268609886948  1.0000
  C   C35       1.0  0.8030359391181323  0.7896917876309928  0.8082081992106109  1.0000
  C   C36       1.0  0.19695900716697415  0.21030751348443746  0.19179257724231036  1.0000
  C   C37       1.0  0.5680488692696458  0.42144393827896925  0.7414991938844222  1.0000
  C   C38       1.0  0.4319487833512383  0.5785580316943353  0.25850300231395795  1.0000
  C   C39       1.0  0.5850269361488216  0.3161803226015678  0.7016146087461974  1.0000
  C   C40       1.0  0.414973497891438  0.6838189446839139  0.29838771128944325  1.0000
  C   C41       1.0  0.6304458936975832  0.32154635333147746  0.6032108191179473  1.0000
  C   C42       1.0  0.3695546880805906  0.6784573622234406  0.39678873022828737  1.0000
  C   C43       1.0  0.6576691771034859  0.42954701851385824  0.5490372236564764  1.0000
  C   C44       1.0  0.34232919881524987  0.5704567211373472  0.4509632412110418  1.0000
  C   C45       1.0  0.6369876780638463  0.5295985814620111  0.594068912647934  1.0000
  C   C46       1.0  0.36301179345004186  0.4704051533439895  0.4059321396551069  1.0000
  C   C47       1.0  0.5569379016383279  0.20283153617611302  0.7603367499929872  1.0000
  C   C48       1.0  0.4430617633587699  0.7971713041653956  0.2396644164970851  1.0000
  C   C49       1.0  0.5065518170702461  0.07751835456916471  0.9047626945054146  1.0000
  C   C50       1.0  0.4934534254347581  0.9224790659908209  0.09523662926683583  1.0000
  C   C51       1.0  0.36817570488980067  0.09160979144031958  0.9793828214112776  1.0000
  C   C52       1.0  0.6318282436471205  0.9083885332313316  0.020616497535861804  1.0000
  C   C53       1.0  0.6466102678553722  0.025974261687650803  0.9548683026417774  1.0000
  C   C54       1.0  0.3533949844290588  0.9740231492684188  0.04512962753559444  1.0000
  N   N1        1.0  0.30087061677745214  0.7399607113571491  0.67762296682244  1.0000
  N   N2        1.0  0.6991283493703763  0.2600403352966509  0.3223764470112868  1.0000
  N   N3        1.0  0.10101499187340583  0.444907953832157  0.6974628725123393  1.0000
  N   N4        1.0  0.8989891501467395  0.5550894763749952  0.3025365606218385  1.0000
  N   N5        1.0  0.9648852447032609  0.9808967701826744  0.7798281504942677  1.0000
  N   N6        1.0  0.0351109857704941  0.0191016364250132  0.22017402437864314  1.0000
  N   N7        1.0  0.7177875033734794  0.7053282541773598  0.8285323610545274  1.0000
  N   N8        1.0  0.28221111177379027  0.2946692482754187  0.17147110287645964  1.0000
  N   N9        1.0  0.592309062058085  0.5257085958261031  0.6888569648256676  1.0000
  N   N10       1.0  0.4076880150028614  0.47429605273872255  0.3111441920141828  1.0000
  N   N11       1.0  0.5242929896519114  0.19395885452288295  0.8509949308471928  1.0000
  N   N12       1.0  0.47571334355851735  0.8060385659938587  0.14900567715802274  1.0000
  N   N13       1.0  0.6280023116663783  0.9051083308650404  0.6094019903324579  1.0000
  N   N14       1.0  0.37200329824620587  0.09488731997378612  0.3906003490036268  1.0000
  N   N15       1.0  0.34157347847715874  0.6776446108382713  0.9338490449337155  1.0000
  N   N16       1.0  0.6584262567138239  0.32235286275950154  0.06615152244557979  1.0000
  O   O1        1.0  0.3592949438210553  0.7808451438154266  0.8874972195424885  1.0000
  O   O2        1.0  0.640703115325131  0.21915501802104842  0.11250241784019008  1.0000
  O   O3        1.0  0.40232057156615036  0.58520132945263  0.8944383321758733  1.0000
  O   O4        1.0  0.59767819620874  0.41480061646763033  0.10556166426826505  1.0000
  O   O5        1.0  0.2659064182106333  0.6683838569116674  0.014083458109162507  1.0000
  O   O6        1.0  0.7340969498766299  0.33161715115347323  0.9859155182768828  1.0000
  O   O7        1.0  0.5268456330821322  0.9267304815288921  0.6798950656751257  1.0000
  O   O8        1.0  0.47316970411799303  0.0732606630277601  0.3201132408777311  1.0000
  O   O9        1.0  0.6731520104715898  0.7955374410916036  0.5966134823686742  1.0000
  O   O10       1.0  0.32684957295067824  0.2044617685271177  0.4033817603306246  1.0000
  O   O11       1.0  0.6822404207773048  0.987220192336899  0.5561053408402329  1.0000
  O   O12       1.0  0.3177556064337992  0.0127791183392034  0.44389811344053226  1.0000
