data_image0
_chemical_formula_structural       Cd2H28C40N8O8
_chemical_formula_sum              "Cd2 H28 C40 N8 O8"
_cell_length_a       9.099552064607174
_cell_length_b       9.134009431500104
_cell_length_c       14.824693868472881
_cell_angle_alpha    96.61268943067691
_cell_angle_beta     103.56988670993553
_cell_angle_gamma    107.38314443718849

_space_group_name_H-M_alt    "P 1"
_space_group_IT_number       1

loop_
  _space_group_symop_operation_xyz
  'x, y, z'

loop_
  _atom_site_type_symbol
  _atom_site_label
  _atom_site_symmetry_multiplicity
  _atom_site_fract_x
  _atom_site_fract_y
  _atom_site_fract_z
  _atom_site_occupancy
  Cd  Cd1       1.0  0.4005206201378754  0.9217580213985881  0.8061840411599094  1.0000
  Cd  Cd2       1.0  0.6608263334197204  0.755325680826921  0.40721232985422534  1.0000
  H   H1        1.0  0.0755107551260607  0.8477191798853027  0.5069526095798268  1.0000
  H   H2        1.0  0.27482208060799707  0.8323103543843401  0.39138025306002094  1.0000
  H   H3        1.0  0.8146815982660343  0.8002428252862259  0.2239288375417915  1.0000
  H   H4        1.0  0.8778022358806864  0.7096549719791199  0.1026803405715313  1.0000
  H   H5        1.0  0.9766605549163855  0.7222237490359757  0.9602475103749132  1.0000
  H   H6        1.0  0.46361292681332605  0.9114856151592933  0.1367102386204025  1.0000
  H   H7        1.0  0.36995548034297343  0.9087318695584657  0.2801620652012532  1.0000
  H   H8        1.0  0.8248585587315986  0.8569641311677783  0.6313520102291506  1.0000
  H   H9        1.0  0.01313062089473498  0.7203691027117571  0.7444506950221028  1.0000
  H   H10       1.0  0.7811472112116534  0.42583078683507836  0.4724214253556625  1.0000
  H   H11       1.0  0.9544310847426658  0.3029780603329754  0.5060366720426188  1.0000
  H   H12       1.0  0.0952948540151155  0.12278497387571718  0.5622286500656417  1.0000
  H   H13       1.0  0.20580326266558302  0.35984912316543227  0.8498194871141609  1.0000
  H   H14       1.0  0.05880717371802289  0.5365104432081154  0.7964470163325718  1.0000
  H   H15       1.0  0.7290058976646208  0.8428895917058482  0.7615272963591482  1.0000
  H   H16       1.0  0.03298131966997882  0.9809909603768431  0.8868966305998998  1.0000
  H   H17       1.0  0.7253867944715255  0.2269544237936572  0.9463049792121229  1.0000
  H   H18       1.0  0.23561375293792244  0.20906428739627358  0.9607171004189115  1.0000
  H   H19       1.0  0.452801907496621  0.3896342860604349  0.09853059863931435  1.0000
  H   H20       1.0  0.10404848974624058  0.4712430066245473  0.22983744566181497  1.0000
  H   H21       1.0  0.8832205171395628  0.2899767776069665  0.09371697182437087  1.0000
  H   H22       1.0  0.30570251989982467  0.8393824102113783  0.5807523508790882  1.0000
  H   H23       1.0  0.34153898895115725  0.5981141149174076  0.4648604631485613  1.0000
  H   H24       1.0  0.4573214875227124  0.5459523248321503  0.7516453005813093  1.0000
  H   H25       1.0  0.3488807455077562  0.3835542008731281  0.4213919105662357  1.0000
  H   H26       1.0  0.4363090817476801  0.16411332982122667  0.3706907133533691  1.0000
  H   H27       1.0  0.6461916908770675  0.1565126215750539  0.6608488656846847  1.0000
  H   H28       1.0  0.5667812922557546  0.3808277448224188  0.7140344289234196  1.0000
  C   C1        1.0  0.05183415706556349  0.8364862019174879  0.430806602417107  1.0000
  C   C2        1.0  0.15198533485405358  0.8306540786480952  0.375325262099267  1.0000
  C   C3        1.0  0.9125651414141062  0.813575756636162  0.2856454640242064  1.0000
  C   C4        1.0  0.11719252367134195  0.811924015198386  0.2006097159252819  1.0000
  C   C5        1.0  0.006161057987426842  0.7562500802768851  0.11061717035624954  1.0000
  C   C6        1.0  0.061256533281920135  0.7615206258654439  0.03077940389592021  1.0000
  C   C7        1.0  0.22609012907619067  0.8190553807417871  0.03955978195555332  1.0000
  C   C8        1.0  0.33549033818160007  0.8682289123338619  0.13004469014543932  1.0000
  C   C9        1.0  0.2821307835331979  0.8663029363517224  0.21057503290068524  1.0000
  C   C10       1.0  0.2837359987419886  0.8368477166003885  0.9537865921625939  1.0000
  C   C11       1.0  0.8427032498754911  0.7457505590057918  0.6164355971319326  1.0000
  C   C12       1.0  0.9346606995171458  0.6786404496154576  0.6727071231186914  1.0000
  C   C13       1.0  0.8189158635682717  0.5257619356481411  0.5298170678242118  1.0000
  C   C14       1.0  0.9961494206104433  0.4311122069112656  0.6475563610767028  1.0000
  C   C15       1.0  0.006374080195023161  0.31439965527010827  0.5816600124450135  1.0000
  C   C16       1.0  0.08621970780404097  0.21342208246265665  0.6130129458967917  1.0000
  C   C17       1.0  0.15992633400310297  0.22971854153264806  0.7096278892765755  1.0000
  C   C18       1.0  0.1476070616764602  0.3462307375437844  0.7747619888668428  1.0000
  C   C19       1.0  0.06487813613794907  0.4453889092663417  0.7446003628321239  1.0000
  C   C20       1.0  0.25246116166929505  0.12630259947413686  0.7432017719611895  1.0000
  C   C21       1.0  0.7740529966850646  0.9443757146272559  0.8185963087423931  1.0000
  C   C22       1.0  0.9254111955828679  0.012404726486870686  0.8799010413938791  1.0000
  C   C23       1.0  0.7658958699764683  0.1408425218745393  0.912561502234205  1.0000
  C   C24       1.0  0.04539520153598178  0.2398294885702299  0.018271840870298206  1.0000
  C   C25       1.0  0.20556883285021849  0.2654006093619685  0.0195825431101184  1.0000
  C   C26       1.0  0.327437751585606  0.3668570855996194  0.09658105418223073  1.0000
  C   C27       1.0  0.29192746504619277  0.44180272366536844  0.17250787662608502  1.0000
  C   C28       1.0  0.13101840979519608  0.4136376484181241  0.17035228919453976  1.0000
  C   C29       1.0  0.007894755290990927  0.31340009410921976  0.09379023009559263  1.0000
  C   C30       1.0  0.4239482836064425  0.5499292366943677  0.25504338365111323  1.0000
  C   C31       1.0  0.3402857721173262  0.7402555097941033  0.5977450825154238  1.0000
  C   C32       1.0  0.35696912272671716  0.6215155356997002  0.540427599365984  1.0000
  C   C33       1.0  0.42309339334688906  0.5951588869637235  0.6902972500560555  1.0000
  C   C34       1.0  0.4524200687694843  0.3973548693582599  0.571242039497321  1.0000
  C   C35       1.0  0.4130715881604844  0.3343382918820977  0.47450693312128345  1.0000
  C   C36       1.0  0.4625422347964657  0.21126612195634917  0.44584600592956763  1.0000
  C   C37       1.0  0.5482872696315014  0.1476095417964061  0.5124652793498827  1.0000
  C   C38       1.0  0.5817445955263097  0.20782987992856758  0.6091211810046817  1.0000
  C   C39       1.0  0.5359758776979007  0.3332465618438362  0.6386377859993859  1.0000
  C   C40       1.0  0.601695227081443  0.015898517904346893  0.4808761176361218  1.0000
  N   N1        1.0  0.9034620323917937  0.8258966422186091  0.37394000008643513  1.0000
  N   N2        1.0  0.062204475644442356  0.815972588304909  0.2827710290262503  1.0000
  N   N3        1.0  0.7702422153111144  0.6490005437078636  0.5278592858020874  1.0000
  N   N4        1.0  0.9193385183002789  0.5385086776056197  0.617190110686231  1.0000
  N   N5        1.0  0.6761068109906818  0.025736569966085192  0.8393625177245955  1.0000
  N   N6        1.0  0.9189168298337975  0.1373558936297385  0.9400880229791968  1.0000
  N   N7        1.0  0.3807981741040649  0.7222426936972752  0.6906460648491903  1.0000
  N   N8        1.0  0.4108803059354926  0.5297242911325951  0.5999105076011093  1.0000
  O   O1        1.0  0.17904038317875146  0.8098335237458655  0.8735526583420427  1.0000
  O   O2        1.0  0.4343175875184357  0.8843120409916452  0.9631041065552923  1.0000
  O   O3        1.0  0.24241121547562725  0.007337942842987391  0.6845745942086838  1.0000
  O   O4        1.0  0.3380403084478445  0.16013443367173608  0.8295941325063654  1.0000
  O   O5        1.0  0.38898646094614253  0.5910898700674635  0.33098560036574304  1.0000
  O   O6        1.0  0.5662850494285722  0.5975734103988444  0.24787928587462466  1.0000
  O   O7        1.0  0.5807257395190462  0.973796867066497  0.3916005352692055  1.0000
  O   O8        1.0  0.6619360796296334  0.9478286780303338  0.5419019438558765  1.0000
