data_image0
_chemical_formula_structural       Zn4H60C48N12O20
_chemical_formula_sum              "Zn4 H60 C48 N12 O20"
_cell_length_a       9.21471473947526
_cell_length_b       11.095329649
_cell_length_c       14.054
_cell_angle_alpha    90.0
_cell_angle_beta     92.07713839885625
_cell_angle_gamma    90.0

_space_group_name_H-M_alt    "P 1"
_space_group_IT_number       1

loop_
  _space_group_symop_operation_xyz
  'x, y, z'

loop_
  _atom_site_type_symbol
  _atom_site_label
  _atom_site_symmetry_multiplicity
  _atom_site_fract_x
  _atom_site_fract_y
  _atom_site_fract_z
  _atom_site_occupancy
  Zn  Zn1       1.0  0.7833734701552901  0.7833232787980577  0.1559952010229679  1.0000
  Zn  Zn2       1.0  0.716627603236482  0.28332371362065356  0.8440048600627676  1.0000
  Zn  Zn3       1.0  0.2166276074173297  0.21667585155675795  0.8440046111227061  1.0000
  Zn  Zn4       1.0  0.2833702165331857  0.7166781205745139  0.15599629774507656  1.0000
  H   H1        1.0  0.542798839158408  0.1539909181656469  0.14830281456482203  1.0000
  H   H2        1.0  0.957202234233364  0.6539922859032857  0.8516972465209135  1.0000
  H   H3        1.0  0.4572022384142116  0.846008212189169  0.851696997580845  1.0000
  H   H4        1.0  0.0427999292735777  0.34600864701176454  0.1483011683491  1.0000
  H   H5        1.0  0.5555020988098534  0.321000827615876  0.2680105649263709  1.0000
  H   H6        1.0  0.9445000605162406  0.8210003927932874  0.7319880988837114  1.0000
  H   H7        1.0  0.4445011506314103  0.6789992040190499  0.731988587291582  1.0000
  H   H8        1.0  0.055502102990701  0.1789987375615283  0.2680103159863094  1.0000
  H   H9        1.0  0.8571485899142317  0.1132530568943722  0.4416256216094823  1.0000
  H   H10       1.0  0.6428546553461842  0.6132535233518936  0.5583744910897295  1.0000
  H   H11       1.0  0.1428514017240801  0.8867451721803263  0.5583755878118382  1.0000
  H   H12       1.0  0.3571475081607574  0.3867465082830392  0.4416246353214817  1.0000
  H   H13       1.0  0.9216661196125955  0.924941423522732  0.4083146792579342  1.0000
  H   H14       1.0  0.5783327819105466  0.4249427596254378  0.5916860417555087  1.0000
  H   H15       1.0  0.0783327860913943  0.0750559042718564  0.591685792815447  1.0000
  H   H16       1.0  0.4216661237934431  0.5750581732896124  0.40831443031787273  1.0000
  H   H17       1.0  0.9690888712777053  0.7283938608104706  0.4072373050271382  1.0000
  H   H18       1.0  0.5309122021140738  0.2283942956330662  0.5927627560585904  1.0000
  H   H19       1.0  0.030912206294921404  0.2716052695443452  0.5927617955773313  1.0000
  H   H20       1.0  0.46908996139286785  0.7716066372819839  0.4072377934350158  1.0000
  H   H21       1.0  0.0627203084021488  0.7203084768842629  0.2992178573816915  1.0000
  H   H22       1.0  0.4372807733513184  0.2203098129869758  0.7007817058239142  1.0000
  H   H23       1.0  0.937280769170478  0.2796897521904356  0.700781243222778  1.0000
  H   H24       1.0  0.5627203042213011  0.7796911199280744  0.2992173947805554  1.0000
  H   H25       1.0  0.9374990419683868  0.5265386594914291  0.32953127170413404  1.0000
  H   H26       1.0  0.5625009454890773  0.026539094314024705  0.6704687635748598  1.0000
  H   H27       1.0  0.0625009496699249  0.4734604708633867  0.6704685146347913  1.0000
  H   H28       1.0  0.43749904614922747  0.9734609373209082  0.3295310227640726  1.0000
  H   H29       1.0  0.7681790771784591  0.6022119406431727  0.3335941244805483  1.0000
  H   H30       1.0  0.7318209102789979  0.1022114741856441  0.6664066223396432  1.0000
  H   H31       1.0  0.2318209144598455  0.397787189711643  0.6664063733995818  1.0000
  H   H32       1.0  0.2681790813593068  0.8977876561691716  0.3335938755404797  1.0000
  H   H33       1.0  0.8005877009635256  0.41264569371426063  0.2017351561464125  1.0000
  H   H34       1.0  0.6994112005596165  0.9126452588916651  0.7982648533258327  1.0000
  H   H35       1.0  0.1994112047404641  0.5873543379206723  0.7982646043857713  1.0000
  H   H36       1.0  0.3005887910786883  0.0873556740233781  0.20173493301309262  1.0000
  H   H37       1.0  0.7668173155437472  0.48481479777257874  0.08979415218205129  1.0000
  H   H38       1.0  0.7331815859793951  0.984814362949983  0.9102065688313985  1.0000
  H   H39       1.0  0.23318050422592762  0.5151852338623542  0.9102062940845955  1.0000
  H   H40       1.0  0.2668173197245949  0.0151856686849499  0.08979390324198279  1.0000
  H   H41       1.0  0.6508493037949706  0.5136638730255002  0.18573539251647733  1.0000
  H   H42       1.0  0.8491506836624865  0.013663406567978603  0.8142653543037142  1.0000
  H   H43       1.0  0.3491506878433341  0.48633615860943286  0.8142658169048503  1.0000
  H   H44       1.0  0.1508493079758182  0.9863366250669543  0.1857358551176134  1.0000
  H   H45       1.0  0.6897257523777753  0.722927596903162  0.9432702031350075  1.0000
  H   H46       1.0  0.8102688054080929  0.22292983428599203  0.056727568486685705  1.0000
  H   H47       1.0  0.3102698955232626  0.2770706321715366  0.0567280568945563  1.0000
  H   H48       1.0  0.1897311862302118  0.7770719999091753  0.9432729293934443  1.0000
  H   H49       1.0  0.5308872256247598  0.6515588295884102  0.8895033038156228  1.0000
  H   H50       1.0  0.9691051602924716  0.1515592644109987  0.11049868543977229  1.0000
  H   H51       1.0  0.46910516447331935  0.3484412020465228  0.11049914804090828  1.0000
  H   H52       1.0  0.030895917280148  0.8484407672239342  0.8895018382470923  1.0000
  H   H53       1.0  0.654047380361348  0.5686464665399669  0.9637379623185396  1.0000
  H   H54       1.0  0.8459471774245203  0.0686478026426798  0.0362626554679437  1.0000
  H   H55       1.0  0.3459460956710458  0.4313526638148489  0.036262380721140595  1.0000
  H   H56       1.0  0.1540528142137845  0.9313531302723703  0.9637378424121863  1.0000
  H   H57       1.0  0.9552518961983196  0.5912577821057567  0.1687734250075152  1.0000
  H   H58       1.0  0.5447480912591374  0.0912582169283525  0.8312273218126762  1.0000
  H   H59       1.0  0.04474809543998501  0.4087413482490589  0.8312270728726149  1.0000
  H   H60       1.0  0.4552519003791673  0.9087418147065806  0.1687724645262492  1.0000
  C   C1        1.0  0.6910820843408985  0.036443261515572103  0.22601269617921818  1.0000
  C   C2        1.0  0.8089200749851955  0.5364437279731007  0.773987390713252  1.0000
  C   C3        1.0  0.3089200791660431  0.9635558688392436  0.7739871417731905  1.0000
  C   C4        1.0  0.1910810025874312  0.4635572049419494  0.2260117098912175  1.0000
  C   C5        1.0  0.6107316322867433  0.146478748393605  0.2130422958355283  1.0000
  C   C6        1.0  0.8892705270393506  0.6464792148511336  0.786957791056942  1.0000
  C   C7        1.0  0.3892705312201983  0.8535212832413279  0.7869575421168803  1.0000
  C   C8        1.0  0.110731636467591  0.3535217180639165  0.2130406238130718  1.0000
  C   C9        1.0  0.6182495555699532  0.2386103057549605  0.2782209559069386  1.0000
  C   C10       1.0  0.8817536896904627  0.738610772212489  0.7217784452510755  1.0000
  C   C11       1.0  0.3817526079369884  0.7613897258799655  0.7217781705042725  1.0000
  C   C12       1.0  0.11824847381647881  0.261390160702561  0.2782206811601355  1.0000
  C   C13       1.0  0.7096949985506598  0.22694053080495283  0.3605698664779382  1.0000
  C   C14       1.0  0.7903060748411193  0.7269391947022471  0.6394309061489949  1.0000
  C   C15       1.0  0.2903060790219669  0.7730595008299802  0.6394306572089334  1.0000
  C   C16       1.0  0.20969391679718546  0.27305993565256875  0.3605688801899376  1.0000
  C   C17       1.0  0.7894232102406208  0.1219071485741665  0.3768711462728476  1.0000
  C   C18       1.0  0.7105756912825214  0.6219085163118053  0.6231295747405952  1.0000
  C   C19       1.0  0.21057786733199896  0.8780910805005321  0.6231286658728195  1.0000
  C   C20       1.0  0.2894221284871534  0.378093317883355  0.3768708715260445  1.0000
  C   C21       1.0  0.7824135042182192  0.026599480081834805  0.31185256432569725  1.0000
  C   C22       1.0  0.7175875691735528  0.5265999465393635  0.6881474967600384  1.0000
  C   C23       1.0  0.2175875733544004  0.9733978477127465  0.6881472478199768  1.0000
  C   C24       1.0  0.2824135083990669  0.4734000850955696  0.3118523153856358  1.0000
  C   C25       1.0  0.864082280534376  0.9200447686491274  0.3385080581065054  1.0000
  C   C26       1.0  0.6359177069230881  0.42004610475183324  0.6614919771724884  1.0000
  C   C27       1.0  0.1359177111039287  0.0799534604255712  0.6614917282324201  1.0000
  C   C28       1.0  0.3640822847152236  0.5799548281632099  0.33850780916644396  1.0000
  C   C29       1.0  0.9541398994567345  0.7210204881763929  0.3295346750106631  1.0000
  C   C30       1.0  0.5458600880007296  0.2210218242791058  0.6704660718095283  1.0000
  C   C31       1.0  0.04586117811589221  0.2789777408983057  0.670466560217406  1.0000
  C   C32       1.0  0.45414098957189714  0.7789791086359446  0.3295323172537437  1.0000
  C   C33       1.0  0.8755508328663026  0.6049085707521017  0.30182528789074337  1.0000
  C   C34       1.0  0.6244491545911616  0.1049081042945801  0.6981754589294482  1.0000
  C   C35       1.0  0.12444915877200201  0.3950905596027141  0.6981744984481821  1.0000
  C   C36       1.0  0.3755508370471503  0.8950910260602356  0.3018264620330768  1.0000
  C   C37       1.0  0.7636539888755394  0.49683246684760013  0.1670691977218297  1.0000
  C   C38       1.0  0.7363459985819176  0.9968320320250117  0.8329308375571642  1.0000
  C   C39       1.0  0.2363460027627653  0.5031675647873328  0.8329305886171028  1.0000
  C   C40       1.0  0.263653993056387  0.0031679996099214006  0.16706966032296583  1.0000
  C   C41       1.0  0.6025382578577734  0.657270241687435  0.9531023157198745  1.0000
  C   C42       1.0  0.8974562999280948  0.157272479070258  0.0468961674430091  1.0000
  C   C43       1.0  0.3974552181746276  0.34272888866738077  0.0468966042374035  1.0000
  C   C44       1.0  0.1025447776445247  0.8427275525646679  0.9531043562438555  1.0000
  C   C45       1.0  0.5175085148275471  0.6880102026250299  0.0391711339363709  1.0000
  C   C46       1.0  0.982489300761273  0.1880097361675084  0.9608288497291397  1.0000
  C   C47       1.0  0.4824893049421206  0.3119907302900202  0.9608286007890783  1.0000
  C   C48       1.0  0.0175106908770317  0.8119911967475419  0.03917164815098321  1.0000
  N   N1        1.0  0.720901840711953  0.3235640682675509  0.4279722387273281  1.0000
  N   N2        1.0  0.779099232679819  0.8235645347250724  0.572028533899605  1.0000
  N   N3        1.0  0.2790981509263517  0.6764350620872648  0.5720275476115974  1.0000
  N   N4        1.0  0.2209018448928006  0.1764363981899777  0.42797198978726664  1.0000
  N   N5        1.0  0.872271311226072  0.8223144592033194  0.2891573415698332  1.0000
  N   N6        1.0  0.627728676231385  0.3223139927457979  0.7108426937091538  1.0000
  N   N7        1.0  0.12772868041223262  0.1776855724316135  0.7108424447690922  1.0000
  N   N8        1.0  0.3722724013412417  0.6776860388891351  0.2891571184365134  1.0000
  N   N9        1.0  0.8543685980602619  0.599833462415404  0.19728461683224197  1.0000
  N   N10       1.0  0.6456313893971952  0.0998338972379997  0.8027154184467449  1.0000
  N   N11       1.0  0.1456313935780429  0.40016566793940467  0.8027151695066834  1.0000
  N   N12       1.0  0.3543686022411095  0.9001670356770505  0.197285079433378  1.0000
  O   O1        1.0  0.8063692152723192  0.3129956576200499  0.49888123204078033  1.0000
  O   O2        1.0  0.6936329440537747  0.8129952227974613  0.5011181433104923  1.0000
  O   O3        1.0  0.1936307763659926  0.687004374014883  0.5011178427569476  1.0000
  O   O4        1.0  0.3063670475845299  0.18700480883747161  0.49888093148723567  1.0000
  O   O5        1.0  0.6442913464488385  0.4159434776609743  0.4136085764854442  1.0000
  O   O6        1.0  0.8557086410086185  0.9159439441185029  0.5863914587935497  1.0000
  O   O7        1.0  0.3557097311237812  0.5840556526938414  0.5863905241190323  1.0000
  O   O8        1.0  0.1442913506296861  0.08405608751643  0.4136076160041782  1.0000
  O   O9        1.0  0.6761331125199277  0.9524079350767566  0.1631599309699183  1.0000
  O   O10       1.0  0.8238679608718513  0.4524083698993451  0.8368401301158171  1.0000
  O   O11       1.0  0.3238690509870139  0.0475920965581764  0.8368399069824974  1.0000
  O   O12       1.0  0.1761320307664533  0.5475934642958151  0.1631596562231081  1.0000
  O   O13       1.0  0.5810736801290659  0.7224156697969236  0.11637833038318489  1.0000
  O   O14       1.0  0.9189252213940762  0.2224134007791676  0.8836216790890673  1.0000
  O   O15       1.0  0.4189241396406018  0.2775861643982438  0.8836214043422642  1.0000
  O   O16       1.0  0.08107477024422853  0.7775875321358826  0.1163795303322601  1.0000
  O   O17       1.0  0.3791365921650396  0.6759727053874371  0.0332394117694221  1.0000
  O   O18       1.0  0.1208634036541198  0.175969535089564  0.9667622602530414  1.0000
  O   O19       1.0  0.6208633994732722  0.3240291288077231  0.9667632207343004  1.0000
  O   O20       1.0  0.8791365879841919  0.8240304965453689  0.0332368145446935  1.0000
