data_image0
_chemical_formula_structural       ZnH24C26S2N6O10
_chemical_formula_sum              "Zn1 H24 C26 S2 N6 O10"
_cell_length_a       7.896556350097954
_cell_length_b       8.321101765608105
_cell_length_c       11.526034358579214
_cell_angle_alpha    103.39742334358971
_cell_angle_beta     105.93996578778179
_cell_angle_gamma    90.25018846162556

_space_group_name_H-M_alt    "P 1"
_space_group_IT_number       1

loop_
  _space_group_symop_operation_xyz
  'x, y, z'

loop_
  _atom_site_type_symbol
  _atom_site_label
  _atom_site_symmetry_multiplicity
  _atom_site_fract_x
  _atom_site_fract_y
  _atom_site_fract_z
  _atom_site_occupancy
  Zn  Zn1       1.0  0.5000057012259022  0.9999985385957969  0.5000041072374729  1.0000
  H   H1        1.0  0.2874508555702562  0.6993357557036288  0.9418929512751152  1.0000
  H   H2        1.0  0.712542607721211  0.3006477721283715  0.05809874036393839  1.0000
  H   H3        1.0  0.5286007351824721  0.029410284689028298  0.7771350571572456  1.0000
  H   H4        1.0  0.47140702592668043  0.9705767834161703  0.2228707688883844  1.0000
  H   H5        1.0  0.40258127670688987  0.6419841583646642  0.46369057340779574  1.0000
  H   H6        1.0  0.5974146328643783  0.35800802924513403  0.5363073044309844  1.0000
  H   H7        1.0  0.33994646133901085  0.44254714531801637  0.5810909136002851  1.0000
  H   H8        1.0  0.6600421610695263  0.5574401812258001  0.41890152596166536  1.0000
  H   H9        1.0  0.9788901422640848  0.25963150738201074  0.38090320743200595  1.0000
  H   H10       1.0  0.02111641782054361  0.7403977527142728  0.6191104069581714  1.0000
  H   H11       1.0  0.006941077891120499  0.5708127631713109  0.42921223066006325  1.0000
  H   H12       1.0  0.9930542263536849  0.4292166336955246  0.5707892153802165  1.0000
  H   H13       1.0  0.48136861364306327  0.84633586652626  0.9108891944165765  1.0000
  H   H14       1.0  0.5186444181424079  0.15363871101781965  0.08911361827486536  1.0000
  H   H15       1.0  0.19729009816382606  0.7038172646247458  0.10097257091727842  1.0000
  H   H16       1.0  0.8027128228705465  0.2961847125689871  0.8990211094683078  1.0000
  H   H17       1.0  0.15089443246377238  0.2441492272382319  0.054298120969598115  1.0000
  H   H18       1.0  0.849104517272913  0.7558565783631291  0.9457086088723374  1.0000
  H   H19       1.0  0.051201405055877586  0.09700681876223875  0.19376236085714993  1.0000
  H   H20       1.0  0.9487990362065091  0.9030101481229519  0.8062525637448915  1.0000
  H   H21       1.0  0.3390508656470104  0.22205088810969895  0.6463019726790125  1.0000
  H   H22       1.0  0.6609467925270138  0.7779412940699896  0.35370225894879337  1.0000
  H   H23       1.0  0.1882442711480294  0.09993964529412117  0.5442339108795695  1.0000
  H   H24       1.0  0.8117604003015444  0.9000523855216752  0.45575923734856627  1.0000
  C   C1        1.0  0.4869150064181866  0.8983686149880014  0.7381444102541581  1.0000
  C   C2        1.0  0.513086068225526  0.10161731601438358  0.26186017356961605  1.0000
  C   C3        1.0  0.403049050237712  0.627929324028386  0.7559408533840469  1.0000
  C   C4        1.0  0.5969444334887869  0.3720505010517526  0.24405542900964156  1.0000
  C   C5        1.0  0.4180754670425841  0.6815401879099877  0.5630307321087998  1.0000
  C   C6        1.0  0.5819202834357  0.3184470563339373  0.43697063069328124  1.0000
  C   C7        1.0  0.38429147499294203  0.5709570450389235  0.628837322867476  1.0000
  C   C8        1.0  0.6157009093179725  0.4290289800568487  0.37115461997002813  1.0000
  C   C9        1.0  0.025108279324093995  0.32351903478732413  0.32139284970372733  1.0000
  C   C10       1.0  0.9748906345417723  0.6765028830149685  0.6786131148269521  1.0000
  C   C11       1.0  0.36430812882747426  0.5062411118231577  0.824630334215698  1.0000
  C   C12       1.0  0.6356862543515617  0.49373497537919775  0.17536459118819892  1.0000
  C   C13       1.0  0.10014582946595851  0.57833962867997  0.2731734280376017  1.0000
  C   C14       1.0  0.8998496144411091  0.4216773629800555  0.7268259499212208  1.0000
  C   C15       1.0  0.14505719733969608  0.4872333466516635  0.16734193496677113  1.0000
  C   C16       1.0  0.8549389180020057  0.5127761958941971  0.8326571620330514  1.0000
  C   C17       1.0  0.0409295059678101  0.4962325373084936  0.3490247359369861  1.0000
  C   C18       1.0  0.9590665803147471  0.5037918831876805  0.6509751260031251  1.0000
  C   C19       1.0  0.45711536835202077  0.7954279239612417  0.8112280415950722  1.0000
  C   C20       1.0  0.5428834259165569  0.20455305637859303  0.18876840131721204  1.0000
  C   C21       1.0  0.20622454388813335  0.5693313901939302  0.08619343035825006  1.0000
  C   C22       1.0  0.7937724709061057  0.4306744144741541  0.9138043096517806  1.0000
  C   C23       1.0  0.12365449413483279  0.3131457598536682  0.13919041320293252  1.0000
  C   C24       1.0  0.8763446215065186  0.6868637548629476  0.860814361927247  1.0000
  C   C25       1.0  0.0655358283190495  0.23191884917467573  0.21547019040004767  1.0000
  C   C26       1.0  0.9344620270012883  0.7681018631395345  0.7845406160837173  1.0000
  S   S1        1.0  0.11649967386796328  0.8008732352206066  0.3139164723805337  1.0000
  S   S2        1.0  0.8835014210146355  0.1991411547311728  0.6860738009784486  1.0000
  N   N1        1.0  0.4677678584376821  0.8423911912168192  0.6157845411190267  1.0000
  N   N2        1.0  0.532233202582681  0.15759720828680196  0.38421698220165734  1.0000
  N   N3        1.0  0.31089029040894894  0.5763885475331988  0.9266458960197285  1.0000
  N   N4        1.0  0.6891047904471319  0.42359620487705724  0.07334886179487653  1.0000
  N   N5        1.0  0.2655570011397046  0.4852322819965165  0.9981997518477927  1.0000
  N   N6        1.0  0.7344429051635116  0.5147610811509863  0.001798083487294416  1.0000
  O   O1        1.0  0.3092575260615575  0.8453699672363796  0.3395761262370059  1.0000
  O   O2        1.0  0.6907476200463946  0.15463572424814487  0.6604263466306436  1.0000
  O   O3        1.0  0.05733671089344478  0.8518106990187843  0.42592608134696525  1.0000
  O   O4        1.0  0.9426536717326215  0.14821625624276882  0.5740637572341499  1.0000
  O   O5        1.0  0.011064814476313183  0.8518356372973339  0.20504154510800987  1.0000
  O   O6        1.0  0.9889479251694481  0.14817732953831345  0.7949494496603153  1.0000
  O   O7        1.0  0.37809690830413695  0.3553922361067519  0.7906074431226672  1.0000
  O   O8        1.0  0.6219032755111513  0.6445862575749569  0.20939314199597459  1.0000
  O   O9        1.0  0.306155079301071  0.15364095604262926  0.5592693437004572  1.0000
  O   O10       1.0  0.6938502064691362  0.8463523302350846  0.4407310610857352  1.0000
