data_image0
_chemical_formula_structural       Zn8H48C36N24O20
_chemical_formula_sum              "Zn8 H48 C36 N24 O20"
_cell_length_a       9.229497738088014
_cell_length_b       9.763376030375127
_cell_length_c       18.05828646152623
_cell_angle_alpha    95.04090450858159
_cell_angle_beta     97.44464241750589
_cell_angle_gamma    109.60964284692452

_space_group_name_H-M_alt    "P 1"
_space_group_IT_number       1

loop_
  _space_group_symop_operation_xyz
  'x, y, z'

loop_
  _atom_site_type_symbol
  _atom_site_label
  _atom_site_symmetry_multiplicity
  _atom_site_fract_x
  _atom_site_fract_y
  _atom_site_fract_z
  _atom_site_occupancy
  Zn  Zn1       1.0  0.22109544615956617  0.3071933833876912  0.08579667525619782  1.0000
  Zn  Zn2       1.0  0.7789082160664192  0.6928069938424171  0.9142048440907973  1.0000
  Zn  Zn3       1.0  0.005513352671215301  0.7654294404145288  0.2500816686538201  1.0000
  Zn  Zn4       1.0  0.9944833216619602  0.2345697590383367  0.7499198681264974  1.0000
  Zn  Zn5       1.0  0.42487536792727093  0.9172978775925243  0.2897471608618289  1.0000
  Zn  Zn6       1.0  0.575121718207427  0.08270243239316237  0.7102533515502429  1.0000
  Zn  Zn7       1.0  0.7648363125510613  0.21973284520555578  0.408004110893387  1.0000
  Zn  Zn8       1.0  0.23516318121128413  0.7802740721427097  0.5919952322086672  1.0000
  H   H1        1.0  0.8978980074429542  0.7256165747297272  0.09181755266317279  1.0000
  H   H2        1.0  0.10210357055121479  0.27438707255945616  0.9081828785613483  1.0000
  H   H3        1.0  0.7633770244720707  0.6202592684302102  0.1308785087416524  1.0000
  H   H4        1.0  0.2366237720400477  0.3797421950162203  0.8691206532864088  1.0000
  H   H5        1.0  0.7575718136668994  0.5005832315979359  0.22927508904775354  1.0000
  H   H6        1.0  0.2424267884747309  0.4994182073657497  0.7707239216649386  1.0000
  H   H7        1.0  0.8702205762089719  0.4861080592733841  0.3017553591686237  1.0000
  H   H8        1.0  0.12977662006439056  0.5138955452541225  0.6982442164363434  1.0000
  H   H9        1.0  0.467282723992426  0.5949674917223715  0.1893297923005761  1.0000
  H   H10       1.0  0.5327172489166472  0.40503175065843067  0.8106714184639687  1.0000
  H   H11       1.0  0.9805799909182582  0.4576982716361258  0.1454416198744681  1.0000
  H   H12       1.0  0.019419996031146438  0.5423009831523016  0.854558484912424  1.0000
  H   H13       1.0  0.0016167013386336965  0.0372217528127976  0.3813605873303915  1.0000
  H   H14       1.0  0.9983743839498372  0.9627740970951987  0.6186409549797958  1.0000
  H   H15       1.0  0.6471259246482005  0.7725389494405731  0.2069968321633482  1.0000
  H   H16       1.0  0.3528711685066738  0.22746136674892634  0.7930031272599083  1.0000
  H   H17       1.0  0.9800132787182675  0.7389024310420992  0.4374241531906763  1.0000
  H   H18       1.0  0.01998380741643051  0.26109787894358766  0.5625763592213957  1.0000
  H   H19       1.0  0.4689381022280301  0.8720097290937971  0.4709822682032084  1.0000
  H   H20       1.0  0.5310558165299497  0.1279938511172176  0.5290159744510632  1.0000
  H   H21       1.0  0.4726834550678944  0.18464737370721446  0.1784101267449785  1.0000
  H   H22       1.0  0.5273102434127566  0.8153496174201533  0.8215899895235097  1.0000
  H   H23       1.0  0.9831479891833157  0.038119753430024196  0.15230086281702174  1.0000
  H   H24       1.0  0.016846778401905668  0.9618772251234659  0.8477015410644455  1.0000
  H   H25       1.0  0.7850904895631031  0.419156177967089  0.05484207257438099  1.0000
  H   H26       1.0  0.2149124052211704  0.5808420278278916  0.9451570715985014  1.0000
  H   H27       1.0  0.6604858489318134  0.418721739075785  0.9714802617185115  1.0000
  H   H28       1.0  0.33951923320277194  0.581276484998128  0.028519586758562806  1.0000
  H   H29       1.0  0.5262529557092394  0.1539800555910134  0.9579879987001263  1.0000
  H   H30       1.0  0.47375541096091206  0.846018199003204  0.042012629738820785  1.0000
  H   H31       1.0  0.6202489463645405  0.1430935438137908  0.0480811877875738  1.0000
  H   H32       1.0  0.3797612169149005  0.8569036371379893  0.9519195103573284  1.0000
  H   H33       1.0  0.7368213190800077  0.059363526392530695  0.9430424150404663  1.0000
  H   H34       1.0  0.2631889613582601  0.9406369553048749  0.056956793308508204  1.0000
  H   H35       1.0  0.7947843065421337  0.2364362446821601  0.9163251227606537  1.0000
  H   H36       1.0  0.20521562642993976  0.7635597651949481  0.0836714949227542  1.0000
  H   H37       1.0  0.194733018482104  0.5675002705409183  0.36272104742965894  1.0000
  H   H38       1.0  0.8052730443513597  0.4325067078479492  0.6372798555961341  1.0000
  H   H39       1.0  0.16278215037548446  0.4201429855386535  0.292866034592521  1.0000
  H   H40       1.0  0.8372205248039252  0.5798606739919023  0.7071344722896882  1.0000
  H   H41       1.0  0.439355575230053  0.5241837405890379  0.36835305117481454  1.0000
  H   H42       1.0  0.5606457965271191  0.47581333002412424  0.6316481476862779  1.0000
  H   H43       1.0  0.3636292363335656  0.46544862456874364  0.4494728646249868  1.0000
  H   H44       1.0  0.6363688438678777  0.5345484093203083  0.5505281072630552  1.0000
  H   H45       1.0  0.269433963588348  0.2055612831870164  0.39050381119813693  1.0000
  H   H46       1.0  0.7305682036912059  0.7944379836765305  0.6094975508817627  1.0000
  H   H47       1.0  0.3136367549313306  0.25608564888980107  0.3030458242240074  1.0000
  H   H48       1.0  0.6863492772929546  0.7439112689555926  0.6969526564630544  1.0000
  C   C1        1.0  0.3504078861168408  0.5967602394684517  0.18889329979912622  1.0000
  C   C2        1.0  0.6495920938123945  0.40323900911616306  0.8111073579765888  1.0000
  C   C3        1.0  0.1017166751845693  0.5248237747034423  0.16547735691711551  1.0000
  C   C4        1.0  0.8982840182090543  0.4751744004049813  0.8345221889292278  1.0000
  C   C5        1.0  0.8898183271614498  0.9839283023837311  0.3447555630407066  1.0000
  C   C6        1.0  0.11017395843076369  0.016070848103645095  0.6552456711088795  1.0000
  C   C7        1.0  0.7088842761778763  0.849732695241208  0.2570510962843784  1.0000
  C   C8        1.0  0.2911099161622914  0.15026867614555067  0.7429492707640578  1.0000
  C   C9        1.0  0.09974146029490778  0.7784964214819112  0.4275969953792469  1.0000
  C   C10       1.0  0.9002549474762417  0.22150499299902995  0.572401864018083  1.0000
  C   C11       1.0  0.3482271861872519  0.8460181650120545  0.44528782289058466  1.0000
  C   C12       1.0  0.6517678227357989  0.15398542123651984  0.5547110484101978  1.0000
  C   C13       1.0  0.3524108574643278  0.12178300299341056  0.1815389398679059  1.0000
  C   C14       1.0  0.6475824572954563  0.8782129024163935  0.8184599888135226  1.0000
  C   C15       1.0  0.103406531464266  0.046947651696513  0.16906838307004796  1.0000
  C   C16       1.0  0.8965916237750163  0.9530526457152956  0.8309344169550102  1.0000
  C   C17       1.0  0.5500174924666937  0.3908534350525343  0.06813184303866392  1.0000
  C   C18       1.0  0.4499881438524511  0.609140377576672  0.9318717012379167  1.0000
  C   C19       1.0  0.6672493985868398  0.3651229088524558  0.022207654649726294  1.0000
  C   C20       1.0  0.33275387289812397  0.6348763764562761  0.9777932300990387  1.0000
  C   C21       1.0  0.6356962950513746  0.20145577421864397  0.9986367045333682  1.0000
  C   C22       1.0  0.3643150755519713  0.7985447135163211  0.0013631324621101873  1.0000
  C   C23       1.0  0.7694646193646123  0.17663048026255265  0.9645675326972879  1.0000
  C   C24       1.0  0.23054496164960633  0.8233710873186766  0.035431681603405714  1.0000
  C   C25       1.0  0.9177554196828696  0.21584480478198023  0.021778888373006608  1.0000
  C   C26       1.0  0.0822572964637089  0.7841623090932613  0.978216938710645  1.0000
  C   C27       1.0  0.04945298731384174  0.3623520886687856  0.3858038238176179  1.0000
  C   C28       1.0  0.9505474254774171  0.6376482890600882  0.6141941506233906  1.0000
  C   C29       1.0  0.18936597843693187  0.4530750456122377  0.3544696331011324  1.0000
  C   C30       1.0  0.8106374852446905  0.5469308039648836  0.6455315899887141  1.0000
  C   C31       1.0  0.34407803920529295  0.440557736688028  0.3876998298803471  1.0000
  C   C32       1.0  0.6559222353666385  0.5594393216837685  0.6123012933230569  1.0000
  C   C33       1.0  0.3515544100398883  0.28932831104614815  0.3643153629319826  1.0000
  C   C34       1.0  0.648441969650598  0.7106730786195427  0.6356857084206453  1.0000
  C   C35       1.0  0.5113013565373448  0.2795678013491879  0.3847491930539065  1.0000
  C   C36       1.0  0.48869677280526935  0.7204292759665518  0.6152479079123696  1.0000
  N   N1        1.0  0.3105064877293274  0.7009697168075563  0.22407955247408048  1.0000
  N   N2        1.0  0.6894934921999082  0.2990295317770588  0.7759211053016344  1.0000
  N   N3        1.0  0.15005380843788874  0.6538651069353917  0.2089618390845516  1.0000
  N   N4        1.0  0.8499442858038933  0.3461319393612853  0.7910380268258451  1.0000
  N   N5        1.0  0.22360789968579545  0.48488759463677394  0.1510357478563336  1.0000
  N   N6        1.0  0.7763920872636092  0.5151116601516532  0.8489643569305587  1.0000
  N   N7        1.0  0.7662177386558042  0.022172797535006297  0.3520152131390262  1.0000
  N   N8        1.0  0.23377725622690806  0.9778307763059431  0.6479847641394016  1.0000
  N   N9        1.0  0.6483667380366568  0.934533955057567  0.2954383016271578  1.0000
  N   N10       1.0  0.35162745430351083  0.0654674163291915  0.7045620654212713  1.0000
  N   N11       1.0  0.8590318317771874  0.8762413527422765  0.2862178990596078  1.0000
  N   N12       1.0  0.14096194876145773  0.12375890811166101  0.7137834923570665  1.0000
  N   N13       1.0  0.30269174462664955  0.8533734199298664  0.3732544607300313  1.0000
  N   N14       1.0  0.6973031681980686  0.1466268841845135  0.6267442414002035  1.0000
  N   N15       1.0  0.1426163181751718  0.8091544350268407  0.3615102105543643  1.0000
  N   N16       1.0  0.8573796918347866  0.19084588132891153  0.6384885672335586  1.0000
  N   N17       1.0  0.22508050673445715  0.8006333559438231  0.48156163838783794  1.0000
  N   N18       1.0  0.7749174850612945  0.19937244483406147  0.5184381004359438  1.0000
  N   N19       1.0  0.30893229899515967  0.007736177628601099  0.21926937615599232  1.0000
  N   N20       1.0  0.6910632031149432  0.9922597460601419  0.780730256829628  1.0000
  N   N21       1.0  0.1495242606501107  0.959808005689446  0.2113617988686585  1.0000
  N   N22       1.0  0.8504720229420428  0.040190101842050296  0.7886391033134288  1.0000
  N   N23       1.0  0.2267471792525697  0.1497665077770804  0.14888671489018895  1.0000
  N   N24       1.0  0.7732480001341742  0.850231581309231  0.8511146646230331  1.0000
  O   O1        1.0  0.596127646691407  0.4662926020342582  0.1333081585198741  1.0000
  O   O2        1.0  0.40388158284632425  0.5336990633100669  0.8666955251686164  1.0000
  O   O3        1.0  0.406445193058623  0.330649370881993  0.0365659946950814  1.0000
  O   O4        1.0  0.593558920233427  0.6693433065654019  0.9634396042697021  1.0000
  O   O5        1.0  0.9127712791386529  0.20991633622220007  0.0902361675659407  1.0000
  O   O6        1.0  0.08725174937329425  0.790095218454276  0.9097650151273984  1.0000
  O   O7        1.0  0.05025650698507887  0.25456053455894784  0.9961270535070528  1.0000
  O   O8        1.0  0.9497555027172879  0.7454476589962978  0.0038693325171478866  1.0000
  O   O9        1.0  0.9139803644076494  0.3679114549983423  0.35713719674772904  1.0000
  O   O10       1.0  0.0860212346470205  0.6320922109022786  0.6428615755103237  1.0000
  O   O11       1.0  0.06025104545578589  0.2833013497668446  0.43564869637440046  1.0000
  O   O12       1.0  0.9397484272460589  0.7167055489699762  0.5643523056941222  1.0000
  O   O13       1.0  0.531041508401266  0.15652469745220543  0.3618478142143076  1.0000
  O   O14       1.0  0.4689563333188219  0.8434745762801655  0.6381482683354491  1.0000
  O   O15       1.0  0.6231893027765664  0.38409334491471714  0.4228652351069116  1.0000
  O   O16       1.0  0.3768088406063796  0.615903744808648  0.5771307598817188  1.0000
  O   O17       1.0  0.8556409106864037  0.7124475706108129  0.13977306185630312  1.0000
  O   O18       1.0  0.14435918640166528  0.2875549787194345  0.860226106123477  1.0000
  O   O19       1.0  0.840698548026836  0.5567171423216094  0.271323118982508  1.0000
  O   O20       1.0  0.15929676255907305  0.4432842599179593  0.7286756647571339  1.0000
