data_image0
_chemical_formula_structural       Nd2CuH20C32N4O28
_chemical_formula_sum              "Nd2 Cu1 H20 C32 N4 O28"
_cell_length_a       10.439241981666719
_cell_length_b       10.727533761506422
_cell_length_c       11.489409540972764
_cell_angle_alpha    83.4523158277016
_cell_angle_beta     74.00221431328728
_cell_angle_gamma    68.34551090465548

_space_group_name_H-M_alt    "P 1"
_space_group_IT_number       1

loop_
  _space_group_symop_operation_xyz
  'x, y, z'

loop_
  _atom_site_type_symbol
  _atom_site_label
  _atom_site_symmetry_multiplicity
  _atom_site_fract_x
  _atom_site_fract_y
  _atom_site_fract_z
  _atom_site_occupancy
  Nd  Nd1       1.0  0.5878239047327437  0.6088370516980535  0.6252399927355655  1.0000
  Nd  Nd2       1.0  0.4121768371164264  0.39116916488557507  0.37476173605049473  1.0000
  Cu  Cu1       1.0  7.139057629751355e-07  0.5000033528701024  0.4999957522745078  1.0000
  H   H1        1.0  0.3572679144756205  0.9861340681359608  0.4511726731361918  1.0000
  H   H2        1.0  0.6427351981147282  0.013871082455345601  0.5488242271084757  1.0000
  H   H3        1.0  0.957100980229569  0.18211278174989334  0.35713869328831294  1.0000
  H   H4        1.0  0.04289800767974566  0.8178844705028114  0.6428627460944513  1.0000
  H   H5        1.0  0.16537165387948244  0.7524711786054114  0.3242833766430095  1.0000
  H   H6        1.0  0.8346124343383251  0.2475205360844726  0.6757520299078196  1.0000
  H   H7        1.0  0.6776203627891705  0.47135123044294164  0.9456515756786885  1.0000
  H   H8        1.0  0.32238392233031016  0.5286478846453664  0.05434135746817502  1.0000
  H   H9        1.0  0.9274393207120252  0.3180213942253546  0.20740697862895283  1.0000
  H   H10       1.0  0.07256758429651455  0.6819676670616701  0.7925812054386513  1.0000
  H   H11       1.0  0.1375288583167346  0.3366358595797794  0.829977387736193  1.0000
  H   H12       1.0  0.8624742674171127  0.6633692052348011  0.17000820383909604  1.0000
  H   H13       1.0  0.4579773109723248  0.852570128786354  0.8087398503982968  1.0000
  H   H14       1.0  0.5420087677938028  0.14741047163505533  0.19128151069434546  1.0000
  H   H15       1.0  0.34534136994925274  0.8811805282117433  0.7329129528929245  1.0000
  H   H16       1.0  0.6546646353388609  0.11881659897945704  0.267084123184155  1.0000
  H   H17       1.0  0.7159247893550286  0.47002828142360203  0.3739334329749014  1.0000
  H   H18       1.0  0.2840685498672854  0.5299680449364176  0.6260677916882785  1.0000
  H   H19       1.0  0.8134432281609842  0.5556760581644087  0.37254271332329136  1.0000
  H   H20       1.0  0.1865449404450458  0.4443262978690186  0.6274547815256781  1.0000
  C   C1        1.0  0.27205014649080517  0.8562082140417289  0.3914075186569478  1.0000
  C   C2        1.0  0.7279503961625832  0.14379303778770236  0.6085974307495193  1.0000
  C   C3        1.0  0.2714823112026108  0.9812595135426392  0.4173381701791429  1.0000
  C   C4        1.0  0.7285195184413311  0.0187436744713168  0.5826610148511335  1.0000
  C   C5        1.0  0.159334933972282  0.09866245055222579  0.4037956348807867  1.0000
  C   C6        1.0  0.8406648915728996  0.9013407675379808  0.5962040511817079  1.0000
  C   C7        1.0  0.047913165608839785  0.0921379092952748  0.3627751497042341  1.0000
  C   C8        1.0  0.9520850981149991  0.9078613554056716  0.6372271156180745  1.0000
  C   C9        1.0  0.054341938888271143  0.9682968460111496  0.3311398850580787  1.0000
  C   C10       1.0  0.9456594086408001  0.031699412829546206  0.6688662946573913  1.0000
  C   C11       1.0  0.16455590601799475  0.8491288645050407  0.34509427141918547  1.0000
  C   C12       1.0  0.8354414252252339  0.15086750727383702  0.654919869541871  1.0000
  C   C13       1.0  0.3822764569241385  0.729738058917313  0.4238146145443338  1.0000
  C   C14       1.0  0.6177295497819698  0.2702702316446235  0.5762064447304526  1.0000
  C   C15       1.0  0.15289114290617078  0.23308956278972212  0.4351502029983578  1.0000
  C   C16       1.0  0.8471103302057439  0.7669145951581983  0.5648446105646485  1.0000
  C   C17       1.0  0.9063675716442245  0.4123962373846267  0.8744964198176106  1.0000
  C   C18       1.0  0.09363527117052677  0.5876068630108904  0.12549294582246523  1.0000
  C   C19       1.0  0.7812793609206352  0.43040961346952855  0.9666754658882084  1.0000
  C   C20       1.0  0.21872420405752271  0.5695914876741741  0.033314813607617594  1.0000
  C   C21       1.0  0.7887810351275205  0.3954433355194382  0.0865289378246032  1.0000
  C   C22       1.0  0.21122124993734542  0.6045557832522732  0.9134610167638969  1.0000
  C   C23       1.0  0.9210791557588676  0.3433397220728621  0.11438016341398331  1.0000
  C   C24       1.0  0.07892421811181553  0.6566563615309703  0.8856063775210857  1.0000
  C   C25       1.0  0.04425702042611588  0.3225039524813411  0.020653795087262877  1.0000
  C   C26       1.0  0.9557469928956902  0.6774931256075903  0.9793333432502891  1.0000
  C   C27       1.0  0.039381586432092795  0.3555404087799801  0.9009964589304361  1.0000
  C   C28       1.0  0.9606219825902185  0.6444606659708825  0.09899034097480815  1.0000
  C   C29       1.0  0.8977279031106773  0.4530146334456334  0.7471030915204081  1.0000
  C   C30       1.0  0.1022721287075469  0.5469935032112901  0.2528872846381702  1.0000
  C   C31       1.0  0.655853062690916  0.4078908617681378  0.18463748022021065  1.0000
  C   C32       1.0  0.3441482172914547  0.5921082918363326  0.8153553345773263  1.0000
  N   N1        1.0  0.9373349889487628  0.9642319811749188  0.2865518710138844  1.0000
  N   N2        1.0  0.0626668815479334  0.0357573136597793  0.7134584431777355  1.0000
  N   N3        1.0  0.18460167040053926  0.26470942318538704  0.048422985003710985  1.0000
  N   N4        1.0  0.8153942417918427  0.7352907821418811  0.9515675808047421  1.0000
  O   O1        1.0  0.39146904014539513  0.618078901539569  0.3888611131395977  1.0000
  O   O2        1.0  0.6085384804562961  0.38192248255855077  0.6111733989693279  1.0000
  O   O3        1.0  0.45554262826091463  0.7448655295318574  0.48895972375250085  1.0000
  O   O4        1.0  0.5444578759687531  0.2551607722493684  0.5110572097926892  1.0000
  O   O5        1.0  0.2652459060394392  0.2511336179632763  0.4361852752811828  1.0000
  O   O6        1.0  0.7347610317292848  0.7488664021499857  0.5637999251571416  1.0000
  O   O7        1.0  0.02703607293037887  0.3214410228209701  0.4590539570090614  1.0000
  O   O8        1.0  0.9729644707340481  0.6785602224102548  0.5409501224997654  1.0000
  O   O9        1.0  0.8428006873855619  0.07405396174038262  0.27338967341152925  1.0000
  O   O10       1.0  0.15719990420888744  0.9259333441241185  0.7266194459751177  1.0000
  O   O11       1.0  0.9367928620871806  0.8542312317770849  0.2648224851227213  1.0000
  O   O12       1.0  0.0632137387704574  0.14575600365329683  0.735187740860205  1.0000
  O   O13       1.0  0.015450174336009948  0.4384761376452886  0.667359075694101  1.0000
  O   O14       1.0  0.98455364080106  0.5615159690912466  0.3326304133662107  1.0000
  O   O15       1.0  0.7777618296802514  0.4979351945631691  0.7234816108724332  1.0000
  O   O16       1.0  0.22223449546517318  0.502086017866489  0.2765151882235415  1.0000
  O   O17       1.0  0.53909913881251  0.4334153134395607  0.15758900287262628  1.0000
  O   O18       1.0  0.460900807260323  0.5665958367489098  0.8424036665256268  1.0000
  O   O19       1.0  0.6658855072319125  0.3851862409070321  0.29497694468366126  1.0000
  O   O20       1.0  0.3341185827359466  0.6148078830342383  0.7050157294930202  1.0000
  O   O21       1.0  0.18693785777465166  0.25334725767050514  0.15679837990263934  1.0000
  O   O22       1.0  0.8130551299708273  0.7466500056324321  0.8431941238050413  1.0000
  O   O23       1.0  0.29218443812633405  0.23147499257712664  0.9625084935411437  1.0000
  O   O24       1.0  0.7078144751590044  0.7685252006268187  0.0374856702072107  1.0000
  O   O25       1.0  0.4471104696200569  0.8367274155057844  0.7309717165471455  1.0000
  O   O26       1.0  0.5528925163764099  0.16326984257652544  0.2690374197476331  1.0000
  O   O27       1.0  0.7356416379219793  0.5281119706795608  0.4236205540783048  1.0000
  O   O28       1.0  0.2643438023998  0.4718924278783589  0.5763782677424274  1.0000
