data_image0
_chemical_formula_structural       Nd2Co2H32C24N6O24
_chemical_formula_sum              "Nd2 Co2 H32 C24 N6 O24"
_cell_length_a       8.511124182119756
_cell_length_b       9.70080652180191
_cell_length_c       12.837200878827428
_cell_angle_alpha    67.79928093888122
_cell_angle_beta     81.00507674161629
_cell_angle_gamma    65.5503255439919

_space_group_name_H-M_alt    "P 1"
_space_group_IT_number       1

loop_
  _space_group_symop_operation_xyz
  'x, y, z'

loop_
  _atom_site_type_symbol
  _atom_site_label
  _atom_site_symmetry_multiplicity
  _atom_site_fract_x
  _atom_site_fract_y
  _atom_site_fract_z
  _atom_site_occupancy
  Nd  Nd1       1.0  0.25001512466358367  0.5070621052934147  0.9857849707915634  1.0000
  Nd  Nd2       1.0  0.7499849859934075  0.4929338532458232  0.01421701460038348  1.0000
  Co  Co1       1.0  0.2500620898960547  0.6631750742415934  0.6736068092936165  1.0000
  Co  Co2       1.0  0.7499363413355837  0.3368257972216782  0.3263914388534914  1.0000
  H   H1        1.0  0.07746676556196531  0.6897604022334677  0.5046953026696599  1.0000
  H   H2        1.0  0.4226430296853465  0.8055681739236604  0.5047569734144872  1.0000
  H   H3        1.0  0.922533856360552  0.3102361869052642  0.4953048332773663  1.0000
  H   H4        1.0  0.5773571223531918  0.19443928203994434  0.49524194755576195  1.0000
  H   H5        1.0  0.6446818780264109  0.16771595905748898  0.7443612010776448  1.0000
  H   H6        1.0  0.8554086580840093  0.0879588571370038  0.7443606223724616  1.0000
  H   H7        1.0  0.35532043985870143  0.8322803660416868  0.25563799059914777  1.0000
  H   H8        1.0  0.1445940061828139  0.9120393547987719  0.2556415354133392  1.0000
  H   H9        1.0  0.9573212458359989  0.4669869499019727  0.6344869556029238  1.0000
  H   H10       1.0  0.5426995272270644  0.8985385348787249  0.6346280907850429  1.0000
  H   H11       1.0  0.042672438338726665  0.5330151756752244  0.36551001260293253  1.0000
  H   H12       1.0  0.45730010527732645  0.10146596604315768  0.36537502038766695  1.0000
  H   H13       1.0  0.8704824488547304  0.670342820950033  0.6297076585194574  1.0000
  H   H14       1.0  0.6295673337098506  0.699978824112158  0.6298147981830979  1.0000
  H   H15       1.0  0.1295197151714048  0.32965785964256633  0.37029322770122514  1.0000
  H   H16       1.0  0.37042823895021837  0.3000292797555134  0.3701858864054302  1.0000
  H   H17       1.0  0.2957713359933862  0.4998707469784165  0.46120611963408464  1.0000
  H   H18       1.0  0.2043318215556552  0.03895762058022718  0.46124510963441173  1.0000
  H   H19       1.0  0.7042291127382685  0.5001248987420153  0.5387925332584302  1.0000
  H   H20       1.0  0.7956671457858064  0.9610507300224145  0.5387529061611358  1.0000
  H   H21       1.0  0.20752935099153547  0.3635949583507668  0.5609033093580891  1.0000
  H   H22       1.0  0.2925423938258831  0.0755230707778267  0.560963904065062  1.0000
  H   H23       1.0  0.7924682170804543  0.6364018460482512  0.4390953826299651  1.0000
  H   H24       1.0  0.7074599654407691  0.9244847517457161  0.4390322231900329  1.0000
  H   H25       1.0  0.6894869199155169  0.9049464347111853  0.8122309351690475  1.0000
  H   H26       1.0  0.810497918495457  0.2829424975877119  0.8122635306996318  1.0000
  H   H27       1.0  0.3105167558575204  0.09504993916724663  0.18777064473695046  1.0000
  H   H28       1.0  0.18949880850496473  0.7170563134728738  0.1877380024752426  1.0000
  H   H29       1.0  0.644996628110526  0.9542064703433014  0.9350670260755082  1.0000
  H   H30       1.0  0.8550773526948561  0.11077721263659157  0.9350672377154083  1.0000
  H   H31       1.0  0.3550075534156178  0.0457889845064656  0.0649342648905815  1.0000
  H   H32       1.0  0.14492107026816134  0.8892213343844374  0.06493335118923223  1.0000
  C   C1        1.0  0.014209305346938008  0.5055482057076264  0.7755753718282178  1.0000
  C   C2        1.0  0.48584188960443725  0.7188137193882439  0.7756588463082537  1.0000
  C   C3        1.0  0.9857918250848883  0.4944482392165099  0.22442369492638653  1.0000
  C   C4        1.0  0.5141589110213545  0.28118536279693984  0.22434121218824996  1.0000
  C   C5        1.0  0.4231437568522836  0.37816748034319425  0.6177667501082523  1.0000
  C   C6        1.0  0.07693041224617045  0.004060951014992099  0.617779997878884  1.0000
  C   C7        1.0  0.5768577006293751  0.6218255525058114  0.38223210515696604  1.0000
  C   C8        1.0  0.9230711087051302  0.9959496529841876  0.3822181903105175  1.0000
  C   C9        1.0  0.9869814264272918  0.5583612231562258  0.6494452792942056  1.0000
  C   C10       1.0  0.5130657114972339  0.7922049219549765  0.6495530973879581  1.0000
  C   C11       1.0  0.013016826101079437  0.4416371552605868  0.3505530463034249  1.0000
  C   C12       1.0  0.4869337533287138  0.20780018517675822  0.350446970225228  1.0000
  C   C13       1.0  0.25748447301094757  0.45641656943763564  0.5498442635879854  1.0000
  C   C14       1.0  0.24260114580825823  0.9937630491944206  0.5498856200289809  1.0000
  C   C15       1.0  0.7425130978172444  0.5435810097754656  0.45015364814755543  1.0000
  C   C16       1.0  0.757399690686654  0.006245980786964486  0.4501129345508446  1.0000
  C   C17       1.0  0.9100218628661453  0.8068689088682536  0.9149018774093705  1.0000
  C   C18       1.0  0.5900442249224228  0.278207274935376  0.9149342095614585  1.0000
  C   C19       1.0  0.08998130990999438  0.19312915885293344  0.0850992111840156  1.0000
  C   C20       1.0  0.4099546927688706  0.7217872538006702  0.0850692114133337  1.0000
  C   C21       1.0  0.7393318505458523  0.9415069639596968  0.8668831206464774  1.0000
  C   C22       1.0  0.7607213455997839  0.19165230027284239  0.8668963545954542  1.0000
  C   C23       1.0  0.2606694530768294  0.05849042438273951  0.1331174291626311  1.0000
  C   C24       1.0  0.23927657436633618  0.8083479405909345  0.1331037429965817  1.0000
  N   N1        1.0  0.12725771076902964  0.5940424316547278  0.5779554415091539  1.0000
  N   N2        1.0  0.372831818671614  0.8280258946378823  0.5780107938972563  1.0000
  N   N3        1.0  0.8727439254159035  0.40595309424074333  0.42204333630555624  1.0000
  N   N4        1.0  0.6271695208202033  0.1719814415007549  0.4219882519951739  1.0000
  N   N5        1.0  0.7500487337385521  0.09952637077726924  0.8009936184737401  1.0000
  N   N6        1.0  0.24995088219016268  0.9004736060469584  0.19900553484806244  1.0000
  O   O1        1.0  0.13676342301817346  0.5277472187663651  0.8049215850054097  1.0000
  O   O2        1.0  0.36345561609253024  0.6670584746604862  0.8049800990402717  1.0000
  O   O3        1.0  0.8632348212415696  0.4722488352082052  0.19507908134975344  1.0000
  O   O4        1.0  0.6365461960394683  0.3329387694673613  0.19501938157642934  1.0000
  O   O5        1.0  0.9100215333067325  0.451213145720253  0.8400504494638881  1.0000
  O   O6        1.0  0.5899116287181912  0.708780738311113  0.8401656410666334  1.0000
  O   O7        1.0  0.08997890440009113  0.5487794007438538  0.15995132443867993  1.0000
  O   O8        1.0  0.4100896749044981  0.2912166500313234  0.15983490874248218  1.0000
  O   O9        1.0  0.45933625016907337  0.46618045710205547  0.65537072814314  1.0000
  O   O10       1.0  0.04081933768296872  0.8783981026987676  0.65543250158494  1.0000
  O   O11       1.0  0.5406642013187906  0.5338159634324527  0.3446271444968687  1.0000
  O   O12       1.0  0.9591818451936688  0.12161281411922441  0.3445690191038935  1.0000
  O   O13       1.0  0.5187282727044787  0.2326991541781212  0.6295232816729879  1.0000
  O   O14       1.0  0.9812790494499026  0.13778727651216383  0.6294884031502264  1.0000
  O   O15       1.0  0.48127319028959203  0.7672954282990432  0.370474013087211  1.0000
  O   O16       1.0  0.018721971260702918  0.8622257961438469  0.37050851347405717  1.0000
  O   O17       1.0  0.9080842406284904  0.6647273922886898  0.9546869175431283  1.0000
  O   O18       1.0  0.5920383367187513  0.3805014018639669  0.954754992858831  1.0000
  O   O19       1.0  0.09191079592175559  0.3352732324396044  0.04531399939695289  1.0000
  O   O20       1.0  0.4079593907630539  0.6194924718829642  0.045249083446286406  1.0000
  O   O21       1.0  0.04497296748657222  0.8298119722507525  0.914683048449092  1.0000
  O   O22       1.0  0.45509619903577203  0.2554814075453822  0.9147069425924456  1.0000
  O   O23       1.0  0.9550288336205955  0.17018217262077678  0.08531955317765492  1.0000
  O   O24       1.0  0.5449032271648305  0.7445129769760684  0.08529540918992497  1.0000
