data_image0
_chemical_formula_structural       Cu4H22C26I4N6O6
_chemical_formula_sum              "Cu4 H22 C26 I4 N6 O6"
_cell_length_a       5.975830337838989
_cell_length_b       9.866257966248819
_cell_length_c       13.71899916782494
_cell_angle_alpha    80.98321004459814
_cell_angle_beta     88.09236941757706
_cell_angle_gamma    84.02178558701677

_space_group_name_H-M_alt    "P 1"
_space_group_IT_number       1

loop_
  _space_group_symop_operation_xyz
  'x, y, z'

loop_
  _atom_site_type_symbol
  _atom_site_label
  _atom_site_symmetry_multiplicity
  _atom_site_fract_x
  _atom_site_fract_y
  _atom_site_fract_z
  _atom_site_occupancy
  Cu  Cu1       1.0  0.18095325084355093  0.6848679544437887  0.623779852861567  1.0000
  Cu  Cu2       1.0  0.8190483907285824  0.3151194665403453  0.3762159118024115  1.0000
  Cu  Cu3       1.0  0.781232368155706  0.5004005212682117  0.4902788065816566  1.0000
  Cu  Cu4       1.0  0.21876268144721675  0.4995972085817544  0.5097239270044014  1.0000
  H   H1        1.0  0.9754379742448407  0.9859331978237761  0.8191832760297119  1.0000
  H   H2        1.0  0.0245596601654796  0.014078975572857607  0.1808134079520229  1.0000
  H   H3        1.0  0.5719887578462842  0.818906515105468  0.5613047986272192  1.0000
  H   H4        1.0  0.4279980111037744  0.18109018400052435  0.43869309299804377  1.0000
  H   H5        1.0  0.7564892453495347  0.03061006318338851  0.5841818882909634  1.0000
  H   H6        1.0  0.24352398792445473  0.969368076564564  0.41581618048152796  1.0000
  H   H7        1.0  0.571180923569834  0.17582545754038392  0.7070690007763857  1.0000
  H   H8        1.0  0.42882856997528035  0.824165060130156  0.2929255485600634  1.0000
  H   H9        1.0  0.8894424703247237  0.9166087132584837  0.9648119219275557  1.0000
  H   H10       1.0  0.11055275268144264  0.08339727344582573  0.03518040012978929  1.0000
  H   H11       1.0  0.590833160907124  0.89642481765776  0.09323984294010047  1.0000
  H   H12       1.0  0.40915754688379735  0.10357909920288222  0.906763725450297  1.0000
  H   H13       1.0  0.28478182406036007  0.6129394196681022  0.9423648007129586  1.0000
  H   H14       1.0  0.7151929578306876  0.3870696511151692  0.05763773403080559  1.0000
  H   H15       1.0  0.5841198288227928  0.6351875187470172  0.8112675116296373  1.0000
  H   H16       1.0  0.41584753386803897  0.3648256776925083  0.1887317706770233  1.0000
  H   H17       1.0  0.829930377471065  0.563133992239692  0.1584450183614265  1.0000
  H   H18       1.0  0.17007870548894735  0.43688024452039553  0.8415556068869635  1.0000
  H   H19       1.0  0.8636706784673648  0.7295403316211663  0.1928879614549786  1.0000
  H   H20       1.0  0.13634036060924604  0.2704728702588072  0.8071200359224875  1.0000
  H   H21       1.0  0.02012796353036346  0.5760851015010646  0.25372158856448823  1.0000
  H   H22       1.0  0.9798695199914959  0.4239188142709907  0.7462869645059271  1.0000
  C   C1        1.0  0.23027280954360652  0.9347834276010051  0.7269458515413659  1.0000
  C   C2        1.0  0.769735066056185  0.06520708774214512  0.2730523708899355  1.0000
  C   C3        1.0  0.50235026761419  0.8878028350815729  0.6120918828871637  1.0000
  C   C4        1.0  0.4976562043802132  0.1121866449629749  0.3879130412831487  1.0000
  C   C5        1.0  0.6046170842191145  0.003040260139314901  0.6253793201592545  1.0000
  C   C6        1.0  0.3953805429043626  0.9969512853790976  0.37461677757760015  1.0000
  C   C7        1.0  0.5030896268795145  0.08231353929801341  0.6934524006286154  1.0000
  C   C8        1.0  0.49692384689262065  0.9176738806475984  0.3065504474704496  1.0000
  C   C9        1.0  0.9278040864437214  0.7883981899571568  0.7975397748414608  1.0000
  C   C10       1.0  0.07218813797598499  0.211605732696917  0.20245356143428242  1.0000
  C   C11       1.0  0.7524218990497215  0.7803877816527064  0.8774861586562467  1.0000
  C   C12       1.0  0.24755991884070028  0.2196182022222716  0.12250566818078569  1.0000
  C   C13       1.0  0.7555567952897275  0.8519976860018377  0.95799576794672  1.0000
  C   C14       1.0  0.24443302853376278  0.14800107522881237  0.042004753360025404  1.0000
  C   C15       1.0  0.587758557763422  0.8409799712045118  0.030622132719365362  1.0000
  C   C16       1.0  0.4122420261108956  0.1590249794977226  0.9693811469770282  1.0000
  C   C17       1.0  0.41601388271763545  0.7562669642052884  0.024479057292865005  1.0000
  C   C18       1.0  0.5839952416285211  0.2437369570752282  0.9755241899529922  1.0000
  C   C19       1.0  0.4169312537663783  0.6800827533433138  0.9461202965672585  1.0000
  C   C20       1.0  0.5830638787311812  0.31992426209593827  0.0538770134256694  1.0000
  C   C21       1.0  0.5836574078167442  0.6925050131434319  0.8730873183056714  1.0000
  C   C22       1.0  0.4163330180898796  0.3074999389991221  0.1269088487606851  1.0000
  C   C23       1.0  0.2335614922765856  0.7534633682874131  0.10087499924252802  1.0000
  C   C24       1.0  0.7664624366978288  0.24653230283593794  0.8991325665376025  1.0000
  C   C25       1.0  0.9463725053252856  0.6278527935301954  0.18388463002655436  1.0000
  C   C26       1.0  0.053629809068297556  0.37215215564826565  0.8161222643747692  1.0000
  I   I1        1.0  0.9622256662814834  0.7356198121197723  0.4617956666186984  1.0000
  I   I2        1.0  0.037779113058718373  0.2643789565783053  0.5381973041336394  1.0000
  I   I3        1.0  0.48811762407557785  0.5108097060983424  0.3472743302961021  1.0000
  I   I4        1.0  0.5118768085433913  0.4891715192857263  0.6527317356279171  1.0000
  N   N1        1.0  0.3113134554933195  0.8536066100092446  0.6607871077258167  1.0000
  N   N2        1.0  0.6886992167565609  0.1463859655496762  0.33921808787187757  1.0000
  N   N3        1.0  0.3192324326030159  0.047056703733247204  0.7458657774545614  1.0000
  N   N4        1.0  0.6807666089337802  0.9529369023526612  0.254135165498667  1.0000
  N   N5        1.0  0.03851411315898179  0.9054520348752821  0.7836954926243749  1.0000
  N   N6        1.0  0.9614814822401029  0.09455188781217322  0.21629924282141394  1.0000
  O   O1        1.0  0.9664501040329725  0.6915010508832042  0.7490400942198079  1.0000
  O   O2        1.0  0.03351962183847948  0.30850699419598737  0.2509495235934835  1.0000
  O   O3        1.0  0.18677847769798445  0.8473083303647048  0.1501678918328153  1.0000
  O   O4        1.0  0.8132512228520241  0.15269250221545863  0.8498338880863585  1.0000
  O   O5        1.0  0.12481580558584672  0.6401386915418926  0.1091820200523728  1.0000
  O   O6        1.0  0.8751971296769625  0.3598631634444446  0.8908294124318418  1.0000
