data_image0
_chemical_formula_structural       Mn2H32C48N8O20
_chemical_formula_sum              "Mn2 H32 C48 N8 O20"
_cell_length_a       6.75718019209208
_cell_length_b       12.585595399726708
_cell_length_c       14.718183090117364
_cell_angle_alpha    115.3044405129063
_cell_angle_beta     99.05507723902765
_cell_angle_gamma    90.00757149857704

_space_group_name_H-M_alt    "P 1"
_space_group_IT_number       1

loop_
  _space_group_symop_operation_xyz
  'x, y, z'

loop_
  _atom_site_type_symbol
  _atom_site_label
  _atom_site_symmetry_multiplicity
  _atom_site_fract_x
  _atom_site_fract_y
  _atom_site_fract_z
  _atom_site_occupancy
  Mn  Mn1       1.0  0.7498045495138186  0.37015538196421716  5.32516435914342e-06  1.0000
  Mn  Mn2       1.0  0.2502185562440999  0.6298485802955582  0.9999890517351984  1.0000
  H   H1        1.0  0.5540156674454408  0.6753395856168397  0.867520799452947  1.0000
  H   H2        1.0  0.9461443577306241  0.80803082050776  0.13197693917578593  1.0000
  H   H3        1.0  0.4459673480425153  0.3246281576278491  0.13248979634051486  1.0000
  H   H4        1.0  0.05389839678669968  0.19194421834084346  0.8680176496332519  1.0000
  H   H5        1.0  0.6493663741956511  0.2982620033059007  0.7079281156750382  1.0000
  H   H6        1.0  0.8505134636659977  0.5905161134906791  0.29147721136215665  1.0000
  H   H7        1.0  0.3506835504632733  0.7017210247964486  0.292075951835578  1.0000
  H   H8        1.0  0.14945203230735868  0.4094761312213036  0.7085235403612771  1.0000
  H   H9        1.0  0.715540121104098  0.4434249022107436  0.49623574795747766  1.0000
  H   H10       1.0  0.7846192545517426  0.9473161770434543  0.5032690559851787  1.0000
  H   H11       1.0  0.28444359834423244  0.5565798019490983  0.5037781663054517  1.0000
  H   H12       1.0  0.2154092467414657  0.0526816568180166  0.4967254662429994  1.0000
  H   H13       1.0  0.6521464890566904  0.6410995101751097  0.623479151671411  1.0000
  H   H14       1.0  0.8481809074263679  0.0177782582698782  0.3761036292212268  1.0000
  H   H15       1.0  0.3478205840783346  0.3589007249723082  0.37653956160426816  1.0000
  H   H16       1.0  0.15184948751149108  0.9822125148524138  0.6238816436460011  1.0000
  H   H17       1.0  0.7637760827369603  0.0019174956187554997  0.08115864482081749  1.0000
  H   H18       1.0  0.7355934502634368  0.9207704669023542  0.9188526691162194  1.0000
  H   H19       1.0  0.2362013985454112  0.9981029865917178  0.9188490731199292  1.0000
  H   H20       1.0  0.2643769099715243  0.0792446489819199  0.08114109233382288  1.0000
  H   H21       1.0  0.8846388238893541  0.10878760790505031  0.2670899712499804  1.0000
  H   H22       1.0  0.6155345372320866  0.8417724559481246  0.7328609222233311  1.0000
  H   H23       1.0  0.11536265770440214  0.8912347539544709  0.7329158650056652  1.0000
  H   H24       1.0  0.38443713576595673  0.1582426523680098  0.2671288416438529  1.0000
  H   H25       1.0  0.973014429260992  0.32713451243205327  0.3447828129707061  1.0000
  H   H26       1.0  0.5276144633860936  0.9824209250770582  0.6551140348785935  1.0000
  H   H27       1.0  0.027006231987137096  0.6728879308761505  0.6552174645889224  1.0000
  H   H28       1.0  0.47239192239698724  0.017596139497783297  0.34487930663782856  1.0000
  H   H29       1.0  0.9451829270701282  0.4269420155858938  0.227600652004142  1.0000
  H   H30       1.0  0.5549167490624142  0.1993784094596265  0.7723444221970295  1.0000
  H   H31       1.0  0.05479910446738501  0.5730713933937325  0.7723905039081983  1.0000
  H   H32       1.0  0.445116989504335  0.800642327309653  0.2276512997367916  1.0000
  C   C1        1.0  0.5796709903197125  0.49881649563216257  0.8649196247957318  1.0000
  C   C2        1.0  0.9202066146696026  0.6341094168108157  0.13457840331611945  1.0000
  C   C3        1.0  0.420336984822228  0.5011706672192844  0.13507311484960371  1.0000
  C   C4        1.0  0.07977272865939969  0.3658846785438286  0.8654272923563935  1.0000
  C   C5        1.0  0.6151809568803513  0.4839725326568073  0.7630307476557971  1.0000
  C   C6        1.0  0.8848526788289489  0.7211713801206657  0.2364691361175204  1.0000
  C   C7        1.0  0.38483305349329555  0.5160111749717728  0.23697062699582716  1.0000
  C   C8        1.0  0.1151219180182679  0.27882266917814047  0.7635308073490065  1.0000
  C   C9        1.0  0.6482138372384298  0.3736133453202725  0.6902411295699266  1.0000
  C   C10       1.0  0.8517995259082839  0.6835660500759175  0.30924287071074  1.0000
  C   C11       1.0  0.35180804142451194  0.6263748000354495  0.3097596391167911  1.0000
  C   C12       1.0  0.1481772443425413  0.3164209622853349  0.690753965879118  1.0000
  C   C13       1.0  0.6808091705421049  0.35926974432630493  0.594739122544972  1.0000
  C   C14       1.0  0.8192769223552928  0.7646655617845896  0.40476684059100876  1.0000
  C   C15       1.0  0.31918714637175327  0.6407165077915026  0.40526206542369886  1.0000
  C   C16       1.0  0.18072065980904736  0.23533301881597168  0.5952362009701702  1.0000
  C   C17       1.0  0.6856744638074161  0.4556039635307556  0.5703998734077231  1.0000
  C   C18       1.0  0.8144512247097425  0.8853181999265162  0.4291067497241983  1.0000
  C   C19       1.0  0.3143049166091956  0.5443910078961522  0.42960478466724783  1.0000
  C   C20       1.0  0.18556289585885818  0.1146725004124391  0.570882229157597  1.0000
  C   C21       1.0  0.6501454165941282  0.5656267438380596  0.6413990706361615  1.0000
  C   C22       1.0  0.8501279905252517  0.9244060059527401  0.3581494719428022  1.0000
  C   C23       1.0  0.34982734277381405  0.4343734980615395  0.3586132072836108  1.0000
  C   C24       1.0  0.1498790187166037  0.07558643147895339  0.6418437696931676  1.0000
  C   C25       1.0  0.613781509253272  0.5816047717547194  0.7380524570674893  1.0000
  C   C26       1.0  0.8864774958408077  0.8437799873040459  0.26146844153885945  1.0000
  C   C27       1.0  0.3862111109747843  0.41838501529046823  0.2619586207543633  1.0000
  C   C28       1.0  0.11352579498800001  0.1562071347808143  0.7385199108969899  1.0000
  C   C29       1.0  0.7876961387494106  0.1586693429990902  0.05566561554834238  1.0000
  C   C30       1.0  0.7116301998277451  0.10301824124831425  0.9443632898766763  1.0000
  C   C31       1.0  0.21230255924705693  0.8413424262887265  0.9443341470182959  1.0000
  C   C32       1.0  0.2883609767424247  0.8969943573244592  0.05563358306264375  1.0000
  C   C33       1.0  0.8050215324472917  0.09617326497868821  0.11516088911744049  1.0000
  C   C34       1.0  0.6944542063905246  0.9810320548999839  0.8848394657234236  1.0000
  C   C35       1.0  0.19496850479129788  0.903841974668282  0.8848382336086259  1.0000
  C   C36       1.0  0.30551761602587385  0.0189821932116416  0.11515543073080887  1.0000
  C   C37       1.0  0.8719457439196533  0.15624352863974172  0.21997102593936552  1.0000
  C   C38       1.0  0.628057734929392  0.9363389025163472  0.7799918691123934  1.0000
  C   C39       1.0  0.1280522739389696  0.8437744124575984  0.7800336610063922  1.0000
  C   C40       1.0  0.3719158474372577  0.0636771219071761  0.22000514454293807  1.0000
  C   C41       1.0  0.9214577064983658  0.2771881944285681  0.2630993031227787  1.0000
  C   C42       1.0  0.5788021689517394  0.014137452262751498  0.7368208631966978  1.0000
  C   C43       1.0  0.07854633244960502  0.7228332735777769  0.7368988930664243  1.0000
  C   C44       1.0  0.4211910211786928  0.9858821817001484  0.263172583856729  1.0000
  C   C45       1.0  0.9044966839982108  0.33303005551197634  0.19879863706805168  1.0000
  C   C46       1.0  0.5954373418401459  0.13426717945825567  0.8011652312310673  1.0000
  C   C47       1.0  0.09550232377363702  0.6669861047156758  0.801198667503904  1.0000
  C   C48       1.0  0.4045725267558211  0.865752561668117  0.1988333822850734  1.0000
  N   N1        1.0  0.8387007674032388  0.27611958830313205  0.09794075971792889  1.0000
  N   N2        1.0  0.6607649540667212  0.17816971405719068  0.9020543339858091  1.0000
  N   N3        1.0  0.1613034243168912  0.7238912984414725  0.9020501925990841  1.0000
  N   N4        1.0  0.3392358196586684  0.8218490959099969  0.0979433676914425  1.0000
  N   N5        1.0  0.7060992278355798  0.24214143792379875  0.5198606464575377  1.0000
  N   N6        1.0  0.7939320014126353  0.7223435826785477  0.4796160375057352  1.0000
  N   N7        1.0  0.29390103001700396  0.7578553859744376  0.48013920512600805  1.0000
  N   N8        1.0  0.2060804224422625  0.2776409821441845  0.520381472148685  1.0000
  O   O1        1.0  0.6005684616464109  0.4119839232594913  0.8867064944545574  1.0000
  O   O2        1.0  0.899224852337383  0.5254948356111556  0.11280524408224578  1.0000
  O   O3        1.0  0.39949280281243915  0.5879841567241542  0.11328264645974424  1.0000
  O   O4        1.0  0.1007050592717391  0.47449637086266705  0.8872037624545468  1.0000
  O   O5        1.0  0.5249107889322389  0.5998098192679677  0.9242953680201749  1.0000
  O   O6        1.0  0.97504606606131  0.6756955979943909  0.07518191114157696  1.0000
  O   O7        1.0  0.4750720243257973  0.40014993126239773  0.0756946336346758  1.0000
  O   O8        1.0  0.0249872744529682  0.3242829663847857  0.9248283203783032  1.0000
  O   O9        1.0  0.6831180421154599  0.1574012200713213  0.5411617650564793  1.0000
  O   O10       1.0  0.816737813961673  0.6162954324583793  0.4582691920752849  1.0000
  O   O11       1.0  0.316881501865474  0.8425911785069504  0.45883167204446806  1.0000
  O   O12       1.0  0.1832694181694521  0.3837182124554275  0.5417501397753739  1.0000
  O   O13       1.0  0.7487851063536867  0.2302303211678165  0.43658559990665674  1.0000
  O   O14       1.0  0.7513585943708491  0.7936984011397852  0.5629340987029606  1.0000
  O   O15       1.0  0.2512217070251097  0.7697709480257087  0.5634176432948406  1.0000
  O   O16       1.0  0.2486428572064696  0.20631959358154006  0.4370803380316416  1.0000
  O   O17       1.0  0.5830635836472878  0.6890131544623443  0.8063672353042151  1.0000
  O   O18       1.0  0.917215871283858  0.8828722739639189  0.19313700975973075  1.0000
  O   O19       1.0  0.41692670017064165  0.3109678238911755  0.19364388361258014  1.0000
  O   O20       1.0  0.0828062774173688  0.11710879177450548  0.8068516821663749  1.0000
