data_image0
_chemical_formula_structural       Mn4P12H40C12N4O36
_chemical_formula_sum              "Mn4 P12 H40 C12 N4 O36"
_cell_length_a       8.359963764024988
_cell_length_b       9.124055760689341
_cell_length_c       13.443944093490108
_cell_angle_alpha    97.86204861972176
_cell_angle_beta     90.00020443321178
_cell_angle_gamma    90.00016240445554

_space_group_name_H-M_alt    "P 1"
_space_group_IT_number       1

loop_
  _space_group_symop_operation_xyz
  'x, y, z'

loop_
  _atom_site_type_symbol
  _atom_site_label
  _atom_site_symmetry_multiplicity
  _atom_site_fract_x
  _atom_site_fract_y
  _atom_site_fract_z
  _atom_site_occupancy
  Mn  Mn1       1.0  0.961973783547066  0.7808436553641797  0.24435344987830382  1.0000
  Mn  Mn2       1.0  0.46197514190235733  0.7191559266963097  0.25564860068030276  1.0000
  Mn  Mn3       1.0  0.0380254041288879  0.2191555320951224  0.7556470041536514  1.0000
  Mn  Mn4       1.0  0.5380264381327464  0.2808432613982035  0.7443533410718857  1.0000
  P   P1        1.0  0.19709200303145025  0.8752645157915282  0.4444322768953981  1.0000
  P   P2        1.0  0.697104626237973  0.624739776568596  0.05556887975197362  1.0000
  P   P3        1.0  0.8029071846443687  0.12473577775568148  0.5555675357783798  1.0000
  P   P4        1.0  0.302895757615282  0.37526051698046814  0.9444309329232967  1.0000
  P   P5        1.0  0.32230648993584776  0.9558344939526648  0.7577020114171803  1.0000
  P   P6        1.0  0.8223127607535549  0.5441631806356355  0.7422925949720351  1.0000
  P   P7        1.0  0.6776938939092434  0.04416248006968001  0.2422967498981805  1.0000
  P   P8        1.0  0.17768642691798686  0.4558371122800721  0.2577057299845009  1.0000
  P   P9        1.0  0.2927846919406107  0.41525187802808006  0.5842202951408879  1.0000
  P   P10       1.0  0.7927849090465885  0.0847488122130642  0.915781533691387  1.0000
  P   P11       1.0  0.7072156919170567  0.5847473100645785  0.4157816466098012  1.0000
  P   P12       1.0  0.20721308245394002  0.9152514816480416  0.08421902283950539  1.0000
  H   H1        1.0  0.1354209221152516  0.08168454530096618  0.5384728766701699  1.0000
  H   H2        1.0  0.6354200419694607  0.4183156572561302  0.9615293023934299  1.0000
  H   H3        1.0  0.8645806579175787  0.9183157485657033  0.46152767986521337  1.0000
  H   H4        1.0  0.3645803418817907  0.5816835298892755  0.03847040778141061  1.0000
  H   H5        1.0  0.10664459654531559  0.8072876780373407  0.6040888882016588  1.0000
  H   H6        1.0  0.6066450333877497  0.6927115427740703  0.8959105907400158  1.0000
  H   H7        1.0  0.8933545911263611  0.1927115087904596  0.3959100781130687  1.0000
  H   H8        1.0  0.3933553504656331  0.3072876446870865  0.10408986329343861  1.0000
  H   H9        1.0  0.13218247795684593  0.6511942408277633  0.5118219300792006  1.0000
  H   H10       1.0  0.632181536037578  0.8488039534044417  0.988178997957391  1.0000
  H   H11       1.0  0.8678179058964091  0.3488060527213008  0.48817788259606937  1.0000
  H   H12       1.0  0.3678176516425183  0.15119634077426974  0.011822302433621697  1.0000
  H   H13       1.0  0.42966235336165687  0.6884468814954943  0.5325012836203342  1.0000
  H   H14       1.0  0.9296599810756588  0.8115533407006552  0.9674982594479928  1.0000
  H   H15       1.0  0.5703380304897223  0.311551199562011  0.4674990679126836  1.0000
  H   H16       1.0  0.070340402777461  0.18844805893630928  0.0325009118690858  1.0000
  H   H17       1.0  0.24364131618195736  0.8580178324783674  0.8934240606929366  1.0000
  H   H18       1.0  0.7436423243366762  0.6419829198915252  0.6065766072887726  1.0000
  H   H19       1.0  0.7563602638467231  0.14198135466889283  0.10657564948339632  1.0000
  H   H20       1.0  0.2563580595165789  0.35801737365753894  0.3934232053864974  1.0000
  H   H21       1.0  0.4359392662152217  0.942283128818836  0.5941208171166465  1.0000
  H   H22       1.0  0.9359369503831304  0.5577182182990299  0.9058766125772523  1.0000
  H   H23       1.0  0.5640599214564546  0.05771605800896401  0.4058781491980739  1.0000
  H   H24       1.0  0.0640634334679859  0.44228207493428323  0.09412245623939701  1.0000
  H   H25       1.0  0.53950314449429  0.8266964884426428  0.6675137186216419  1.0000
  H   H26       1.0  0.0395036067526249  0.6733091619480406  0.8324847196594193  1.0000
  H   H27       1.0  0.46049843553640096  0.1733038051082758  0.3324860940551275  1.0000
  H   H28       1.0  0.9604955809249347  0.3266944501786355  0.1675139127984124  1.0000
  H   H29       1.0  0.036398522173811905  0.4241595637177653  0.617328927182669  1.0000
  H   H30       1.0  0.5363961289444673  0.07584143816396961  0.8826731066872427  1.0000
  H   H31       1.0  0.963603057859018  0.5758407301489044  0.38267162935271404  1.0000
  H   H32       1.0  0.46360186255806474  0.9241599621007878  0.11732755234408641  1.0000
  H   H33       1.0  0.24719307593453985  0.6262215220776782  0.7095889421571115  1.0000
  H   H34       1.0  0.7471922700051294  0.8737792409879503  0.7904109908480024  1.0000
  H   H35       1.0  0.7528061117412791  0.37377877146953153  0.2904108705166665  1.0000
  H   H36       1.0  0.252805721495264  0.1262221589610562  0.2095889243247058  1.0000
  H   H37       1.0  0.4537285461300158  0.5944818505582957  0.6870138521471246  1.0000
  H   H38       1.0  0.953727968242802  0.9055217657986182  0.8129868024819586  1.0000
  H   H39       1.0  0.5462706415499526  0.4055195497083233  0.3129868068857036  1.0000
  H   H40       1.0  0.0462700232617337  0.09448074086979828  0.1870139590497999  1.0000
  C   C1        1.0  0.18567459132856362  0.7566450726925353  0.5436740652900626  1.0000
  C   C2        1.0  0.6856731399702982  0.7433554995981738  0.9563257138333939  1.0000
  C   C3        1.0  0.8143257925226877  0.24335411445287036  0.4563256448847781  1.0000
  C   C4        1.0  0.3143272438850957  0.25664479426664133  0.043674842700490005  1.0000
  C   C5        1.0  0.4198782122269266  0.8598390688807315  0.6455667975598729  1.0000
  C   C6        1.0  0.9198770517514561  0.6401644412395839  0.8544307969616014  1.0000
  C   C7        1.0  0.5801221716221789  0.1401601179489234  0.3544321687563468  1.0000
  C   C8        1.0  0.08012213592824222  0.35983917120285014  0.1455685793548511  1.0000
  C   C9        1.0  0.3370066520892082  0.6002380290520365  0.6504477584979967  1.0000
  C   C10       1.0  0.8370038743375903  0.8997619058104787  0.8495515528030995  1.0000
  C   C11       1.0  0.6629937317641748  0.39976115840912035  0.3495526955354578  1.0000
  C   C12       1.0  0.16299411715878886  0.10023728133121781  0.15044815736874284  1.0000
  N   N1        1.0  0.3438715289118264  0.7249792550903181  0.5884007503496704  1.0000
  N   N2        1.0  0.8438711144545011  0.7750218074680645  0.9115986806264544  1.0000
  N   N3        1.0  0.6561276587599778  0.27501882564958174  0.4115988573232415  1.0000
  N   N4        1.0  0.15612807322332864  0.2249795924827964  0.0884012345477529  1.0000
  O   O1        1.0  0.031366253751812706  0.8670712225004776  0.39648153278763226  1.0000
  O   O2        1.0  0.5313600392567184  0.632933662620559  0.10352005565285083  1.0000
  O   O3        1.0  0.968634130103581  0.1329290713643374  0.6035190237462588  1.0000
  O   O4        1.0  0.46864034459653686  0.3670666309285054  0.8964797570224121  1.0000
  O   O5        1.0  0.2301759338301039  0.0387992343662731  0.49766701990788675  1.0000
  O   O6        1.0  0.7301713491403915  0.46119941338819365  0.0023332571794157167  1.0000
  O   O7        1.0  0.7698256462007154  0.9611999530967377  0.5023334341270669  1.0000
  O   O8        1.0  0.26982903471286335  0.5388008801608705  0.9976665554958543  1.0000
  O   O9        1.0  0.34022035282675495  0.8268052524455599  0.37973301732153436  1.0000
  O   O10       1.0  0.8402131630363386  0.6731917379638758  0.12026554823996351  1.0000
  O   O11       1.0  0.6597812272039294  0.17319504110535885  0.6202667953552279  1.0000
  O   O12       1.0  0.1597884169923418  0.32680744918339133  0.8797341619363692  1.0000
  O   O13       1.0  0.4452052778733702  0.0774050250931566  0.7898823323403761  1.0000
  O   O14       1.0  0.9452029649867627  0.4225972423220909  0.7101155170986218  1.0000
  O   O15       1.0  0.554796302157314  0.9225952684577621  0.21011748033639321  1.0000
  O   O16       1.0  0.054797418868631105  0.5774030515427241  0.2898850394352621  1.0000
  O   O17       1.0  0.31964622359311784  0.8369669756235538  0.8328638977555016  1.0000
  O   O18       1.0  0.8196440566422538  0.6630329047722725  0.6671338824041656  1.0000
  O   O19       1.0  0.6803553564335586  0.163031105120055  0.1671357099203945  1.0000
  O   O20       1.0  0.1803551310335649  0.33696738877493004  0.3328659302696053  1.0000
  O   O21       1.0  0.15521693162178712  0.010255016665311699  0.740039911166825  1.0000
  O   O22       1.0  0.655215113139164  0.4897375015065465  0.7599593683339876  1.0000
  O   O23       1.0  0.8447822560502872  0.9897408518987729  0.2599609792224555  1.0000
  O   O24       1.0  0.344785270714091  0.5102627920425178  0.24004044434128252  1.0000
  O   O25       1.0  0.11065463696094471  0.4171114798813349  0.5557683307548444  1.0000
  O   O26       1.0  0.6106478348809716  0.08288753851336848  0.9442314522752753  1.0000
  O   O27       1.0  0.8893469430700094  0.5828866014937689  0.44423276463829353  1.0000
  O   O28       1.0  0.38934656809554724  0.9171149687809931  0.055770796969227404  1.0000
  O   O29       1.0  0.3262227152172558  0.31683554238784234  0.6647349408245162  1.0000
  O   O30       1.0  0.8262203813674986  0.18316525091192656  0.8352654839283957  1.0000
  O   O31       1.0  0.6737788648175781  0.6831658578824786  0.33526571821129647  1.0000
  O   O32       1.0  0.17377761013289472  0.816836149037087  0.1647344312443124  1.0000
  O   O33       1.0  0.37886965722138644  0.38432763378089874  0.48398672746613164  1.0000
  O   O34       1.0  0.878867670749685  0.11567147445765613  0.016012433846064805  1.0000
  O   O35       1.0  0.6211307266320035  0.6156715536802579  0.5160137265673228  1.0000
  O   O36       1.0  0.12113032074656623  0.8843288187719479  0.9839866349676002  1.0000
