data_image0
_chemical_formula_structural       U2Ag2H28C44N4O16
_chemical_formula_sum              "U2 Ag2 H28 C44 N4 O16"
_cell_length_a       8.924478941047926
_cell_length_b       10.102543434751798
_cell_length_c       12.067215052933339
_cell_angle_alpha    79.43876124358047
_cell_angle_beta     86.0703090592444
_cell_angle_gamma    79.08251496067517

_space_group_name_H-M_alt    "P 1"
_space_group_IT_number       1

loop_
  _space_group_symop_operation_xyz
  'x, y, z'

loop_
  _atom_site_type_symbol
  _atom_site_label
  _atom_site_symmetry_multiplicity
  _atom_site_fract_x
  _atom_site_fract_y
  _atom_site_fract_z
  _atom_site_occupancy
  U   U1        1.0  0.33159482638285437  0.0721363385263061  0.30814315718463103  1.0000
  U   U2        1.0  0.6684020936849748  0.9278623636609284  0.6918578746484558  1.0000
  Ag  Ag1       1.0  0.6083949773143971  0.7923793185816947  0.15277198257219032  1.0000
  Ag  Ag2       1.0  0.3916012461983697  0.20762246469180215  0.8472327499723779  1.0000
  H   H1        1.0  0.5310720995655346  0.5086334069706737  0.08218860370866574  1.0000
  H   H2        1.0  0.4689255794269582  0.491372469317831  0.9178129551520658  1.0000
  H   H3        1.0  0.6099391622597565  0.25365882725132854  0.1341889227358024  1.0000
  H   H4        1.0  0.3900610420955104  0.7463460196321564  0.8658085452146838  1.0000
  H   H5        1.0  0.817207940517889  0.1628903421499572  0.27553297819993366  1.0000
  H   H6        1.0  0.18279114120693415  0.8371145025733142  0.7244645366767204  1.0000
  H   H7        1.0  0.9356458105215067  0.3255801693408672  0.3539000496157457  1.0000
  H   H8        1.0  0.06435385275788261  0.6744216103682207  0.6461003969192023  1.0000
  H   H9        1.0  0.06778294225958346  0.474536517144749  0.3643429499911833  1.0000
  H   H10       1.0  0.9322163333167668  0.5254673059071281  0.6356555421048997  1.0000
  H   H11       1.0  0.15295810110816885  0.6503256400078428  0.4528221557792025  1.0000
  H   H12       1.0  0.8470506150900549  0.3496761469379237  0.5471737701152792  1.0000
  H   H13       1.0  0.9877949614311986  0.8838494947644266  0.44029247728870063  1.0000
  H   H14       1.0  0.012213575290566296  0.11615331184371772  0.559701642340123  1.0000
  H   H15       1.0  0.7496039527077938  0.9322571490340296  0.3293817525806447  1.0000
  H   H16       1.0  0.25039895173385657  0.06775078139833822  0.6706176172103754  1.0000
  H   H17       1.0  0.029222435750085703  0.2524423448034625  0.9907809265339157  1.0000
  H   H18       1.0  0.9707839393146858  0.7475543192686518  0.009216710051333553  1.0000
  H   H19       1.0  0.15852781281628128  0.5750804780421107  0.13063978883953817  1.0000
  H   H20       1.0  0.8414749430053943  0.4249172092567905  0.8693603274896805  1.0000
  H   H21       1.0  0.6158046327264017  0.3225015744776344  0.6571723437205251  1.0000
  H   H22       1.0  0.3841917510184059  0.6774889279189226  0.342827480211895  1.0000
  H   H23       1.0  0.3793908096649901  0.4294416051542171  0.3449728909639448  1.0000
  H   H24       1.0  0.6206064741086124  0.5705499250919673  0.6550275669153153  1.0000
  H   H25       1.0  0.019917337730632322  0.9522638101331679  0.20795451720169925  1.0000
  H   H26       1.0  0.9800784837040268  0.0477400184921279  0.7920490899502328  1.0000
  H   H27       1.0  0.23661301548788316  0.9618579320876324  0.8789671494771272  1.0000
  H   H28       1.0  0.7633828203218371  0.038145894528653905  0.12103562862858304  1.0000
  C   C1        1.0  0.6211991449025546  0.46340867216572706  0.141785934458369  1.0000
  C   C2        1.0  0.3788001019236731  0.5365951549041696  0.858214215730165  1.0000
  C   C3        1.0  0.6641727757291848  0.3220928491712912  0.17142043010258587  1.0000
  C   C4        1.0  0.33582605464386717  0.6779130252594074  0.8285794237395339  1.0000
  C   C5        1.0  0.7788698149254074  0.2724468141612348  0.24921870923665077  1.0000
  C   C6        1.0  0.2211305832813792  0.7275570110508554  0.7507797359332643  1.0000
  C   C7        1.0  0.8457331761286823  0.3642674451859591  0.2935722946031164  1.0000
  C   C8        1.0  0.15426424188983395  0.635734330202702  0.7064282457841743  1.0000
  C   C9        1.0  0.7964491504144888  0.505190266039925  0.2584660753056198  1.0000
  C   C10       1.0  0.20355031901338083  0.4948125353405644  0.7415333940098993  1.0000
  C   C11       1.0  0.8599395280805024  0.6092352559637746  0.304105364674186  1.0000
  C   C12       1.0  0.1400649154447606  0.3907706292680047  0.6958942545370803  1.0000
  C   C13       1.0  0.9976833982059005  0.5759173603799824  0.360477509553448  1.0000
  C   C14       1.0  0.0023196904650645955  0.42408441777371314  0.6395194800181019  1.0000
  C   C15       1.0  0.04573385152693282  0.6747974166004838  0.4092689435085434  1.0000
  C   C16       1.0  0.9542690720426279  0.3252053792065865  0.5907254107511265  1.0000
  C   C17       1.0  0.9558333786988628  0.8045228234680055  0.40157168402851084  1.0000
  C   C18       1.0  0.044174712819604174  0.19548203451897453  0.5984237973463424  1.0000
  C   C19       1.0  0.8234285085618751  0.8318853896866331  0.3403383823870314  1.0000
  C   C20       1.0  0.1765787905289571  0.16811743083338374  0.6596624165377423  1.0000
  C   C21       1.0  0.10435856359385547  0.4040015773265325  0.06732292859636858  1.0000
  C   C22       1.0  0.8956479765723131  0.5959940690922139  0.9326773433007536  1.0000
  C   C23       1.0  0.015526896007159506  0.3611343021372093  0.9937927825670702  1.0000
  C   C24       1.0  0.98447795434906  0.6388644051264835  0.0062037755517109884  1.0000
  C   C25       1.0  0.0888729326139384  0.5431952406015627  0.0731655629891321  1.0000
  C   C26       1.0  0.9111285067257737  0.45680346620851964  0.9268336230468253  1.0000
  C   C27       1.0  0.2093161722058667  0.29868277235161134  0.14182968663902074  1.0000
  C   C28       1.0  0.7906858630634729  0.7013128674352843  0.8581716020090013  1.0000
  C   C29       1.0  0.4984904084982206  0.3618244160020083  0.500834571734295  1.0000
  C   C30       1.0  0.5015059608715333  0.6381660884035583  0.49916608124434003  1.0000
  C   C31       1.0  0.5663497296348581  0.4010545956897644  0.5883456811150582  1.0000
  C   C32       1.0  0.4336484829176612  0.5989379583880279  0.41165375261859805  1.0000
  C   C33       1.0  0.4314887075150721  0.4612904852839535  0.4125521554876457  1.0000
  C   C34       1.0  0.5685086193837136  0.5387010389352014  0.5874458152529416  1.0000
  C   C35       1.0  0.4996011747273883  0.2137720028606581  0.5013513019595095  1.0000
  C   C36       1.0  0.5004005995679747  0.7862195360263871  0.498648968215072  1.0000
  C   C37       1.0  0.1416972495060804  0.9502343280270152  0.04878272745967392  1.0000
  C   C38       1.0  0.8583012192675668  0.0497674595669153  0.9512219112325585  1.0000
  C   C39       1.0  0.009072438832625082  0.9729572173856698  0.11696702498429801  1.0000
  C   C40       1.0  0.9909222599715901  0.0270466090794059  0.8830366290938019  1.0000
  C   C41       1.0  0.1323088738070695  0.9780985246935857  0.9310999514665641  1.0000
  C   C42       1.0  0.8676858106220918  0.021905303780499697  0.06890453165775773  1.0000
  C   C43       1.0  0.2923093990116996  0.9006686595284065  0.10215542441938652  1.0000
  C   C44       1.0  0.7076877005325883  0.0993290229964501  0.897847413679344  1.0000
  N   N1        1.0  0.6859838089418486  0.552195325127677  0.18305315066316302  1.0000
  N   N2        1.0  0.3140154091342565  0.44780850596023924  0.8169486576178147  1.0000
  N   N3        1.0  0.7776287841287086  0.738086883892848  0.2912697422485877  1.0000
  N   N4        1.0  0.22237029759611454  0.2619179608304236  0.7087277726280662  1.0000
  O   O1        1.0  0.2592262030060581  0.3241568091400282  0.23138337149923427  1.0000
  O   O2        1.0  0.7407718109420856  0.6758418992254465  0.7686192715001215  1.0000
  O   O3        1.0  0.24424362603144795  0.17718383476221083  0.11959557185470264  1.0000
  O   O4        1.0  0.7557584236129596  0.822811803015675  0.8804048877470978  1.0000
  O   O5        1.0  0.4013509350397371  0.18176606054255023  0.44419234375036626  1.0000
  O   O6        1.0  0.5986453480796428  0.8182244559170755  0.5558132835056073  1.0000
  O   O7        1.0  0.5991912504221729  0.12566612725300533  0.5589656336875777  1.0000
  O   O8        1.0  0.40081148140222916  0.8743264314476279  0.4410319542489562  1.0000
  O   O9        1.0  0.29710078425556935  0.9015612869481443  0.20918035637307514  1.0000
  O   O10       1.0  0.7028985749246672  0.09843639788813621  0.790821558827098  1.0000
  O   O11       1.0  0.40833648245256876  0.8600569883265621  0.04325802939775514  1.0000
  O   O12       1.0  0.5916552552912862  0.1399396536897868  0.956742704366363  1.0000
  O   O13       1.0  0.528055350455702  0.058640933124614505  0.2540455756147751  1.0000
  O   O14       1.0  0.47194354914617526  0.9413588050994974  0.7459585303776495  1.0000
  O   O15       1.0  0.13628233661010106  0.0855810981128045  0.364862816011531  1.0000
  O   O16       1.0  0.8637213336154301  0.9144176150267144  0.6351371052183126  1.0000
