data_image0
_chemical_formula_structural       Cu2H24C40N4O8
_chemical_formula_sum              "Cu2 H24 C40 N4 O8"
_cell_length_a       8.746078602480434
_cell_length_b       8.742651897109477
_cell_length_c       12.871334051355895
_cell_angle_alpha    101.09792476095355
_cell_angle_beta     108.16559658564125
_cell_angle_gamma    104.92399489059508

_space_group_name_H-M_alt    "P 1"
_space_group_IT_number       1

loop_
  _space_group_symop_operation_xyz
  'x, y, z'

loop_
  _atom_site_type_symbol
  _atom_site_label
  _atom_site_symmetry_multiplicity
  _atom_site_fract_x
  _atom_site_fract_y
  _atom_site_fract_z
  _atom_site_occupancy
  Cu  Cu1       1.0  0.42047732763685264  0.17066841024210785  0.2499808375828466  1.0000
  Cu  Cu2       1.0  0.5795217345744134  0.8293301142203333  0.7500190953901867  1.0000
  H   H1        1.0  0.567876898407654  0.7883687540694169  0.36167683437461323  1.0000
  H   H2        1.0  0.9258917967159448  0.20563372096159324  0.13793682859589046  1.0000
  H   H3        1.0  0.4321266282490441  0.2116322614084183  0.6383274844361468  1.0000
  H   H4        1.0  0.07410649378295628  0.7943697578869331  0.8620613015807451  1.0000
  H   H5        1.0  0.5887644523470712  0.5170869517488441  0.3838871623203844  1.0000
  H   H6        1.0  0.6326836642142695  0.20459484981017786  0.1159792950234433  1.0000
  H   H7        1.0  0.4112362374298898  0.48291279237563606  0.6161156108087557  1.0000
  H   H8        1.0  0.3673121467309314  0.7954011781599134  0.8840180584177734  1.0000
  H   H9        1.0  0.25491950999780494  0.12014154547859586  0.0362107593234313  1.0000
  H   H10       1.0  0.5838687432946087  0.21828931378032476  0.4637672750069727  1.0000
  H   H11       1.0  0.7450767762593599  0.8798630551262648  0.9637909936523672  1.0000
  H   H12       1.0  0.4161326853160788  0.7817018379403607  0.5362336800886143  1.0000
  H   H13       1.0  0.04884205780517449  0.11340198247128087  0.8512550929160486  1.0000
  H   H14       1.0  0.7624845029820618  0.19800040709796463  0.6488725180370383  1.0000
  H   H15       1.0  0.9511574758527386  0.8866051717942155  0.1487461388111555  1.0000
  H   H16       1.0  0.23752300701011816  0.8019946125129352  0.35112713590626765  1.0000
  H   H17       1.0  0.011025291637991994  0.3768874578187678  0.8178279166577983  1.0000
  H   H18       1.0  0.05914962281311627  0.19338380646181713  0.68214230154193  1.0000
  H   H19       1.0  0.9889782891800177  0.6231210051993512  0.1821743414716437  1.0000
  H   H20       1.0  0.9408574998733811  0.8066137117802297  0.3178552882105237  1.0000
  H   H21       1.0  0.17854905881122815  0.644409807376654  0.969553266672442  1.0000
  H   H22       1.0  0.17435688872525645  0.20830386824570715  0.5301015166966112  1.0000
  H   H23       1.0  0.8214524877853931  0.3555960965038664  0.03045131901151889  1.0000
  H   H24       1.0  0.8256466263354695  0.7916973187369862  0.4698934997729226  1.0000
  C   C1        1.0  0.38937136156152247  0.8523222756413489  0.17387752062752784  1.0000
  C   C2        1.0  0.1779380245961519  0.2154760337105301  0.3258156543207918  1.0000
  C   C3        1.0  0.6106265222816845  0.14767986373162503  0.8261257772597335  1.0000
  C   C4        1.0  0.8220606212961171  0.7845212941970628  0.6741816944118427  1.0000
  C   C5        1.0  0.4001170903944881  0.6858595265449096  0.18394596035768987  1.0000
  C   C6        1.0  0.0013969477062615696  0.21588842866400165  0.3157501187824182  1.0000
  C   C7        1.0  0.5998856365028472  0.31414273384094576  0.8160568108022377  1.0000
  C   C8        1.0  0.9986004859729858  0.7841088904284774  0.6842461988393965  1.0000
  C   C9        1.0  0.5008470118584681  0.6774981525284502  0.2882964065718809  1.0000
  C   C10       1.0  0.8885758173883712  0.2121726186683333  0.21139717953926862  1.0000
  C   C11       1.0  0.49915491817851176  0.32250530988920906  0.7117071425225207  1.0000
  C   C12       1.0  0.11142244409721505  0.7878271649941979  0.7886004305878205  1.0000
  C   C13       1.0  0.5130387459104071  0.5247430154286477  0.30097260835840706  1.0000
  C   C14       1.0  0.7232910796229319  0.2118115226158324  0.19885384548432242  1.0000
  C   C15       1.0  0.4869631841265729  0.47526044698901154  0.6990309407360017  1.0000
  C   C16       1.0  0.2767055281826245  0.7881833033224552  0.8011427300224202  1.0000
  C   C17       1.0  0.3277802881348392  0.38551269071052013  0.11020740800366725  1.0000
  C   C18       1.0  0.7750625906199744  0.21735760193575968  0.3896682170891098  1.0000
  C   C19       1.0  0.672220429689112  0.6144907628920179  0.8897951099799147  1.0000
  C   C20       1.0  0.22493440159227865  0.7826347682475968  0.610328097023178  1.0000
  C   C21       1.0  0.23675071796559877  0.2341599377467958  0.02105928642011891  1.0000
  C   C22       1.0  0.7130841228058385  0.2155757079658116  0.4789154215708751  1.0000
  C   C23       1.0  0.763245568291559  0.7658446628580576  0.9789424665556798  1.0000
  C   C24       1.0  0.2869160926254891  0.7844154492318295  0.5210837272187804  1.0000
  C   C25       1.0  0.12446306281030671  0.23156198186656954  0.9174902480803414  1.0000
  C   C26       1.0  0.814258692963449  0.20722658700587704  0.5825538321045445  1.0000
  C   C27       1.0  0.875534847147236  0.7684438955686089  0.08251124427116001  1.0000
  C   C28       1.0  0.18574757483604995  0.7927647428959828  0.4174434954832977  1.0000
  C   C29       1.0  0.10229734650607718  0.3800808378338515  0.8990220075177933  1.0000
  C   C30       1.0  0.9811408542453746  0.20347719569164713  0.6009711845174979  1.0000
  C   C31       1.0  0.8977038137511997  0.6199275503857464  0.10098128917042004  1.0000
  C   C32       1.0  0.0188613954073418  0.7965165206435856  0.39902563671764585  1.0000
  C   C33       1.0  0.19390978612522491  0.5295439730766203  0.9829722932204777  1.0000
  C   C34       1.0  0.046261917931161564  0.21059065880481845  0.5167943759835368  1.0000
  C   C35       1.0  0.8060917604713962  0.4704619308038999  0.01703229246348309  1.0000
  C   C36       1.0  0.9537415681162498  0.7894068329918794  0.48320012043645744  1.0000
  C   C37       1.0  0.3089636230185704  0.5371418961416338  0.09101897702341694  1.0000
  C   C38       1.0  0.945780450331135  0.21766807107911032  0.408772226018229  1.0000
  C   C39       1.0  0.6910358864576764  0.4628614914775113  0.9089856106297493  1.0000
  C   C40       1.0  0.05421615650809029  0.7823267691512541  0.5912235742934089  1.0000
  N   N1        1.0  0.42976971745852655  0.38448468211171155  0.21536595221731156  1.0000
  N   N2        1.0  0.6688603669147214  0.2143280322023315  0.28456748396027376  1.0000
  N   N3        1.0  0.5702285778720295  0.615518725276459  0.7846360539348329  1.0000
  N   N4        1.0  0.3311354150171581  0.7856643005817644  0.7154293494313964  1.0000
  O   O1        1.0  0.39936996234403904  0.9482145708966454  0.26783078395958176  1.0000
  O   O2        1.0  0.18008368279227227  0.13170072472163946  0.23188657603194687  1.0000
  O   O3        1.0  0.6006303439925701  0.051787614690695684  0.7321730257591172  1.0000
  O   O4        1.0  0.8199129250132838  0.868294101216648  0.7681099994747955  1.0000
  O   O5        1.0  0.3766307762091258  0.890982518480264  0.08371746818448139  1.0000
  O   O6        1.0  0.3066003656928941  0.29285669784229645  0.4160329281573355  1.0000
  O   O7        1.0  0.623364271720682  0.10901833524727067  0.9162850592162574  1.0000
  O   O8        1.0  0.6933978938600305  0.7071431144043813  0.5839631315795517  1.0000
