data_image0
_chemical_formula_structural       ZnH30C32N4O4
_chemical_formula_sum              "Zn1 H30 C32 N4 O4"
_cell_length_a       8.488030596070205
_cell_length_b       9.000616937345525
_cell_length_c       10.407588386799764
_cell_angle_alpha    80.12964813905958
_cell_angle_beta     74.85407726340212
_cell_angle_gamma    64.25078496203443

_space_group_name_H-M_alt    "P 1"
_space_group_IT_number       1

loop_
  _space_group_symop_operation_xyz
  'x, y, z'

loop_
  _atom_site_type_symbol
  _atom_site_label
  _atom_site_symmetry_multiplicity
  _atom_site_fract_x
  _atom_site_fract_y
  _atom_site_fract_z
  _atom_site_occupancy
  Zn  Zn1       1.0  0.5000003380638206  0.49999930031880524  0.5000006322635783  1.0000
  H   H1        1.0  0.8150901828833028  0.9986249523136124  0.31115071490886237  1.0000
  H   H2        1.0  0.1849094222467329  0.001376132261079001  0.688848496987468  1.0000
  H   H3        1.0  0.8461581001462405  0.8680421392495392  0.4603965663889935  1.0000
  H   H4        1.0  0.15384272939128613  0.1319589364633771  0.5396023910229458  1.0000
  H   H5        1.0  0.9800892756477708  0.9833722236427389  0.39201875844292994  1.0000
  H   H6        1.0  0.019912089388554904  0.016627610101636502  0.6079812252844191  1.0000
  H   H7        1.0  0.6258293078060506  0.9732982781702902  0.6386395296289957  1.0000
  H   H8        1.0  0.3741732816377734  0.0267015467123173  0.36136019961396215  1.0000
  H   H9        1.0  0.35439390731064446  0.21887263823965236  0.8982380839299535  1.0000
  H   H10       1.0  0.6456067767788622  0.7811259738978509  0.10176125556933605  1.0000
  H   H11       1.0  0.41338590217144133  0.027404132753446213  0.831836830202718  1.0000
  H   H12       1.0  0.5866135575105814  0.9725944882458251  0.16816276378095546  1.0000
  H   H13       1.0  0.2132122735416076  0.20223437070013967  0.8099951926013415  1.0000
  H   H14       1.0  0.7867871901213521  0.797764256049085  0.19000343886840193  1.0000
  H   H15       1.0  0.5687190775178409  0.29735085433939895  0.25862519668463335  1.0000
  H   H16       1.0  0.43128229149942154  0.70264898515493  0.7413738245287788  1.0000
  H   H17       1.0  0.38644204301681384  0.22401692401622597  0.14440753797095598  1.0000
  H   H18       1.0  0.6135600109282039  0.7759841428349219  0.8555911649565925  1.0000
  H   H19       1.0  0.9140767864143484  0.5978362259179092  0.3586040065760655  1.0000
  H   H20       1.0  0.08592603170849607  0.40215740684553225  0.6414013632127362  1.0000
  H   H21       1.0  0.11738168063423872  0.6584179597436303  0.4612834504115141  1.0000
  H   H22       1.0  0.8826211414695423  0.3415756787697575  0.5387209568633509  1.0000
  H   H23       1.0  0.8742095203865363  0.4241270085810387  0.2282091905617562  1.0000
  H   H24       1.0  0.12579023019151947  0.5758765395690659  0.7717896392472238  1.0000
  H   H25       1.0  0.7871028916005754  0.44013043615542113  0.03493559581195877  1.0000
  H   H26       1.0  0.21289617404972466  0.5598718846378574  0.9650635522828918  1.0000
  H   H27       1.0  0.6203280212171833  0.3580430953154732  0.9168475427895681  1.0000
  H   H28       1.0  0.37966736324877104  0.6419592405632173  0.0831542937863148  1.0000
  H   H29       1.0  0.7258755205123392  0.06386082467275858  0.8711399367550426  1.0000
  H   H30       1.0  0.27411986395361526  0.9361415112059319  0.12886189982084054  1.0000
  C   C1        1.0  0.8457363495962509  0.9854342190515339  0.40991273011864854  1.0000
  C   C2        1.0  0.15426394046154  0.0145680928799763  0.5900861634918185  1.0000
  C   C3        1.0  0.709197706208684  0.13186780316168983  0.4875968406384317  1.0000
  C   C4        1.0  0.29080312730977936  0.8681332783011725  0.512401154259578  1.0000
  C   C5        1.0  0.5976101246424506  0.10225402445870202  0.6061924550213716  1.0000
  C   C6        1.0  0.40238948048758516  0.8977470601159894  0.39380675687495875  1.0000
  C   C7        1.0  0.4505318671323977  0.22105223867220047  0.6855775988759376  1.0000
  C   C8        1.0  0.5494688169571162  0.7789463734653025  0.3144217406233523  1.0000
  C   C9        1.0  0.35447817895227735  0.16187912594439519  0.8128565555681178  1.0000
  C   C10       1.0  0.6455218202094811  0.8381182588362819  0.18714310221704264  1.0000
  C   C11       1.0  0.42315849886313833  0.36033523084883967  0.2774249263147865  1.0000
  C   C12       1.0  0.5768428701541239  0.6396646086454894  0.7225740948986326  1.0000
  C   C13       1.0  0.322490217218693  0.3201261567544194  0.2150927569936627  1.0000
  C   C14       1.0  0.6775104668708208  0.6798724553830837  0.7849065825056197  1.0000
  C   C15       1.0  0.13484499461388572  0.40205386909045876  0.24653644277313447  1.0000
  C   C16       1.0  0.8651569019403098  0.5979447169354302  0.7534655297835611  1.0000
  C   C17       1.0  0.05885803055418404  0.5296917405440665  0.3334254314396857  1.0000
  C   C18       1.0  0.9411461653860369  0.47030435843291235  0.666577376749515  1.0000
  C   C19       1.0  0.1700900852871215  0.5629339487849379  0.3907425992979085  1.0000
  C   C20       1.0  0.8299134257253512  0.43706092283522224  0.6092605271771633  1.0000
  C   C21       1.0  0.019621106773115564  0.3552668438904406  0.19440717874569197  1.0000
  C   C22       1.0  0.9803772779303658  0.6447342552959654  0.8055913251210992  1.0000
  C   C23       1.0  0.9847528662287246  0.19336615686331265  0.06018964304455924  1.0000
  C   C24       1.0  0.015246742882247642  0.8066349334613251  0.9398086063378343  1.0000
  C   C25       1.0  0.048639135921973796  0.022808846775966205  0.033994060494713096  1.0000
  C   C26       1.0  0.9513597882612433  0.9771910161918456  0.9660045071735509  1.0000
  C   C27       1.0  0.8312465190040825  0.3103226371929608  0.018502396324478847  1.0000
  C   C28       1.0  0.16875308612595322  0.6896784473817307  0.9814968155718515  1.0000
  C   C29       1.0  0.7380740993293885  0.26357310141741414  0.9508399465046007  1.0000
  C   C30       1.0  0.2619230490237997  0.736427989380914  0.04916169938837809  1.0000
  C   C31       1.0  0.7963660693641901  0.10038916791837237  0.9247455984685897  1.0000
  C   C32       1.0  0.20363107898899815  0.8996119228799557  0.07525604742438222  1.0000
  N   N1        1.0  0.09018250459132562  0.2351935516009362  0.11706867694881139  1.0000
  N   N2        1.0  0.9098176400184456  0.764806296755154  0.8829305987489916  1.0000
  N   N3        1.0  0.3481933311170239  0.47717199234870117  0.36685124574296407  1.0000
  N   N4        1.0  0.6518091088978439  0.5228253632085397  0.6331498281012811  1.0000
  O   O1        1.0  0.7058585996805461  0.27326297320084336  0.4373838329702905  1.0000
  O   O2        1.0  0.29413978502293486  0.7267381259855626  0.5626146708964938  1.0000
  O   O3        1.0  0.3864794284495759  0.3778933031939787  0.6594718419756658  1.0000
  O   O4        1.0  0.6135207121792661  0.6221065394121723  0.3405283962360741  1.0000
