data_image0
_chemical_formula_structural       Mn4H36C36N36
_chemical_formula_sum              "Mn4 H36 C36 N36"
_cell_length_a       10.102661088474784
_cell_length_b       10.102665503290732
_cell_length_c       12.298261787623579
_cell_angle_alpha    102.6498553166807
_cell_angle_beta     102.65004165457522
_cell_angle_gamma    91.99814050305527

_space_group_name_H-M_alt    "P 1"
_space_group_IT_number       1

loop_
  _space_group_symop_operation_xyz
  'x, y, z'

loop_
  _atom_site_type_symbol
  _atom_site_label
  _atom_site_symmetry_multiplicity
  _atom_site_fract_x
  _atom_site_fract_y
  _atom_site_fract_z
  _atom_site_occupancy
  Mn  Mn1       1.0  0.8015150718304085  0.0672967334729861  0.847620381778498  1.0000
  Mn  Mn2       1.0  0.9326979139129111  0.19848649313691877  0.6523776259399768  1.0000
  Mn  Mn3       1.0  0.19848337623696471  0.9326959898477937  0.1523734294903605  1.0000
  Mn  Mn4       1.0  0.0672972637097189  0.8015153792429145  0.3476213257176468  1.0000
  H   H1        1.0  0.7825697471913388  0.374104620526623  0.931483494838453  1.0000
  H   H2        1.0  0.6258964960238059  0.2174329925568088  0.5685089842606105  1.0000
  H   H3        1.0  0.2174350439577353  0.6258911388584137  0.0685144705233043  1.0000
  H   H4        1.0  0.37410617732872004  0.7825729816944929  0.43148476944728753  1.0000
  H   H5        1.0  0.623379767318113  0.5542534513691064  0.9363630827011349  1.0000
  H   H6        1.0  0.445742922614727  0.3766177689654171  0.5636320183236236  1.0000
  H   H7        1.0  0.376628519422006  0.4457474002767797  0.0636356395472575  1.0000
  H   H8        1.0  0.5542554039755813  0.6233851345705401  0.4363644450019494  1.0000
  H   H9        1.0  0.37260916826258494  0.48893970689227445  0.8452829301099882  1.0000
  H   H10       1.0  0.511052472445229  0.627385893419273  0.6547147776389368  1.0000
  H   H11       1.0  0.6273961529458064  0.5110621542776882  0.15471787394508144  1.0000
  H   H12       1.0  0.4889456504605931  0.3726149491807931  0.34528615048144223  1.0000
  H   H13       1.0  0.2981272170589051  0.24230139871553286  0.7522179539307885  1.0000
  H   H14       1.0  0.7576908837558491  0.7018727780239117  0.7477784576789689  1.0000
  H   H15       1.0  0.7018771673349065  0.7577014697365384  0.24778530241045624  1.0000
  H   H16       1.0  0.24230649387076403  0.29813112064073977  0.2522228928944301  1.0000
  H   H17       1.0  0.350145741939386  0.021563603924143096  0.6950835774431425  1.0000
  H   H18       1.0  0.9784315920239453  0.6498549692284071  0.8049146633650964  1.0000
  H   H19       1.0  0.6498532199884793  0.9784352049770035  0.30491631913457706  1.0000
  H   H20       1.0  0.021568620944194098  0.35014686108625165  0.1950925193762245  1.0000
  H   H21       1.0  0.5081718163243211  0.0065263393710849995  0.655864166977132  1.0000
  H   H22       1.0  0.9934656261704333  0.4918283272940584  0.8441319768875672  1.0000
  H   H23       1.0  0.4918288236476158  0.9934684021322296  0.34413366651526905  1.0000
  H   H24       1.0  0.006528154022888095  0.5081694486417945  0.15587084919659594  1.0000
  H   H25       1.0  0.3024159343224611  0.8850217620751764  0.8310603647009884  1.0000
  H   H26       1.0  0.1149715028123808  0.6975855397436276  0.668934045522434  1.0000
  H   H27       1.0  0.6975846617164123  0.11498416580443659  0.16894275837405107  1.0000
  H   H28       1.0  0.8850196011771131  0.3024163209155971  0.33106741179175697  1.0000
  H   H29       1.0  0.4572998649263554  0.7420446097675606  0.9700334618040927  1.0000
  H   H30       1.0  0.2579516518515064  0.542699885913919  0.5299631924678111  1.0000
  H   H31       1.0  0.5426963964994301  0.25795825955012924  0.029969935926963804  1.0000
  H   H32       1.0  0.7420426948485002  0.4573040282671099  0.4700351674247045  1.0000
  H   H33       1.0  0.7206264601441461  0.8038697930553126  0.9553399446531899  1.0000
  H   H34       1.0  0.19612853896913415  0.2793747551476287  0.5446624950871027  1.0000
  H   H35       1.0  0.27937112055323615  0.196124935606413  0.04466057973552751  1.0000
  H   H36       1.0  0.803873714865283  0.7206270850784691  0.4553426231720438  1.0000
  C   C1        1.0  0.6745259201550555  0.3489270832294409  0.8917223906310525  1.0000
  C   C2        1.0  0.6510679367891256  0.3254746937621604  0.6082701044348937  1.0000
  C   C3        1.0  0.3254779463285686  0.6510696955911256  0.10827559205521452  1.0000
  C   C4        1.0  0.34893326159009064  0.6745261778840472  0.39172488617363405  1.0000
  C   C5        1.0  0.5840592679263497  0.4496464211043687  0.8950074418867615  1.0000
  C   C6        1.0  0.5503532458885871  0.4159364910218173  0.6049880206113303  1.0000
  C   C7        1.0  0.4159458900946262  0.5503534196410841  0.1049897104242561  1.0000
  C   C8        1.0  0.44964895874978345  0.5840643714011263  0.3950087785447139  1.0000
  C   C9        1.0  0.4464255453510689  0.41277407319546444  0.8445274711868793  1.0000
  C   C10       1.0  0.5872156724502345  0.5535730758491297  0.6554673836774042  1.0000
  C   C11       1.0  0.5535815435945182  0.5872247388912085  0.15547147234714495  1.0000
  C   C12       1.0  0.4127855913238463  0.44642878980478423  0.3445326794186911  1.0000
  C   C13       1.0  0.40459119550646966  0.27661850747782063  0.7922162183266863  1.0000
  C   C14       1.0  0.7233773848799389  0.5954129963809933  0.7077792743319266  1.0000
  C   C15       1.0  0.5954108175965301  0.7233803061626387  0.20778261066249826  1.0000
  C   C16       1.0  0.2766220376626549  0.40459091624623506  0.2922192001054214  1.0000
  C   C17       1.0  0.5022963191943433  0.18244443494933185  0.7896589473112315  1.0000
  C   C18       1.0  0.8175508110044802  0.49770652745605287  0.7103339898173929  1.0000
  C   C19       1.0  0.49770790606176274  0.8175564171293673  0.21033984563206337  1.0000
  C   C20       1.0  0.1824465787712484  0.5022973833620128  0.28966492579435515  1.0000
  C   C21       1.0  0.4604324991840302  0.03549564560440639  0.7286526132313753  1.0000
  C   C22       1.0  0.9644992244583862  0.5395702558304408  0.771343626775206  1.0000
  C   C23       1.0  0.5395695914629712  0.9645041741971737  0.27134885328371894  1.0000
  C   C24       1.0  0.035498800654899305  0.46042956035281424  0.22865872208868152  1.0000
  C   C25       1.0  0.41130112162294813  0.8764390182876693  0.8494805733361446  1.0000
  C   C26       1.0  0.12355707058693355  0.5886978453050276  0.6505172991713765  1.0000
  C   C27       1.0  0.5886972582131093  0.12356486710257995  0.15052339743866133  1.0000
  C   C28       1.0  0.8764379074009129  0.41130197019004544  0.3494853056271623  1.0000
  C   C29       1.0  0.49208680131030047  0.8062994023827628  0.9203970736702587  1.0000
  C   C30       1.0  0.1936961008362061  0.5079108285933316  0.5795998292557628  1.0000
  C   C31       1.0  0.5079095660074415  0.1937045014540146  0.07960328000951479  1.0000
  C   C32       1.0  0.8062967627910711  0.49208797488032  0.420401390845143  1.0000
  C   C33       1.0  0.6260873558426142  0.8383322695951066  0.9139771799246362  1.0000
  C   C34       1.0  0.16166674085066998  0.37391371339391094  0.5860227510170049  1.0000
  C   C35       1.0  0.3739105876769599  0.1616665363758898  0.08602334306722532  1.0000
  C   C36       1.0  0.8383345964177026  0.6260891543699784  0.4139807612588912  1.0000
  N   N1        1.0  0.6354267874427678  0.21752186612184224  0.8392631436131452  1.0000
  N   N2        1.0  0.7824784309196531  0.3645768299920248  0.6607317977253899  1.0000
  N   N3        1.0  0.3645750543734109  0.7824749189918379  0.16073365693974753  1.0000
  N   N4        1.0  0.21752201003122454  0.635427085565354  0.339266050297816  1.0000
  N   N5        1.0  0.495743540292473  0.94340655400876  0.8039912602724044  1.0000
  N   N6        1.0  0.056592836437957296  0.5042594577292404  0.6960079753698025  1.0000
  N   N7        1.0  0.5042566113304972  0.056594286349330496  0.196010038327465  1.0000
  N   N8        1.0  0.9434072949364776  0.4957413623731597  0.3039973814994924  1.0000
  N   N9        1.0  0.6278778959499078  0.9220872480041677  0.842720002132083  1.0000
  N   N10       1.0  0.0779129594708579  0.3721267085774471  0.6572823143052845  1.0000
  N   N11       1.0  0.37212309064539545  0.0779115546038724  0.15728107657901091  1.0000
  N   N12       1.0  0.9220895634429241  0.6278781865922552  0.34272341164663805  1.0000
  N   N13       1.0  0.931235128754871  0.8988317395565633  0.8487714997761844  1.0000
  N   N14       1.0  0.10116602314352718  0.06876636535108097  0.6512269706398329  1.0000
  N   N15       1.0  0.06877151172511019  0.10116198095744267  0.1512264309365463  1.0000
  N   N16       1.0  0.8988342343713998  0.9312355095260896  0.3487712839087466  1.0000
  N   N17       1.0  0.037539079777026474  0.8864747460275806  0.9078061374187953  1.0000
  N   N18       1.0  0.11352182802614412  0.9624619689334963  0.5921917083581506  1.0000
  N   N19       1.0  0.9624596373697117  0.11352103223679678  0.09218828154283898  1.0000
  N   N20       1.0  0.8864786823693155  0.0375429446827269  0.4078104004987397  1.0000
  N   N21       1.0  0.1443112107937949  0.8695088206696298  0.9643079821970206  1.0000
  N   N22       1.0  0.13048571208322102  0.8556913862215365  0.5356883070974447  1.0000
  N   N23       1.0  0.8556904516361287  0.1304859278149806  0.03568841322735492  1.0000
  N   N24       1.0  0.8695153763543289  0.1443084468544455  0.4643105392162497  1.0000
  N   N25       1.0  0.958328630068536  0.21926471189396324  0.8392516587363377  1.0000
  N   N26       1.0  0.7807345541405014  0.041670593687428  0.6607475847427225  1.0000
  N   N27       1.0  0.0416722708833532  0.7807330764506801  0.16074840575660693  1.0000
  N   N28       1.0  0.21926322214195443  0.9583261878079197  0.3392500981589635  1.0000
  N   N29       1.0  0.046832635002530806  0.28845224387582397  0.9142633909227343  1.0000
  N   N30       1.0  0.7115492536117074  0.9531677106382116  0.5857376375835416  1.0000
  N   N31       1.0  0.953162745690868  0.7115404585010834  0.08573473455020765  1.0000
  N   N32       1.0  0.2884529388775335  0.04683313963131749  0.4142615965341535  1.0000
  N   N33       1.0  0.13225092135012062  0.3579562433094878  0.986076658156378  1.0000
  N   N34       1.0  0.6420437463629441  0.8677466476627272  0.5139244207755453  1.0000
  N   N35       1.0  0.8677486718655771  0.6420384669057102  0.013927483327364657  1.0000
  N   N36       1.0  0.3579537810886819  0.13224709914470617  0.48606859616393905  1.0000
