data_image0
_chemical_formula_structural       Cd2H28C32N4O14
_chemical_formula_sum              "Cd2 H28 C32 N4 O14"
_cell_length_a       9.147993172684082
_cell_length_b       9.519597730117109
_cell_length_c       10.533179499732096
_cell_angle_alpha    117.19304943518856
_cell_angle_beta     89.8580572711527
_cell_angle_gamma    90.22207588708744

_space_group_name_H-M_alt    "P 1"
_space_group_IT_number       1

loop_
  _space_group_symop_operation_xyz
  'x, y, z'

loop_
  _atom_site_type_symbol
  _atom_site_label
  _atom_site_symmetry_multiplicity
  _atom_site_fract_x
  _atom_site_fract_y
  _atom_site_fract_z
  _atom_site_occupancy
  Cd  Cd1       1.0  0.749771658801471  0.08179818729874463  0.33617102638680063  1.0000
  Cd  Cd2       1.0  0.2502404899248205  0.9182005526588026  0.6638278740399599  1.0000
  H   H1        1.0  0.2392218390012602  0.047934014197011286  0.18742917679519885  1.0000
  H   H2        1.0  0.760789106486705  0.9520648366597796  0.8125744978969041  1.0000
  H   H3        1.0  0.3449671478592364  0.9496125712948498  0.02962557664208997  1.0000
  H   H4        1.0  0.6550432980753699  0.0503933207356653  0.9703714552987679  1.0000
  H   H5        1.0  0.38430213606096697  0.44053039022140433  0.997464730362893  1.0000
  H   H6        1.0  0.6156838299128468  0.5594686378871856  0.002531027821227376  1.0000
  H   H7        1.0  0.0820733397684492  0.6571466709438525  0.11449808570033336  1.0000
  H   H8        1.0  0.917913589921312  0.3428700274937455  0.885502968781907  1.0000
  H   H9        1.0  0.8435399726539926  0.9795566800890184  0.5437878488918814  1.0000
  H   H10       1.0  0.1564622148879877  0.0204438877811839  0.4562201846607935  1.0000
  H   H11       1.0  0.6711575435810032  0.9794394178684557  0.5469555650680749  1.0000
  H   H12       1.0  0.3288467770243741  0.0205574290871482  0.45304529223857776  1.0000
  H   H13       1.0  0.9728682039923628  0.17501115148938598  0.13705388024404644  1.0000
  H   H14       1.0  0.027136335735804085  0.8250056897034738  0.8629437098863875  1.0000
  H   H15       1.0  0.0923684952571975  0.4091800718005345  0.13314200083016203  1.0000
  H   H16       1.0  0.9076371058419993  0.5908427492398687  0.8668722800737856  1.0000
  H   H17       1.0  0.025912232900928693  0.6817714575700792  0.3294573607605004  1.0000
  H   H18       1.0  0.9740919423284993  0.31824674739585385  0.6705588204789523  1.0000
  H   H19       1.0  0.8454499083762599  0.7045880509648866  0.5099190796530948  1.0000
  H   H20       1.0  0.15454091697645111  0.29542377785769247  0.4900895532471524  1.0000
  H   H21       1.0  0.6746728544965778  0.7104880209714323  0.6312104705444812  1.0000
  H   H22       1.0  0.3252889602245475  0.2895100300888274  0.3687854615800249  1.0000
  H   H23       1.0  0.48422762310363515  0.7074292257323477  0.796354692503961  1.0000
  H   H24       1.0  0.5157412328328234  0.29253891151243744  0.20363584169562196  1.0000
  H   H25       1.0  0.40228585342471496  0.44253479524186184  0.7765834237322553  1.0000
  H   H26       1.0  0.5977184606588679  0.5574206703414076  0.2234025171975774  1.0000
  H   H27       1.0  0.5299480682126685  0.20014360650901608  0.6039653218094189  1.0000
  H   H28       1.0  0.47007567771224495  0.7998224756528315  0.39601384250998006  1.0000
  C   C1        1.0  0.4614253850237731  0.001378610736729514  0.22193980707182703  1.0000
  C   C2        1.0  0.5385767577014988  0.9986219765499698  0.7780701328943496  1.0000
  C   C3        1.0  0.32063287473366137  0.9543457370326536  0.1339136409328959  1.0000
  C   C4        1.0  0.6793735505616497  0.045648607157701804  0.866084333135511  1.0000
  C   C5        1.0  0.25751046978918885  0.7997321334451043  0.11419897352552513  1.0000
  C   C6        1.0  0.7424874888687116  0.20026380155144344  0.8857909677157068  1.0000
  C   C7        1.0  0.3590761317802631  0.6633986006603436  0.057368033942800864  1.0000
  C   C8        1.0  0.640913843350333  0.33659068523581226  0.9426181306282262  1.0000
  C   C9        1.0  0.11854899327398977  0.7773379771489883  0.14401486996810317  1.0000
  C   C10       1.0  0.8814509650015764  0.22267317806107204  0.8559765393578547  1.0000
  C   C11       1.0  0.0038431683370347817  0.9006741751480333  0.21184355677287678  1.0000
  C   C12       1.0  0.9961617165424743  0.09934975165126761  0.7881578676489555  1.0000
  C   C13       1.0  0.9478828556418292  0.29440037555882986  0.21878804412503436  1.0000
  C   C14       1.0  0.0521155752003466  0.7056086192919793  0.7812157579654626  1.0000
  C   C15       1.0  0.0136462607540082  0.4257092591248508  0.21659817553624802  1.0000
  C   C16       1.0  0.9863561399456556  0.5743125114237201  0.7834099306412272  1.0000
  C   C17       1.0  0.9761432498648972  0.5749168206066743  0.323753497768351  1.0000
  C   C18       1.0  0.023860786401385798  0.4250978269936638  0.6762593365152727  1.0000
  C   C19       1.0  0.8744310565201943  0.5879951605944099  0.4268759363945733  1.0000
  C   C20       1.0  0.1255688390433463  0.41201963935547775  0.5731273987479498  1.0000
  C   C21       1.0  0.8133586569034678  0.4505996994050817  0.4221782214242183  1.0000
  C   C22       1.0  0.1866378320723427  0.5494105218121206  0.5778184516562562  1.0000
  C   C23       1.0  0.7040169241164946  0.4566756565277217  0.5289059678045192  1.0000
  C   C24       1.0  0.2959876310505365  0.5433235005193777  0.47109108382993986  1.0000
  C   C25       1.0  0.6419956739573821  0.5990956929991853  0.6283217235821469  1.0000
  C   C26       1.0  0.3579928678862601  0.40089500931980376  0.3716820871227427  1.0000
  C   C27       1.0  0.5336241687291691  0.5967684210125485  0.7202489378916398  1.0000
  C   C28       1.0  0.4663602433375687  0.40320113389514484  0.27973576897985464  1.0000
  C   C29       1.0  0.48938425452761436  0.4518494753753186  0.7104380182810958  1.0000
  C   C30       1.0  0.5106171923775663  0.5481144422047849  0.2895522618157076  1.0000
  C   C31       1.0  0.5585677771888059  0.31530407544281047  0.6124135387190819  1.0000
  C   C32       1.0  0.44143880396058693  0.6846713179111887  0.3875748378118261  1.0000
  N   N1        1.0  0.8512514614217537  0.30636495351116366  0.31898594744177444  1.0000
  N   N2        1.0  0.14874693653393217  0.6936416438739171  0.6810130814601721  1.0000
  N   N3        1.0  0.6634166249379163  0.3181914548579314  0.5244362588890752  1.0000
  N   N4        1.0  0.3365942488119558  0.6818038095085227  0.47556120922696027  1.0000
  O   O1        1.0  0.5694793973531419  0.04683137032444761  0.17333947933208554  1.0000
  O   O2        1.0  0.43053223743312685  0.9531627688666048  0.8266689388525706  1.0000
  O   O3        1.0  0.4659566743863053  0.9978211968576217  0.34124752721668034  1.0000
  O   O4        1.0  0.534052221706567  0.002182544521893709  0.6587628506954745  1.0000
  O   O5        1.0  0.49192412485659537  0.6846738704922686  0.04468532031977195  1.0000
  O   O6        1.0  0.5080754514726137  0.31531856687938387  0.9553193684306722  1.0000
  O   O7        1.0  0.3016840417365998  0.5227802135561247  0.025032420078218796  1.0000
  O   O8        1.0  0.6983028869487811  0.4772176020028381  0.9749657093137716  1.0000
  O   O9        1.0  0.8869911843996974  0.8843878282567486  0.14165912048031967  1.0000
  O   O10       1.0  0.1130194911358444  0.1156404651849954  0.8583403706796136  1.0000
  O   O11       1.0  0.024130921115748508  0.0113453381943671  0.3380017174549721  1.0000
  O   O12       1.0  0.9758679280679345  0.9886695046970361  0.6619997195056514  1.0000
  O   O13       1.0  0.7565022024496172  0.9591879736251768  0.4808844543192806  1.0000
  O   O14       1.0  0.24350441710367926  0.0408123156882567  0.5191206866867476  1.0000
