data_image0
_chemical_formula_structural       Ag6H22C28N4O20
_chemical_formula_sum              "Ag6 H22 C28 N4 O20"
_cell_length_a       6.644918323944359
_cell_length_b       10.579358745678885
_cell_length_c       12.960158434596075
_cell_angle_alpha    66.67284678180475
_cell_angle_beta     82.6437428529858
_cell_angle_gamma    83.33090912904822

_space_group_name_H-M_alt    "P 1"
_space_group_IT_number       1

loop_
  _space_group_symop_operation_xyz
  'x, y, z'

loop_
  _atom_site_type_symbol
  _atom_site_label
  _atom_site_symmetry_multiplicity
  _atom_site_fract_x
  _atom_site_fract_y
  _atom_site_fract_z
  _atom_site_occupancy
  Ag  Ag1       1.0  0.4999888788959199  0.9999962912293792  0.9999986772126876  1.0000
  Ag  Ag2       1.0  7.353043649500001e-06  1.0425134461999998e-06  3.860218484399999e-06  1.0000
  Ag  Ag3       1.0  0.43129382263241206  0.5369434697863156  0.08991904486831001  1.0000
  Ag  Ag4       1.0  0.5687024309813253  0.4630599524575132  0.9100744997004213  1.0000
  Ag  Ag5       1.0  0.12408278027776734  0.604036123930122  0.9226498587734894  1.0000
  Ag  Ag6       1.0  0.8759194730632203  0.3959662756315366  0.07735060719221562  1.0000
  H   H1        1.0  0.6841765555413063  0.9331379257742183  0.39947322548563596  1.0000
  H   H2        1.0  0.31581373336275925  0.0668634265468313  0.6005259685413548  1.0000
  H   H3        1.0  0.6857651536091539  0.6759238488016949  0.47914415522198067  1.0000
  H   H4        1.0  0.31422949431119923  0.32407854193973407  0.5208575334675487  1.0000
  H   H5        1.0  0.344857579291066  0.7756105392140783  0.20348951879287117  1.0000
  H   H6        1.0  0.65514575359299  0.22438154036478852  0.7965157571140721  1.0000
  H   H7        1.0  0.22974527194325137  0.7222455914608759  0.4052730172972829  1.0000
  H   H8        1.0  0.770260271205835  0.2777537165285863  0.5947313390832747  1.0000
  H   H9        1.0  0.16928021436216062  0.9151024309222747  0.4734478671324426  1.0000
  H   H10       1.0  0.8307232803291882  0.08490306588036128  0.5265492112144443  1.0000
  H   H11       1.0  0.8073479463404284  0.05598532507974598  0.19891986451258958  1.0000
  H   H12       1.0  0.19264709765418792  0.9440139688193693  0.8010804851911005  1.0000
  H   H13       1.0  0.38546115505980794  0.767402628564774  0.7043730855771884  1.0000
  H   H14       1.0  0.6145336650027035  0.23259872942507084  0.2956266112458366  1.0000
  H   H15       1.0  0.1476556737887762  0.7791045716643479  0.6967198511866073  1.0000
  H   H16       1.0  0.8523374771178994  0.22089781703054706  0.3032811547249565  1.0000
  H   H17       1.0  0.023152194916917813  0.3402163136856443  0.39253976688834763  1.0000
  H   H18       1.0  0.9768508421864085  0.659778861558486  0.6074629841596959  1.0000
  H   H19       1.0  0.47596656261455195  0.5086726827362681  0.3172452427274948  1.0000
  H   H20       1.0  0.5240376439904892  0.4913266213233882  0.6827522487234887  1.0000
  H   H21       1.0  0.2405967852835219  0.51531533445781  0.30684002771512553  1.0000
  H   H22       1.0  0.7594045192015033  0.4846829336988279  0.6931571973891977  1.0000
  C   C1        1.0  0.8058735574593285  0.9439124141770207  0.2347455991329426  1.0000
  C   C2        1.0  0.1941213545105285  0.0560879120028659  0.7652551968993606  1.0000
  C   C3        1.0  0.7381953659931213  0.8747624320921545  0.34735375450831196  1.0000
  C   C4        1.0  0.2617997899675402  0.125235829761607  0.652646921635707  1.0000
  C   C5        1.0  0.7394921006444406  0.7315721121086651  0.39119965871672246  1.0000
  C   C6        1.0  0.2605012741943256  0.2684282124955004  0.6088020000755066  1.0000
  C   C7        1.0  0.8099013286204341  0.661465919263506  0.3205794427489437  1.0000
  C   C8        1.0  0.1901009965691927  0.33853544872360425  0.6794228951949961  1.0000
  C   C9        1.0  0.8693398168715589  0.7379945202928012  0.20642769591282945  1.0000
  C   C10       1.0  0.1306612151777742  0.2620047817924628  0.793575384902752  1.0000
  C   C11       1.0  0.8224168222032446  0.5063330533840968  0.37006573428768524  1.0000
  C   C12       1.0  0.17758234848938062  0.4936683123932112  0.6299414202519033  1.0000
  C   C13       1.0  0.9237761091881111  0.6657637022454991  0.12541501507396904  1.0000
  C   C14       1.0  0.07622766122526065  0.33423869912728316  0.8745853609007669  1.0000
  C   C15       1.0  0.3184181048831932  0.8578482359641627  0.23516832626506812  1.0000
  C   C16       1.0  0.6815819181340644  0.14214693542230347  0.7648338319959721  1.0000
  C   C17       1.0  0.2524094346635125  0.8282959242290246  0.3479503657443673  1.0000
  C   C18       1.0  0.7475948955801002  0.171701316916959  0.6520516424320347  1.0000
  C   C19       1.0  0.2214288430926672  0.9357458372372491  0.3854486221870773  1.0000
  C   C20       1.0  0.7785704362796653  0.0642565579959253  0.614549705453733  1.0000
  C   C21       1.0  0.2579002730507085  0.0700822274300492  0.30941689675040607  1.0000
  C   C22       1.0  0.7421021724911513  0.9299191391446087  0.6905808045798452  1.0000
  C   C23       1.0  0.32577951239706243  0.09247998210377519  0.19677149566081908  1.0000
  C   C24       1.0  0.6742246540905728  0.9075193224267011  0.8032275413280702  1.0000
  C   C25       1.0  0.23333902912094834  0.18146468523369208  0.35607726619693375  1.0000
  C   C26       1.0  0.7666636403530093  0.8185346172502433  0.6439210880139753  1.0000
  C   C27       1.0  0.3732102741696438  0.2352814642762907  0.11309867039034324  1.0000
  C   C28       1.0  0.6267969549076544  0.7647188742739386  0.8868944507936191  1.0000
  N   N1        1.0  0.8694083659916104  0.8768870306637807  0.1657278689390438  1.0000
  N   N2        1.0  0.13058806305063086  0.12311329732723661  0.8342728371022827  1.0000
  N   N3        1.0  0.3558208288691134  0.9865140855046091  0.16173328634313594  1.0000
  N   N4        1.0  0.6441805274058439  0.013483151312890098  0.838266583508364  1.0000
  O   O1        1.0  0.023505446760324823  0.7280840364281431  0.03155784297513976  1.0000
  O   O2        1.0  0.9764969703366476  0.2719162997490158  0.9684455941780783  1.0000
  O   O3        1.0  0.8604829415360555  0.5458470086981605  0.1617412109605923  1.0000
  O   O4        1.0  0.1395102294293267  0.4541553797613247  0.8382590221820224  1.0000
  O   O5        1.0  0.00995759495935999  0.44968122154562457  0.3841294920811222  1.0000
  O   O6        1.0  0.9900528236325101  0.5503160266094582  0.6158713833624319  1.0000
  O   O7        1.0  0.6692888855671485  0.4398707581223249  0.40308924741753327  1.0000
  O   O8        1.0  0.3307291715142285  0.5601388868563006  0.5969118074098603  1.0000
  O   O9        1.0  0.38586956058436783  0.2216584182096639  0.3778547345353118  1.0000
  O   O10       1.0  0.6141240983626162  0.7783398415975568  0.6221452588307345  1.0000
  O   O11       1.0  0.0465098563827482  0.21791032980175376  0.3814630654290312  1.0000
  O   O12       1.0  0.9534866328356132  0.782089997483034  0.6185353223054477  1.0000
  O   O13       1.0  0.2968305473800541  0.33256053735923524  0.14351346891417902  1.0000
  O   O14       1.0  0.7031775670907477  0.6674459948034581  0.8564760580989131  1.0000
  O   O15       1.0  0.4853314562440191  0.24672609640122534  0.02342843156963434  1.0000
  O   O16       1.0  0.5146722493692553  0.7532649480719726  0.9765671247813047  1.0000
  O   O17       1.0  0.36777736457912635  0.5557863593830418  0.26542917335100213  1.0000
  O   O18       1.0  0.6322222707500559  0.44421293947863916  0.73456936084186  1.0000
  O   O19       1.0  0.2515876169189824  0.7738105709006504  0.7470757556860051  1.0000
  O   O20       1.0  0.7484084962838227  0.2261928529910406  0.2529231982653783  1.0000
