data_image0
_chemical_formula_structural       Hg2H24C12Br4N8
_chemical_formula_sum              "Hg2 H24 C12 Br4 N8"
_cell_length_a       6.62933316285393
_cell_length_b       6.777109313787082
_cell_length_c       12.21410987785135
_cell_angle_alpha    94.03627638967917
_cell_angle_beta     90.00144799522123
_cell_angle_gamma    89.99871741962895

_space_group_name_H-M_alt    "P 1"
_space_group_IT_number       1

loop_
  _space_group_symop_operation_xyz
  'x, y, z'

loop_
  _atom_site_type_symbol
  _atom_site_label
  _atom_site_symmetry_multiplicity
  _atom_site_fract_x
  _atom_site_fract_y
  _atom_site_fract_z
  _atom_site_occupancy
  Hg  Hg1       1.0  0.7500035177835044  0.8939505116231955  0.8025874926587946  1.0000
  Hg  Hg2       1.0  0.24999227342039632  0.1060225735460705  0.19742136167837293  1.0000
  H   H1        1.0  0.0693167126791678  0.5292650544095353  0.8779497763154893  1.0000
  H   H2        1.0  0.569283755133128  0.47072780043707496  0.1220565357296834  1.0000
  H   H3        1.0  0.9306655018767388  0.47073165440269793  0.1220444242695606  1.0000
  H   H4        1.0  0.4306848837063201  0.5292719086816787  0.8779525164103106  1.0000
  H   H5        1.0  0.935397888977306  0.4198546232361693  0.7613836311375763  1.0000
  H   H6        1.0  0.43538180140027555  0.5801222410559105  0.2386189044471294  1.0000
  H   H7        1.0  0.0645903593760622  0.5801257932051981  0.23860257877966967  1.0000
  H   H8        1.0  0.5646154982401228  0.41985528640288544  0.7613917569949961  1.0000
  H   H9        1.0  0.2500006304089695  0.8343371526560547  0.8646962741097965  1.0000
  H   H10       1.0  0.7499891265112593  0.16564624076237072  0.1352965993125181  1.0000
  H   H11       1.0  0.24999327057295062  0.9547616301635458  0.7395637768596616  1.0000
  H   H12       1.0  0.7500055374142818  0.04521292260730551  0.2604410399117469  1.0000
  H   H13       1.0  0.9345397125393547  0.5824484100771272  0.5907143201000977  1.0000
  H   H14       1.0  0.4345520253929749  0.4175077498582596  0.40928331961914205  1.0000
  H   H15       1.0  0.06545456925579882  0.4175497384290026  0.40926601720061473  1.0000
  H   H16       1.0  0.5654618670296402  0.5824564296623579  0.5907145513121392  1.0000
  H   H17       1.0  0.06904402594407341  0.8099984706686811  0.5822572126213217  1.0000
  H   H18       1.0  0.5690767555149137  0.18998252722431624  0.41773881862584256  1.0000
  H   H19       1.0  0.9309758995999147  0.19000561998070958  0.4177323577624676  1.0000
  H   H20       1.0  0.4309386452165853  0.8099994099065881  0.5822621866220672  1.0000
  H   H21       1.0  0.385189775926669  0.2790768867864983  0.6057159927946216  1.0000
  H   H22       1.0  0.8851967095782953  0.7209127605310642  0.3942781551666954  1.0000
  H   H23       1.0  0.6148014893703363  0.7209198288930736  0.3942806642934684  1.0000
  H   H24       1.0  0.1148186908816271  0.2790765495289378  0.6057149443761745  1.0000
  C   C1        1.0  0.0705428043037344  0.503720252240413  0.7881334766413346  1.0000
  C   C2        1.0  0.5705224664718217  0.49626369180499796  0.2118684183911554  1.0000
  C   C3        1.0  0.9294484611236057  0.4962646296592368  0.2118627285384136  1.0000
  C   C4        1.0  0.42946729081237583  0.5037212272026323  0.7881408878152101  1.0000
  C   C5        1.0  0.24999732354311277  0.8099252729474812  0.7748618255748169  1.0000
  C   C6        1.0  0.7499924334259943  0.19005368280348023  0.2251308783818757  1.0000
  C   C7        1.0  0.0703166843892191  0.6654022104669007  0.6177322777404299  1.0000
  C   C8        1.0  0.5703382885375703  0.3345817166877154  0.3822622452969354  1.0000
  C   C9        1.0  0.9296821229081971  0.33459003269711474  0.3822519277093477  1.0000
  C   C10       1.0  0.4296771121043079  0.665403171933157  0.6177364164837371  1.0000
  C   C11       1.0  0.24999781227383272  0.3631088325752714  0.6320661932227551  1.0000
  C   C12       1.0  0.7500009953033668  0.6368908507495659  0.3679338521504576  1.0000
  Br  Br1       1.0  0.7500105875832901  0.10240995743038177  0.636635802078537  1.0000
  Br  Br2       1.0  0.2500576085718578  0.897620830624689  0.3633801686702469  1.0000
  Br  Br3       1.0  0.7500000850565698  0.8051038727505428  0.9987132903835844  1.0000
  Br  Br4       1.0  0.24997458548184429  0.1951547929790109  0.0013383998815754991  1.0000
  N   N1        1.0  0.2500078409173696  0.390367058161651  0.7529440903861441  1.0000
  N   N2        1.0  0.7499849328840255  0.6096296644583177  0.24705502315605804  1.0000
  N   N3        1.0  0.0659129347933956  0.6992577136181024  0.7393500422853094  1.0000
  N   N4        1.0  0.5659176212942042  0.30072187061747246  0.2606475292898125  1.0000
  N   N5        1.0  0.9340798388911652  0.30072714508357734  0.2606379747564702  1.0000
  N   N6        1.0  0.4340902371435433  0.6992600596314772  0.7393510194648344  1.0000
  N   N7        1.0  0.2499943423582849  0.5539542348464578  0.5805197102389528  1.0000
  N   N8        1.0  0.7500044651184083  0.4460424738050507  0.4194744904537515  1.0000
