data_image0
_chemical_formula_structural       La4H30C42N6O30
_chemical_formula_sum              "La4 H30 C42 N6 O30"
_cell_length_a       8.972001584801184
_cell_length_b       9.43434441109405
_cell_length_c       14.5126
_cell_angle_alpha    99.04671785189419
_cell_angle_beta     95.37724207513789
_cell_angle_gamma    105.03756961067216

_space_group_name_H-M_alt    "P 1"
_space_group_IT_number       1

loop_
  _space_group_symop_operation_xyz
  'x, y, z'

loop_
  _atom_site_type_symbol
  _atom_site_label
  _atom_site_symmetry_multiplicity
  _atom_site_fract_x
  _atom_site_fract_y
  _atom_site_fract_z
  _atom_site_occupancy
  La  La1       1.0  0.8528806266064493  0.7325110488859324  0.7246393928944315  1.0000
  La  La2       1.0  0.1471189790738094  0.2674885518907644  0.2753595787736174  1.0000
  La  La3       1.0  0.5471903978427902  0.1420852711435217  0.1562159966375418  1.0000
  La  La4       1.0  0.4528092078374684  0.8579143296331824  0.8437843531433202  1.0000
  H   H1        1.0  0.9642335708889719  0.4235421679339737  0.6428203902626137  1.0000
  H   H2        1.0  0.0357671542964226  0.5764574328427301  0.35718071343352875  1.0000
  H   H3        1.0  0.8354873287460194  0.4572313838334026  0.5711425097766208  1.0000
  H   H4        1.0  0.1645137215309589  0.5427693345897069  0.4288580379413673  1.0000
  H   H5        1.0  0.6470732906274607  0.6844366059738718  0.5118003849793666  1.0000
  H   H6        1.0  0.352927434557941  0.3155629948028249  0.4881986515475559  1.0000
  H   H7        1.0  0.8293627005597344  0.7006760083896495  0.5213815685045162  1.0000
  H   H8        1.0  0.1706369051205314  0.2993235923870544  0.478616714107126  1.0000
  H   H9        1.0  0.46032883618634207  0.828212876143894  0.04578962465733128  1.0000
  H   H10       1.0  0.5396710945855006  0.1717878422792225  0.9542101691453766  1.0000
  H   H11       1.0  0.2842114514682663  0.846001336491419  0.051692100748759615  1.0000
  H   H12       1.0  0.7157881542119926  0.1539982642852848  0.9483075599756957  1.0000
  H   H13       1.0  0.968710866284411  0.10644129166355043  0.026103186649429205  1.0000
  H   H14       1.0  0.031287944982288714  0.8935594267595661  0.9738972313508042  1.0000
  H   H15       1.0  0.31707101258800213  0.47423413875090153  0.9618438667697333  1.0000
  H   H16       1.0  0.6829282680006727  0.5257643443793825  0.03815497182005601  1.0000
  H   H17       1.0  0.8297217295110499  0.3753246662807399  0.8542211781411948  1.0000
  H   H18       1.0  0.170277551077632  0.6246738168495442  0.145778349505008  1.0000
  H   H19       1.0  0.25181351630596543  0.5322455759422908  0.6576295507776563  1.0000
  H   H20       1.0  0.7481864144658773  0.4677551424808187  0.3423716211378646  1.0000
  H   H21       1.0  0.459227597136227  0.2660244350865923  0.8164925583409114  1.0000
  H   H22       1.0  0.540771683452455  0.7339740480436916  0.1835076583616981  1.0000
  H   H23       1.0  0.9725673143298863  0.1305377483795951  0.7027447571306807  1.0000
  H   H24       1.0  0.027431496936820603  0.8694629700435215  0.297254971813146  1.0000
  H   H25       1.0  0.5778448918341398  0.3094315865679391  0.4005777660181876  1.0000
  H   H26       1.0  0.422154713846119  0.6905680142087647  0.5994225837626742  1.0000
  H   H27       1.0  0.8444305073342946  0.05713184946247199  0.5329805056113415  1.0000
  H   H28       1.0  0.15556974852913197  0.9428699866070575  0.46702011032602536  1.0000
  H   H29       1.0  0.4528754647309938  0.1663404336505536  0.6452904682415834  1.0000
  H   H30       1.0  0.5471244660408487  0.8336602847725629  0.35471001461753093  1.0000
  C   C1        1.0  0.0036642058579375077  0.1990830030361437  0.9890716558134116  1.0000
  C   C2        1.0  0.9963353998223285  0.800916597740553  0.010928004911043834  1.0000
  C   C3        1.0  0.1602221539219357  0.2813920732983561  0.9983880009056347  1.0000
  C   C4        1.0  0.8397785712634659  0.7186075274783408  0.0016117246777014346  1.0000
  C   C5        1.0  0.1970982372789365  0.4049870021454823  0.9546654775435781  1.0000
  C   C6        1.0  0.8029010433097383  0.5950114809848017  0.0453340501026247  1.0000
  C   C7        1.0  0.07736515419125575  0.44175533391934624  0.9035087937272974  1.0000
  C   C8        1.0  0.922635245902562  0.5582431492109379  0.09649079877778628  1.0000
  C   C9        1.0  0.9251312890009373  0.3500256220217182  0.8949140674884076  1.0000
  C   C10       1.0  0.07486799158774461  0.6499728611085658  0.10508546015779527  1.0000
  C   C11       1.0  0.28380933333193786  0.24027721461499854  0.056078498140948306  1.0000
  C   C12       1.0  0.7161913918534638  0.7597223861617055  0.9439212274423878  1.0000
  C   C13       1.0  0.11055805346443749  0.5809917243500138  0.8627138365518474  1.0000
  C   C14       1.0  0.8894412271242373  0.4190067587802773  0.1372856910943483  1.0000
  C   C15       1.0  0.24401401017365032  0.4314998104116299  0.6868083697887569  1.0000
  C   C16       1.0  0.7559862456897763  0.5685020256579065  0.3131936242614231  1.0000
  C   C17       1.0  0.37633398194877543  0.4117018218092099  0.7362071107672532  1.0000
  C   C18       1.0  0.6236659488230673  0.5882988966139068  0.26379268303545433  1.0000
  C   C19       1.0  0.3592649935546178  0.2845226009078914  0.7765978062420231  1.0000
  C   C20       1.0  0.640734612125641  0.7154769998688053  0.2234025435388389  1.0000
  C   C21       1.0  0.2117780639838074  0.1824680714247933  0.7659326579937724  1.0000
  C   C22       1.0  0.7882204221913158  0.8175315293519105  0.23406693787180188  1.0000
  C   C23       1.0  0.08769470207632682  0.21010746727765914  0.7126963994536553  1.0000
  C   C24       1.0  0.9123041091903802  0.7898932511454575  0.2873033294901787  1.0000
  C   C25       1.0  0.5306848642388645  0.5254268151619357  0.7443774443609212  1.0000
  C   C26       1.0  0.46931474144139435  0.4745727856147681  0.2556222163635269  1.0000
  C   C27       1.0  0.1825446260740975  0.0496045008547483  0.8138106236275389  1.0000
  C   C28       1.0  0.8174538601010255  0.9503950999219556  0.18618897223803538  1.0000
  C   C29       1.0  0.6032040379614328  0.2533357953325464  0.4578842611534028  1.0000
  C   C30       1.0  0.3967970123155453  0.7466649230905703  0.5421162865645854  1.0000
  C   C31       1.0  0.7259023277978258  0.18708059818115436  0.45797502388875694  1.0000
  C   C32       1.0  0.2740987224791525  0.8129201202419623  0.5420248347728247  1.0000
  C   C33       1.0  0.7513043703586674  0.11179593563974072  0.5309017565474932  1.0000
  C   C34       1.0  0.24869700500989472  0.8882059004297957  0.4690982351923481  1.0000
  C   C35       1.0  0.6514823661472137  0.10317776413057801  0.5993681785833118  1.0000
  C   C36       1.0  0.3485178897162058  0.8968240719389513  0.4006317482976414  1.0000
  C   C37       1.0  0.5326209070163301  0.1737638411416498  0.5931117830608557  1.0000
  C   C38       1.0  0.4673790237555125  0.8262368772814668  0.4068893888546583  1.0000
  C   C39       1.0  0.821898685270746  0.19502035831616385  0.3785868534936369  1.0000
  C   C40       1.0  0.1781009204095128  0.80497924246054  0.621413496287225  1.0000
  C   C41       1.0  0.6620278963278139  0.0121722871101326  0.6747160940845803  1.0000
  C   C42       1.0  0.3379728288575876  0.9878273136665641  0.3252836314987491  1.0000
  N   N1        1.0  0.88940536830588  0.2313047491921552  0.9372589938285854  1.0000
  N   N2        1.0  0.11059423737437873  0.7686948515845415  0.06274135595227649  1.0000
  N   N3        1.0  0.10260790315386  0.33265404378714447  0.6740583269697209  1.0000
  N   N4        1.0  0.8973920276179826  0.6673466746359722  0.32594146683298664  1.0000
  N   N5        1.0  0.5088990104168545  0.24882832733923269  0.5245747553347471  1.0000
  N   N6        1.0  0.4911020398601238  0.7511723910838839  0.4754251033268346  1.0000
  O   O1        1.0  0.9067200138251793  0.49842783070509006  0.6296285774454518  1.0000
  O   O2        1.0  0.09328327546207762  0.5015728877180265  0.37037141093389175  1.0000
  O   O3        1.0  0.7326013365116  0.6470882157104116  0.5414557656709817  1.0000
  O   O4        1.0  0.2674001830873465  0.3529102674198725  0.45854251358016274  1.0000
  O   O5        1.0  0.39660378558826187  0.8974968950810194  0.0398706399327367  1.0000
  O   O6        1.0  0.603395025678438  0.1025038233420901  0.9601297780674969  1.0000
  O   O7        1.0  0.2441210485648  0.1635451999656397  0.12000239831144907  1.0000
  O   O8        1.0  0.7558774376103231  0.8364544008110641  0.8799971975541252  1.0000
  O   O9        1.0  0.4243017376037628  0.2817329554550554  0.040810563666397584  1.0000
  O   O10       1.0  0.5756996377647924  0.718268880614481  0.9591894280734364  1.0000
  O   O11       1.0  0.9965675977627485  0.6185122321614429  0.8262034720523487  1.0000
  O   O12       1.0  0.003432007917510316  0.3814873686152609  0.1737968777285062  1.0000
  O   O13       1.0  0.2527556709405445  0.6539505647009776  0.8703099738909188  1.0000
  O   O14       1.0  0.7472439347397143  0.3460490360757262  0.1296896868335367  1.0000
  O   O15       1.0  0.5312229517570017  0.6569849747187888  0.7287656930350295  1.0000
  O   O16       1.0  0.46877665392325707  0.3430146260579079  0.2712346567458326  1.0000
  O   O17       1.0  0.6551765861619572  0.4911396584302565  0.763697085504269  1.0000
  O   O18       1.0  0.3448241390234443  0.5088599423464403  0.23630264007906018  1.0000
  O   O19       1.0  0.045067050266823096  0.9653402677886973  0.8040833411614868  1.0000
  O   O20       1.0  0.9549314359082999  0.0346593329879994  0.19591625470409468  1.0000
  O   O21       1.0  0.2987039302119713  0.0325793930089375  0.863980121120093  1.0000
  O   O22       1.0  0.7012942308715681  0.9674190901213465  0.13601934166722882  1.0000
  O   O23       1.0  0.7591783201704771  0.2127629951606522  0.3005957012799811  1.0000
  O   O24       1.0  0.24082161060136548  0.7872377232624643  0.6994047815791332  1.0000
  O   O25       1.0  0.9605459911626539  0.1850364228873858  0.394415363661892  1.0000
  O   O26       1.0  0.039455059114324335  0.8149642955357308  0.6055851840560962  1.0000
  O   O27       1.0  0.571106449158293  0.016433872892058304  0.736717102936616  1.0000
  O   O28       1.0  0.42889460111868527  0.9835668455310582  0.2632834447813792  1.0000
  O   O29       1.0  0.7584723298069705  0.9350408734671732  0.6702725625340377  1.0000
  O   O30       1.0  0.2415269507817044  0.0649576096631108  0.3297269651121653  1.0000
