data_image0
_chemical_formula_structural       Zn2H32C44N8O8
_chemical_formula_sum              "Zn2 H32 C44 N8 O8"
_cell_length_a       9.750333337787788
_cell_length_b       11.006885746445013
_cell_length_c       14.863765694278571
_cell_angle_alpha    90.26902854985042
_cell_angle_beta     103.52778321614679
_cell_angle_gamma    90.16896297335065

_space_group_name_H-M_alt    "P 1"
_space_group_IT_number       1

loop_
  _space_group_symop_operation_xyz
  'x, y, z'

loop_
  _atom_site_type_symbol
  _atom_site_label
  _atom_site_symmetry_multiplicity
  _atom_site_fract_x
  _atom_site_fract_y
  _atom_site_fract_z
  _atom_site_occupancy
  Zn  Zn1       1.0  0.8537225151362122  0.5012579563759018  0.5098518946350055  1.0000
  Zn  Zn2       1.0  0.14586899610934984  0.4996288839672686  0.49041896208883184  1.0000
  H   H1        1.0  0.2271499986968735  0.5826566481144722  0.11736981935302282  1.0000
  H   H2        1.0  0.7713822954536269  0.4085978015329416  0.8837629321678194  1.0000
  H   H3        1.0  0.6779758508664671  0.5234235400194862  0.22963278160763423  1.0000
  H   H4        1.0  0.32229060898321654  0.4763228581614527  0.7704074022853366  1.0000
  H   H5        1.0  0.0784615686105568  0.41488759783110407  0.1862498551611935  1.0000
  H   H6        1.0  0.9206742057502879  0.5796090616734232  0.814809571266416  1.0000
  H   H7        1.0  0.02644354554889359  0.6057630374096024  0.9837811052693087  1.0000
  H   H8        1.0  0.972070165831397  0.38560562442383883  0.017608334318737196  1.0000
  H   H9        1.0  0.47563579409697354  0.5348573173966784  0.18191374414318773  1.0000
  H   H10       1.0  0.523495158827771  0.4581345251947513  0.8190005433195255  1.0000
  H   H11       1.0  0.34193362533461175  0.9340955499847683  0.5891255950018391  1.0000
  H   H12       1.0  0.2644246359180685  0.797626762645379  0.5488031993928575  1.0000
  H   H13       1.0  0.6560501709088911  0.0666852751439748  0.41368945436811094  1.0000
  H   H14       1.0  0.7345194431592859  0.20272862810678297  0.4540808535568814  1.0000
  H   H15       1.0  0.3633505772058854  0.11228723893568568  0.4805127687824113  1.0000
  H   H16       1.0  0.5857023510515519  0.20733204506749556  0.5703285632931242  1.0000
  H   H17       1.0  0.6018312247463058  0.2820981270539491  0.7305616551041183  1.0000
  H   H18       1.0  0.3941369483340154  0.26108909690554327  0.8008328025842533  1.0000
  H   H19       1.0  0.17205065167886605  0.16766655474798137  0.7105026756993098  1.0000
  H   H20       1.0  0.8279830936990606  0.8278197299308374  0.2915310839279499  1.0000
  H   H21       1.0  0.6064282544012015  0.7327563958812461  0.20196638840080544  1.0000
  H   H22       1.0  0.3975926034219626  0.7151007016875894  0.2713381225201204  1.0000
  H   H23       1.0  0.4115852163214981  0.7958757595022161  0.4297977148778572  1.0000
  H   H24       1.0  0.6330583988728478  0.8928261544475473  0.5187231184113446  1.0000
  H   H25       1.0  0.3249712342712741  0.3521622787985095  0.31388572791268393  1.0000
  H   H26       1.0  0.22763479163365474  0.3282959558472953  0.39351570268411973  1.0000
  H   H27       1.0  0.7669121928027778  0.6799232112035297  0.5983914064990119  1.0000
  H   H28       1.0  0.6885982673946174  0.6422394360905983  0.6846906662860023  1.0000
  H   H29       1.0  0.6920590948567878  0.410469851418249  0.35301901170287664  1.0000
  H   H30       1.0  0.5554906119140527  0.306552968916634  0.339828656302224  1.0000
  H   H31       1.0  0.3080162814134725  0.5922778409830443  0.6464257424358311  1.0000
  H   H32       1.0  0.45417422632966975  0.6891467276828037  0.6637584894388198  1.0000
  C   C1        1.0  0.009018818514263702  0.7376198736836275  0.49836291446052183  1.0000
  C   C2        1.0  0.9897808404294182  0.2632731086919122  0.5015842616015577  1.0000
  C   C3        1.0  0.4349299296719877  0.5326417544789237  0.10714282815899881  1.0000
  C   C4        1.0  0.5642969047205072  0.46132751897476953  0.8937279085556614  1.0000
  C   C5        1.0  0.2954360692465769  0.5582859763142524  0.07147284131558962  1.0000
  C   C6        1.0  0.7034620272329307  0.43454123028197955  0.9295103822241375  1.0000
  C   C7        1.0  0.1296659104191988  0.9398968696037853  0.5353667754455744  1.0000
  C   C8        1.0  0.8686243856993628  0.060874787848369694  0.4651524004448718  1.0000
  C   C9        1.0  0.12232736352604691  0.0679633372374298  0.5394764028006948  1.0000
  C   C10       1.0  0.8759747340623321  0.9328395002095036  0.4607892095806108  1.0000
  C   C11       1.0  0.9935782301299483  0.12765748721226797  0.5040046062650206  1.0000
  C   C12       1.0  0.004874339276632599  0.8731804030041702  0.49601418720418183  1.0000
  C   C13       1.0  0.4092980025006129  0.4250809068937968  0.4401243580289461  1.0000
  C   C14       1.0  0.5902485236465013  0.5757485236421614  0.5583797973568494  1.0000
  C   C15       1.0  0.5484437631610533  0.4446542442095022  0.4305981417172263  1.0000
  C   C16       1.0  0.4514446415327171  0.5555678577192252  0.5682177918419883  1.0000
  C   C17       1.0  0.0564487641135543  0.5101078279218497  0.6824294879683209  1.0000
  C   C18       1.0  0.9436474579052219  0.4899610960595169  0.3177749958173451  1.0000
  C   C19       1.0  0.11774679790697463  0.5257240763887693  0.7837752249503398  1.0000
  C   C20       1.0  0.8821145990450533  0.47198131597459536  0.21669990832408811  1.0000
  C   C21       1.0  0.09115531421459622  0.57670867817626  0.9369433379032588  1.0000
  C   C22       1.0  0.9077410505506407  0.4164878005321667  0.06414882090268045  1.0000
  C   C23       1.0  0.032314507207978196  0.5626105035653381  0.8436681837353535  1.0000
  C   C24       1.0  0.9669763476254758  0.43239417679068026  0.15722407837694166  1.0000
  C   C25       1.0  0.2604628405674704  0.5045855088772058  0.8188606232338247  1.0000
  C   C26       1.0  0.7394637634579552  0.49323900890357913  0.1815337983311167  1.0000
  C   C27       1.0  0.3235480251198908  0.5164886462824256  0.914048534822527  1.0000
  C   C28       1.0  0.6759546772006574  0.47917133209780616  0.0866067413980218  1.0000
  C   C29       1.0  0.23580106087689504  0.5518249744985013  0.9744439719716811  1.0000
  C   C30       1.0  0.7633129658008357  0.44203828367025727  0.02647278940192169  1.0000
  C   C31       1.0  0.4719854321350284  0.49331138726873286  0.9518685709234023  1.0000
  C   C32       1.0  0.5274406526585268  0.501930715482267  0.04884152453588801  1.0000
  C   C33       1.0  0.2522373067223853  0.13376432870927601  0.5892744742533795  1.0000
  C   C34       1.0  0.37053989933212966  0.1444946385031045  0.5509901817031491  1.0000
  C   C35       1.0  0.4949431747635913  0.198639954736322  0.6011513658256221  1.0000
  C   C36       1.0  0.5038843115577053  0.24131694196559283  0.6910520195354125  1.0000
  C   C37       1.0  0.38740729067040297  0.2300519255710896  0.730122013662971  1.0000
  C   C38       1.0  0.26252905086663253  0.17716744945908397  0.6795429020550756  1.0000
  C   C39       1.0  0.7460525688194295  0.8667780414763515  0.4113098629439308  1.0000
  C   C40       1.0  0.7368290639645494  0.8202231962501185  0.3220289195837084  1.0000
  C   C41       1.0  0.6122810351040472  0.7663718372857103  0.27190552509745913  1.0000
  C   C42       1.0  0.49506088153950156  0.757050900971116  0.3104448197136378  1.0000
  C   C43       1.0  0.5028480023579505  0.8029710501291945  0.3993208433924453  1.0000
  C   C44       1.0  0.6268905172990742  0.8582435460004517  0.44897715687402967  1.0000
  N   N1        1.0  0.6373544768125186  0.5167307058966414  0.49173731469392845  1.0000
  N   N2        1.0  0.36198882026612006  0.48355167305417984  0.5069709117819772  1.0000
  N   N3        1.0  0.2543163936033679  0.880852042317336  0.5764628866204051  1.0000
  N   N4        1.0  0.7434709366472987  0.12013988233427142  0.424999479174197  1.0000
  N   N5        1.0  0.32563239263622273  0.34224198532935196  0.3820346873839355  1.0000
  N   N6        1.0  0.6739839331189047  0.6601290683126138  0.6159075721442238  1.0000
  N   N7        1.0  0.5902759866120065  0.3925570900003947  0.35710869024651976  1.0000
  N   N8        1.0  0.40959196041764306  0.6078700115200917  0.6410591333307994  1.0000
  O   O1        1.0  0.9040573705097968  0.6823720219991503  0.517041471363534  1.0000
  O   O2        1.0  0.0951963851252131  0.318371503535765  0.4834944557214558  1.0000
  O   O3        1.0  0.11847461661716353  0.6844895346472271  0.4836978510351032  1.0000
  O   O4        1.0  0.8800225725188753  0.3164943700577751  0.5157814510703319  1.0000
  O   O5        1.0  0.923501348747699  0.5013815811133568  0.6541620446076167  1.0000
  O   O6        1.0  0.0767063893357118  0.4978659615416135  0.3459394580500544  1.0000
  O   O7        1.0  0.1440789326536702  0.507165758480241  0.6302818485611894  1.0000
  O   O8        1.0  0.8561724042885713  0.4955457218523732  0.36989353207934533  1.0000
