data_image0
_chemical_formula_structural       Cu4H8C8S4N12
_chemical_formula_sum              "Cu4 H8 C8 S4 N12"
_cell_length_a       6.15742219869597
_cell_length_b       6.9645488944222125
_cell_length_c       9.505985842459967
_cell_angle_alpha    95.95447001039179
_cell_angle_beta     89.99789791830338
_cell_angle_gamma    90.00013221077734

_space_group_name_H-M_alt    "P 1"
_space_group_IT_number       1

loop_
  _space_group_symop_operation_xyz
  'x, y, z'

loop_
  _atom_site_type_symbol
  _atom_site_label
  _atom_site_symmetry_multiplicity
  _atom_site_fract_x
  _atom_site_fract_y
  _atom_site_fract_z
  _atom_site_occupancy
  Cu  Cu1       1.0  0.195082396469445  0.5762656529173852  0.4734387523652759  1.0000
  Cu  Cu2       1.0  0.6950758475607087  0.9237207968449112  0.5265717030379096  1.0000
  Cu  Cu3       1.0  0.8049106047198508  0.42373047236705463  0.526569644954684  1.0000
  Cu  Cu4       1.0  0.3049285220165814  0.0762737432764098  0.4734292252188227  1.0000
  H   H1        1.0  0.199793229530222  0.7664023551937545  0.9196818869616054  1.0000
  H   H2        1.0  0.6998446308478988  0.7335827275435134  0.08032929487588801  1.0000
  H   H3        1.0  0.800199771581262  0.23359936181323354  0.08031740954175602  1.0000
  H   H4        1.0  0.30016948306992214  0.26641337761748923  0.9196780485231035  1.0000
  H   H5        1.0  0.846419937516764  0.8543409752596743  0.8456635143153763  1.0000
  H   H6        1.0  0.3464883760909672  0.6456832761406588  0.15433769151704985  1.0000
  H   H7        1.0  0.1535795599202316  0.14564606390147364  0.15432219162451594  1.0000
  H   H8        1.0  0.653525737491407  0.3543504407567396  0.8456763343384781  1.0000
  C   C1        1.0  0.3568559686206783  0.856458836177204  0.7327288111728907  1.0000
  C   C2        1.0  0.8568321447529784  0.6435489108619804  0.26723186560625584  1.0000
  C   C3        1.0  0.6431532731489753  0.1435312520109733  0.26726551167309515  1.0000
  C   C4        1.0  0.14314786419006248  0.356417878825333  0.732750404626998  1.0000
  C   C5        1.0  0.672436469339388  0.84409233409216  0.8302793840879377  1.0000
  C   C6        1.0  0.1724560785987208  0.6559194655794656  0.16971492711814312  1.0000
  C   C7        1.0  0.32755978001719654  0.15589185856686066  0.16970823882918043  1.0000
  C   C8        1.0  0.8275417947856596  0.3440722280204653  0.8302879181953033  1.0000
  S   S1        1.0  0.1511736172748144  0.8737859311155772  0.611207370171684  1.0000
  S   S2        1.0  0.6512319951179393  0.626213380224044  0.38875140551955684  1.0000
  S   S3        1.0  0.8488210079059328  0.1262127976777094  0.3887864693600279  1.0000
  S   S4        1.0  0.34877237442422876  0.373782441398248  0.6112411904586993  1.0000
  N   N1        1.0  0.3380275868468132  0.7964097026979288  0.863263429727475  1.0000
  N   N2        1.0  0.8380067826500976  0.7035798656200568  0.13673907038025132  1.0000
  N   N3        1.0  0.6619800308402546  0.20358481719401303  0.13673644504552843  1.0000
  N   N4        1.0  0.16198134629566846  0.29642341633992697  0.8632666416231133  1.0000
  N   N5        1.0  0.5717750931980348  0.8881089422394693  0.7105215365501041  1.0000
  N   N6        1.0  0.0717214871682899  0.6119085768263587  0.2894623775556937  1.0000
  N   N7        1.0  0.4282292761954877  0.11190582699148167  0.28948177448602763  1.0000
  N   N8        1.0  0.9282633934542587  0.38811627647088187  0.7105405452407896  1.0000
  N   N9        1.0  0.5368042094860926  0.7875314588997993  0.92624802949765  1.0000
  N   N10       1.0  0.0367312760478029  0.7124709818073569  0.07379975665770643  1.0000
  N   N11       1.0  0.46321477657655663  0.21246755351887708  0.0737605570970672  1.0000
  N   N12       1.0  0.9632471083185692  0.2875613521339985  0.9262173353296179  1.0000
