data_image0
_chemical_formula_structural       Mg4H24C20N8O24
_chemical_formula_sum              "Mg4 H24 C20 N8 O24"
_cell_length_a       7.740806171229028
_cell_length_b       7.740831045686516
_cell_length_c       13.599979359576277
_cell_angle_alpha    89.12808016814004
_cell_angle_beta     89.12802420060807
_cell_angle_gamma    76.65785982585754

_space_group_name_H-M_alt    "P 1"
_space_group_IT_number       1

loop_
  _space_group_symop_operation_xyz
  'x, y, z'

loop_
  _atom_site_type_symbol
  _atom_site_label
  _atom_site_symmetry_multiplicity
  _atom_site_fract_x
  _atom_site_fract_y
  _atom_site_fract_z
  _atom_site_occupancy
  Mg  Mg1       1.0  0.9296439832137011  0.5892994556282859  0.3931126054835089  1.0000
  Mg  Mg2       1.0  0.41070171752016194  0.07036074737582963  0.1069027652276873  1.0000
  Mg  Mg3       1.0  0.07035421386174791  0.4107009291192227  0.6068960204796311  1.0000
  Mg  Mg4       1.0  0.5893029979879855  0.9296380283161696  0.8930983960046106  1.0000
  H   H1        1.0  0.25589459693016886  0.4413146442221532  0.24418583830765778  1.0000
  H   H2        1.0  0.55869313098124  0.7441127328376139  0.2558132775261086  1.0000
  H   H3        1.0  0.744102968727688  0.5586746880740348  0.7558098044571295  1.0000
  H   H4        1.0  0.441319275608663  0.2558807235919076  0.7441885669373747  1.0000
  H   H5        1.0  0.9945763835685993  0.9116292940977077  0.41579399326027305  1.0000
  H   H6        1.0  0.08837594913065058  0.005425212628111401  0.08420670894248158  1.0000
  H   H7        1.0  0.005419598225564904  0.08837343057467  0.5842050667879448  1.0000
  H   H8        1.0  0.9116262233099872  0.9945788304510401  0.9157929208531072  1.0000
  H   H9        1.0  0.12743851449251054  0.6936157868918187  0.9645656236791281  1.0000
  H   H10       1.0  0.30637643388723745  0.8725580232901109  0.5354348983199131  1.0000
  H   H11       1.0  0.8725718657756046  0.3063870365640895  0.0354382655084038  1.0000
  H   H12       1.0  0.6936119464577428  0.127438061633022  0.4645630050700475  1.0000
  H   H13       1.0  0.9208551137748271  0.8679800150545063  0.5225237382948151  1.0000
  H   H14       1.0  0.13202240425540873  0.0791462586677483  0.9774755603297078  1.0000
  H   H15       1.0  0.07914342964519958  0.1320226712986425  0.47747453038373777  1.0000
  H   H16       1.0  0.8679772065593668  0.9208578227306389  0.02252486083553858  1.0000
  H   H17       1.0  0.8333294449153711  0.3997938557536286  0.2484823321720881  1.0000
  H   H18       1.0  0.6002081040519444  0.1666794677465404  0.2515181927883461  1.0000
  H   H19       1.0  0.16667140956852924  0.6002101693404215  0.751516591507638  1.0000
  H   H20       1.0  0.3997953182619938  0.8333193147234965  0.7484829968618811  1.0000
  H   H21       1.0  0.9754925836679432  0.251949604780151  0.3116260905167535  1.0000
  H   H22       1.0  0.7480617547398082  0.024504957251743103  0.18837219820213136  1.0000
  H   H23       1.0  0.024506628009632412  0.7480557050995101  0.6883713698165508  1.0000
  H   H24       1.0  0.2519416428116017  0.9754938004551547  0.8116282569142967  1.0000
  C   C1        1.0  0.17956024914634117  0.6011930238835748  0.023289478865635295  1.0000
  C   C2        1.0  0.39879496513532336  0.8204341630160527  0.47671115443756656  1.0000
  C   C3        1.0  0.8204332668587141  0.3987925757915392  0.9767129564653275  1.0000
  C   C4        1.0  0.6011993367357887  0.17955938830607468  0.523291087876963  1.0000
  C   C5        1.0  0.01602529336045677  0.7545295145762054  0.18261713631307694  1.0000
  C   C6        1.0  0.24547710492946354  0.9839805328344369  0.31738585547106624  1.0000
  C   C7        1.0  0.9839743298085041  0.24548500019488978  0.8173779047056443  1.0000
  C   C8        1.0  0.7545193255269708  0.01602101288295191  0.682617634476685  1.0000
  C   C9        1.0  0.37297182114988914  0.3215621082182736  0.9302855552289627  1.0000
  C   C10       1.0  0.6784302797186115  0.6270292791314914  0.5697183851440994  1.0000
  C   C11       1.0  0.6270380918975887  0.6784366651246928  0.06971622686540259  1.0000
  C   C12       1.0  0.32156449230975426  0.37296669761200013  0.4302771725548169  1.0000
  C   C13       1.0  0.2945457438212386  0.4324679788077575  0.015195903814010599  1.0000
  C   C14       1.0  0.5675289785409986  0.7054573561088447  0.48480721063039306  1.0000
  C   C15       1.0  0.7054592036905304  0.5675241907561741  0.9848061338538229  1.0000
  C   C16       1.0  0.43246972879921236  0.2945334455220204  0.5151927882224783  1.0000
  C   C17       1.0  0.14176855635432153  0.6211376584812811  0.12396673454139767  1.0000
  C   C18       1.0  0.3788617498617055  0.8582447467734086  0.3760361862172488  1.0000
  C   C19       1.0  0.8582375204314514  0.37886638902688924  0.8760335445341951  1.0000
  C   C20       1.0  0.621133337875456  0.1417567561957398  0.6239658630808406  1.0000
  N   N1        1.0  0.23424322846390308  0.47031944379082086  0.1691798895830487  1.0000
  N   N2        1.0  0.5296860245704809  0.765766548477181  0.3308177646324778  1.0000
  N   N3        1.0  0.7657619232981644  0.5296885615557585  0.8308195868684578  1.0000
  N   N4        1.0  0.4703106564479427  0.2342336201800777  0.6691842789444421  1.0000
  N   N5        1.0  0.3257807618183151  0.35648693721984165  0.10544029290217338  1.0000
  N   N6        1.0  0.6435094882733238  0.674225376095279  0.3945612679668358  1.0000
  N   N7        1.0  0.674221642625952  0.6435104997312492  0.8945602133289512  1.0000
  N   N8        1.0  0.35648358848702333  0.3257734605991089  0.6054401490268473  1.0000
  O   O1        1.0  0.9915268554221156  0.7170364581333999  0.2712542280676402  1.0000
  O   O2        1.0  0.28297601925653737  0.008472224257950202  0.22874852864040918  1.0000
  O   O3        1.0  0.008480842344077593  0.2829646551344354  0.7287379881117957  1.0000
  O   O4        1.0  0.7170286281681653  0.991521272839826  0.7712534863306644  1.0000
  O   O5        1.0  0.4583208320832525  0.1624365160774559  0.9549801726693588  1.0000
  O   O6        1.0  0.8375603223697325  0.5416842506870765  0.5450227843152575  1.0000
  O   O7        1.0  0.5416899564628608  0.8375582499008161  0.0450209429814947  1.0000
  O   O8        1.0  0.16244284938222356  0.45831590884310447  0.45497985170580085  1.0000
  O   O9        1.0  0.9013835622407241  0.37627161544946836  0.30898824325413426  1.0000
  O   O10       1.0  0.6237394350216191  0.09861637457733959  0.1910166699089046  1.0000
  O   O11       1.0  0.09861475537984891  0.6237324727269564  0.6910122063290487  1.0000
  O   O12       1.0  0.37626301894771774  0.9013811119000367  0.808985305389818  1.0000
  O   O13       1.0  0.936523386187119  0.8296434270291613  0.4531442573917275  1.0000
  O   O14       1.0  0.17035924575756664  0.0634820264033209  0.0468571468981693  1.0000
  O   O15       1.0  0.0634664978065373  0.1703632825937973  0.5468541137041356  1.0000
  O   O16       1.0  0.8296408322778462  0.9365261051080012  0.9531453813602438  1.0000
  O   O17       1.0  0.9370134111204463  0.9002787934989624  0.14029287128641243  1.0000
  O   O18       1.0  0.09971821616705512  0.0629954940783151  0.3597027135670388  1.0000
  O   O19       1.0  0.06297474663847416  0.09973595561653073  0.8597075672302592  1.0000
  O   O20       1.0  0.9002758722587954  0.9370098924398106  0.6402963295055812  1.0000
  O   O21       1.0  0.3514528967240834  0.381422028993427  0.8439968845025303  1.0000
  O   O22       1.0  0.6185695503404531  0.6485312036074192  0.6560067341048423  1.0000
  O   O23       1.0  0.6485637328563812  0.6185753333991855  0.1560033091313429  1.0000
  O   O24       1.0  0.38141990654007424  0.3514594473645971  0.3439875874031841  1.0000
