data_image0
_chemical_formula_structural       In8H112C200N24O72
_chemical_formula_sum              "In8 H112 C200 N24 O72"
_cell_length_a       17.507589522798874
_cell_length_b       18.004897865963024
_cell_length_c       18.477511143014592
_cell_angle_alpha    89.99985830241424
_cell_angle_beta     90.00000359608121
_cell_angle_gamma    101.61896877156616

_space_group_name_H-M_alt    "P 1"
_space_group_IT_number       1

loop_
  _space_group_symop_operation_xyz
  'x, y, z'

loop_
  _atom_site_type_symbol
  _atom_site_label
  _atom_site_symmetry_multiplicity
  _atom_site_fract_x
  _atom_site_fract_y
  _atom_site_fract_z
  _atom_site_occupancy
  In  In1       1.0  0.9148091307187015  0.7885460275566415  0.9542141696546552  1.0000
  In  In2       1.0  0.5851907781955106  0.7114540696911933  0.4542134718222002  1.0000
  In  In3       1.0  0.08519147711448478  0.2114666152630562  0.045778640509006215  1.0000
  In  In4       1.0  0.4148091866408378  0.2885330695124324  0.545778797173732  1.0000
  In  In5       1.0  0.0333618163906237  0.6796590730296688  0.4533811304832795  1.0000
  In  In6       1.0  0.4666365995203419  0.8203407989848658  0.95337796641757  1.0000
  In  In7       1.0  0.9666385278865376  0.32034110148237716  0.5466192564733988  1.0000
  In  In8       1.0  0.5333630573699963  0.17965880696308292  0.04662187934134471  1.0000
  H   H1        1.0  0.6740118368452386  0.8344084897218451  0.832158707962215  1.0000
  H   H2        1.0  0.8259890417781647  0.665590797881947  0.3321592173805855  1.0000
  H   H3        1.0  0.32599067753768196  0.16559112394586611  0.16783897300305745  1.0000
  H   H4        1.0  0.17401004361389025  0.3344088065233278  0.667840087179883  1.0000
  H   H5        1.0  0.8819917627029312  0.007783814437331703  0.8219272712211991  1.0000
  H   H6        1.0  0.6180090032376667  0.49221480069076046  0.3219286049279121  1.0000
  H   H7        1.0  0.11800961662614634  0.9922186297002042  0.17807582172491726  1.0000
  H   H8        1.0  0.3819917887041697  0.5077819747745452  0.678075570421875  1.0000
  H   H9        1.0  0.6027077914008032  0.9147203605978195  0.7576437034134714  1.0000
  H   H10       1.0  0.8972919799339037  0.5852791200820137  0.25764386937299844  1.0000
  H   H11       1.0  0.39729381176236694  0.08528038402597103  0.2423539775504082  1.0000
  H   H12       1.0  0.10270710545815119  0.41472048432326863  0.74235543518747  1.0000
  H   H13       1.0  0.587962993581634  0.1178484070520369  0.6169487661338169  1.0000
  H   H14       1.0  0.9120386738619926  0.3821518832757818  0.11694767654979195  1.0000
  H   H15       1.0  0.4120389493026123  0.8821512050708692  0.38304999722829797  1.0000
  H   H16       1.0  0.08796075919529038  0.6178494221916182  0.8830532516039258  1.0000
  H   H17       1.0  0.6362926543523102  0.08052600165024162  0.8418037709663155  1.0000
  H   H18       1.0  0.8637083338407618  0.4194736951972686  0.3418036709803546  1.0000
  H   H19       1.0  0.36370792170218635  0.9194753069060654  0.15819553359214217  1.0000
  H   H20       1.0  0.13629109127210629  0.5805247767057153  0.6581977983752055  1.0000
  H   H21       1.0  0.4814776813088386  0.2291319068508528  0.7843256082011083  1.0000
  H   H22       1.0  0.018522984022091286  0.2708677169673521  0.2843247632526982  1.0000
  H   H23       1.0  0.5185211723062721  0.7708665635122998  0.21567315516229266  1.0000
  H   H24       1.0  0.9814772443667863  0.729131890524691  0.7156745413078057  1.0000
  H   H25       1.0  0.8100875573086126  0.8882089662989402  0.15899926423348631  1.0000
  H   H26       1.0  0.6899121454087405  0.6117902070439742  0.6589987508966076  1.0000
  H   H27       1.0  0.1899126710802719  0.11179064119311022  0.8410000403270105  1.0000
  H   H28       1.0  0.31008739559305804  0.38820883188255806  0.3410010948629819  1.0000
  H   H29       1.0  0.9690797551208303  0.7427227405140686  0.21450746108421012  1.0000
  H   H30       1.0  0.5309201527740796  0.7572774207470588  0.7145055053617284  1.0000
  H   H31       1.0  0.03092047326779119  0.2572768669765538  0.7854929258731433  1.0000
  H   H32       1.0  0.4690796200050541  0.24272275222373443  0.28549325799964725  1.0000
  H   H33       1.0  0.864932832052048  0.854844482542852  0.38249639763453314  1.0000
  H   H34       1.0  0.6350652808459643  0.6451552318518594  0.8824958006442999  1.0000
  H   H35       1.0  0.1350657977301353  0.14515568734046982  0.6175029069252389  1.0000
  H   H36       1.0  0.36493392043450257  0.35484493957412877  0.1175040451139111  1.0000
  H   H37       1.0  0.6488929292321399  0.8763401891236883  0.24542379202829082  1.0000
  H   H38       1.0  0.8511069638466111  0.6236598907448112  0.7454254245034522  1.0000
  H   H39       1.0  0.3511066117697865  0.12365884980356161  0.7545755125328741  1.0000
  H   H40       1.0  0.14889235332213246  0.3763408477011653  0.25457550365094056  1.0000
  H   H41       1.0  0.57474456540141  0.9512731205576228  0.16741535801584462  1.0000
  H   H42       1.0  0.9252559365578248  0.5487271662128917  0.6674171754413294  1.0000
  H   H43       1.0  0.42525509148905627  0.0487264853910361  0.8325839465446381  1.0000
  H   H44       1.0  0.07474406799799738  0.4512741407986027  0.3325832115139705  1.0000
  H   H45       1.0  0.7677798679137738  0.14154981110177536  0.17545584182527565  1.0000
  H   H46       1.0  0.7322197172762086  0.3584514530735207  0.6754552779565658  1.0000
  H   H47       1.0  0.23221978897630896  0.8584497948447454  0.8245450863304955  1.0000
  H   H48       1.0  0.2677807428894852  0.6415492884599345  0.3245451089994306  1.0000
  H   H49       1.0  0.23289222162834017  0.21038064712022483  0.5305252081736569  1.0000
  H   H50       1.0  0.2671085653251737  0.2896196448323137  0.0305248740730093  1.0000
  H   H51       1.0  0.7671078908719975  0.789618393350402  0.4694740963875221  1.0000
  H   H52       1.0  0.7328929219489381  0.7103805327672035  0.9694749716852658  1.0000
  H   H53       1.0  0.4315472982806056  0.12132735708783572  0.5078068937240446  1.0000
  H   H54       1.0  0.06845361544826287  0.378673561692878  0.0078063332277551025  1.0000
  H   H55       1.0  0.5684530459969396  0.8786728174263488  0.4921918696373454  1.0000
  H   H56       1.0  0.9315466129403589  0.6213260457977443  0.9921940537296055  1.0000
  H   H57       1.0  0.14595524977634966  0.08528982756033095  0.5046165638802835  1.0000
  H   H58       1.0  0.3540462369796487  0.4147111011617497  0.004616474793579101  1.0000
  H   H59       1.0  0.8540449786123998  0.9147097799310088  0.49538328187863834  1.0000
  H   H60       1.0  0.6459554820712867  0.5852902104791795  0.9953844533601953  1.0000
  H   H61       1.0  0.35354879059232036  0.9908793397004484  0.48636410338291836  1.0000
  H   H62       1.0  0.14645281466985688  0.5091221542623501  0.986364376003053  1.0000
  H   H63       1.0  0.6464513219077617  0.009119700768756902  0.5136362835751173  1.0000
  H   H64       1.0  0.8535482169942554  0.4908785888144963  0.013636010952964702  1.0000
  H   H65       1.0  0.27275119081277666  0.9137413393699917  0.40608768974136217  1.0000
  H   H66       1.0  0.2272505688067952  0.5862609329431265  0.9060883225369808  1.0000
  H   H67       1.0  0.7272481263563506  0.08625939907812352  0.593911614817742  1.0000
  H   H68       1.0  0.77274920397182  0.41373924002481743  0.0939126056181081  1.0000
  H   H69       1.0  0.10282706476200329  0.9629752060980294  0.559626702034109  1.0000
  H   H70       1.0  0.3971756562151043  0.537026280304055  0.05962698423971353  1.0000
  H   H71       1.0  0.8971739669017181  0.03702553697667099  0.44037530851719  1.0000
  H   H72       1.0  0.6028240006749783  0.4629733256424729  0.9403739439160503  1.0000
  H   H73       1.0  0.19340021649406214  0.7826536743965847  0.3967029233282275  1.0000
  H   H74       1.0  0.3066018873445486  0.7173474901252348  0.8967016214461411  1.0000
  H   H75       1.0  0.8065989847863974  0.21734649702941064  0.6032969224299907  1.0000
  H   H76       1.0  0.6933984569327408  0.2826526843875214  0.10329822431210543  1.0000
  H   H77       1.0  0.029467582623368568  0.8302376102597577  0.5415589501943715  1.0000
  H   H78       1.0  0.4705344596252985  0.669763355143111  0.0415578345876213  1.0000
  H   H79       1.0  0.9705332172634012  0.16976199877282033  0.45844251915985285  1.0000
  H   H80       1.0  0.5294658846521186  0.3302368193703558  0.9584414699722008  1.0000
  H   H81       1.0  0.08079826942635998  0.7828629488278268  0.020542951732984708  1.0000
  H   H82       1.0  0.4192011492335581  0.7171363646597018  0.5205438218665324  1.0000
  H   H83       1.0  0.919202074851057  0.21713722568563304  0.9794563528268374  1.0000
  H   H84       1.0  0.5807987394337247  0.28286437533036946  0.47945656508944995  1.0000
  H   H85       1.0  0.0038467536024810807  0.9608678878872537  0.9225154017336195  1.0000
  H   H86       1.0  0.4961527042067289  0.5391315014413608  0.4225167671647584  1.0000
  H   H87       1.0  0.9961534747863963  0.0391317196047893  0.07748390282687721  1.0000
  H   H88       1.0  0.5038469526834747  0.4608681045058845  0.5774836197925808  1.0000
  H   H89       1.0  0.21331181463575177  0.8598998433867707  0.038644326736317715  1.0000
  H   H90       1.0  0.28668759534970417  0.6400994224475555  0.5386459157624373  1.0000
  H   H91       1.0  0.7866881899200705  0.140101463624724  0.9613560602189822  1.0000
  H   H92       1.0  0.7133126330385267  0.3599001850409281  0.46135609479020473  1.0000
  H   H93       1.0  0.131315072624993  0.047703016468403796  0.939582656788595  1.0000
  H   H94       1.0  0.36868391969907327  0.4522967610233978  0.4395819368238137  1.0000
  H   H95       1.0  0.8686837889336162  0.9522982874541912  0.060419353761958006  1.0000
  H   H96       1.0  0.6313163086895486  0.5477028464672244  0.5604184501335399  1.0000
  H   H97       1.0  0.23283385004278048  0.11727481834132193  0.9660239076489889  1.0000
  H   H98       1.0  0.2671657011084605  0.3827248910843508  0.46602497283731054  1.0000
  H   H99       1.0  0.7671659227362255  0.8827253546287609  0.03397539691081872  1.0000
  H   H100      1.0  0.7328347590572334  0.6172758504491044  0.5339754141186861  1.0000
  H   H101      1.0  0.3218910276761591  0.920570759550131  0.03621698193652631  1.0000
  H   H102      1.0  0.1781076960855187  0.5794279441092555  0.5362187106559377  1.0000
  H   H103      1.0  0.6781085133257675  0.0794282793771188  0.9637823226246385  1.0000
  H   H104      1.0  0.8218927640800541  0.42057279742348896  0.46378221749849063  1.0000
  H   H105      1.0  0.4474062509385205  0.0051383087996228  0.05684478412831601  1.0000
  H   H106      1.0  0.05259246124138873  0.494860208170273  0.5568455045027961  1.0000
  H   H107      1.0  0.5525934059519455  0.9948612971490365  0.9431545204321666  1.0000
  H   H108      1.0  0.9474078830356376  0.5051399663410551  0.4431554236523069  1.0000
  H   H109      1.0  0.36524599338738284  0.1930414415254234  0.9870823923948039  1.0000
  H   H110      1.0  0.1347538953386049  0.306959913530207  0.4870814674272382  1.0000
  H   H111      1.0  0.6347537793914952  0.806958731443949  0.012917453363428404  1.0000
  H   H112      1.0  0.8652465648274871  0.6930408280053869  0.5129172959334698  1.0000
  C   C1        1.0  0.8227593408823993  0.8674531090691249  0.8778114660595834  1.0000
  C   C2        1.0  0.6772404887557497  0.6325466222880749  0.37781150501870553  1.0000
  C   C3        1.0  0.17723952067686352  0.13254819485703004  0.12218783849883154  1.0000
  C   C4        1.0  0.3227607667414176  0.36745242126931993  0.622187799542502  1.0000
  C   C5        1.0  0.7814917114375814  0.9161523202033238  0.8328697474342308  1.0000
  C   C6        1.0  0.7185092827333149  0.58384753254839  0.33287152977582224  1.0000
  C   C7        1.0  0.21850886461665195  0.08384898835155499  0.16713063952109056  1.0000
  C   C8        1.0  0.2814918568746592  0.4161509439840216  0.6671304807782121  1.0000
  C   C9        1.0  0.7030250371630159  0.8905201641002308  0.8142893515109082  1.0000
  C   C10       1.0  0.7969750467478321  0.6094780349579241  0.31429053558282766  1.0000
  C   C11       1.0  0.29697656599989125  0.10948058052213133  0.18570941184983522  1.0000
  C   C12       1.0  0.2030244942537038  0.3905210039671871  0.6857103925736183  1.0000
  C   C13       1.0  0.8206561784990567  0.9872417523408784  0.8091467710367868  1.0000
  C   C14       1.0  0.6793439078760954  0.5127564602549343  0.3091481811147078  1.0000
  C   C15       1.0  0.1793439419447864  0.0127601216891833  0.19085578071155856  1.0000
  C   C16       1.0  0.3206568840657481  0.4872403152103785  0.6908559942350794  1.0000
  C   C17       1.0  0.6634237770788898  0.9352268759244284  0.7729817851944603  1.0000
  C   C18       1.0  0.836576674292523  0.5647731329416105  0.2729825381349684  1.0000
  C   C19       1.0  0.33657691486427405  0.06477499965401283  0.2270169781648903  1.0000
  C   C20       1.0  0.16342332231889148  0.4352253405054611  0.7270183900221739  1.0000
  C   C21       1.0  0.780674214036324  0.03244713932934221  0.768736633305956  1.0000
  C   C22       1.0  0.7193256661737876  0.4675527467802353  0.2687380324725481  1.0000
  C   C23       1.0  0.2193264779061934  0.9675547362455322  0.23126483604553988  1.0000
  C   C24       1.0  0.2806747860468448  0.532445161185244  0.7312656016774357  1.0000
  C   C25       1.0  0.7018597005694857  0.006845779885495101  0.7498850969222917  1.0000
  C   C26       1.0  0.7981399568975929  0.49315302180981746  0.24988535671506906  1.0000
  C   C27       1.0  0.298141902592903  0.9931549647340181  0.25011583123216513  1.0000
  C   C28       1.0  0.2018594682151473  0.506845450092449  0.7501166538389229  1.0000
  C   C29       1.0  0.6168036948735534  0.09348684685539153  0.7272504481275491  1.0000
  C   C30       1.0  0.883196892604431  0.40651371703489764  0.22724983932968004  1.0000
  C   C31       1.0  0.38319653351545907  0.9065127606373694  0.2727483152345159  1.0000
  C   C32       1.0  0.11680150540028214  0.5934853188034451  0.7727510888267376  1.0000
  C   C33       1.0  0.5791811307746357  0.12786215561182251  0.6742059239884386  1.0000
  C   C34       1.0  0.9208207410079581  0.3721391180273912  0.17420540025052136  1.0000
  C   C35       1.0  0.4208196691129159  0.8721374534250329  0.3257922981752231  1.0000
  C   C36       1.0  0.07917903177066414  0.6278610549405527  0.8257955279045747  1.0000
  C   C37       1.0  0.530055696420689  0.17640744978649542  0.6949970840877384  1.0000
  C   C38       1.0  0.9699461653984895  0.32359376911867344  0.19499722143343234  1.0000
  C   C39       1.0  0.46994555907686203  0.8235915937730383  0.30500059687818754  1.0000
  C   C40       1.0  0.030052580272098315  0.6764069677853473  0.8050026243240965  1.0000
  C   C41       1.0  0.49032884779244057  0.21358002021563047  0.6385473360018495  1.0000
  C   C42       1.0  0.009672574783294897  0.28642055593186205  0.13854645305683994  1.0000
  C   C43       1.0  0.5096725235933945  0.7864195903638916  0.36145142736025093  1.0000
  C   C44       1.0  0.9903273138841157  0.7135801840589266  0.8614533927007175  1.0000
  C   C45       1.0  0.6064420831917091  0.10695833013001992  0.8004410247142035  1.0000
  C   C46       1.0  0.8935589248228907  0.3930414756071415  0.3004399077922813  1.0000
  C   C47       1.0  0.3935575736987573  0.8930412758186465  0.1995582798462792  1.0000
  C   C48       1.0  0.10644118767680052  0.6069575648599254  0.6995621027610428  1.0000
  C   C49       1.0  0.5187403871544872  0.1904946365352274  0.7681124333226637  1.0000
  C   C50       1.0  0.9812614396276231  0.309506389893592  0.2681115228854054  1.0000
  C   C51       1.0  0.4812597253461135  0.8095044039368275  0.23188578884165886  1.0000
  C   C52       1.0  0.01873878876112658  0.6904932175977406  0.731888322873516  1.0000
  C   C53       1.0  0.5569958977689994  0.1557787460072078  0.8205454036662945  1.0000
  C   C54       1.0  0.9430054482771834  0.3442227078695552  0.32054386611103786  1.0000
  C   C55       1.0  0.4430033035117233  0.8442214254202085  0.17945335969506715  1.0000
  C   C56       1.0  0.05699546749851686  0.655777468186578  0.67945597964723  1.0000
  C   C57       1.0  0.543755531832744  0.17132113552836611  0.8983123515870094  1.0000
  C   C58       1.0  0.9562432591760411  0.32867897340739205  0.3983119346645125  1.0000
  C   C59       1.0  0.4562435535594387  0.8286784688776265  0.10168641177503453  1.0000
  C   C60       1.0  0.04375811220953097  0.6713206371707087  0.6016879110944446  1.0000
  C   C61       1.0  0.9028710872847298  0.7990777890023394  0.1010987192566901  1.0000
  C   C62       1.0  0.5971287590676441  0.7009221037874273  0.6010974444521652  1.0000
  C   C63       1.0  0.09713016821243768  0.2009212545550554  0.8989005853045173  1.0000
  C   C64       1.0  0.40286998660307927  0.29907863311731125  0.3989018601069248  1.0000
  C   C65       1.0  0.8907056111128283  0.8138540576381247  0.1791335613546181  1.0000
  C   C66       1.0  0.6092930548479317  0.6861456266364314  0.6791323228748285  1.0000
  C   C67       1.0  0.10929392988909832  0.18614498128912527  0.8208657432065467  1.0000
  C   C68       1.0  0.390706146432791  0.31385454479098485  0.32086644048653323  1.0000
  C   C69       1.0  0.8412019420166528  0.8625553085544696  0.1999571931605004  1.0000
  C   C70       1.0  0.6587970536865982  0.6374431884018109  0.699956074965563  1.0000
  C   C71       1.0  0.1587975989851458  0.1374437303720626  0.8000426525990891  1.0000
  C   C72       1.0  0.3412019158167893  0.36255584898133725  0.3000437707940194  1.0000
  C   C73       1.0  0.9303270951837702  0.7798270072131998  0.23107079314836207  1.0000
  C   C74       1.0  0.5696718856098356  0.720171407836844  0.7310689291307215  1.0000
  C   C75       1.0  0.06967199020828467  0.22017259719208232  0.7689285114121065  1.0000
  C   C76       1.0  0.4303277712807585  0.27982819811253284  0.26892983423132943  1.0000
  C   C77       1.0  0.8331445443531107  0.877639633020749  0.2731504738651864  1.0000
  C   C78       1.0  0.6668546480522862  0.6223598052940176  0.7731504748876503  1.0000
  C   C79       1.0  0.16685556814736194  0.12235940745059538  0.7268482894975608  1.0000
  C   C80       1.0  0.3331439817297691  0.37764036458858646  0.2268493708705465  1.0000
  C   C81       1.0  0.8718983381475239  0.8435955044774773  0.3254097187188095  1.0000
  C   C82       1.0  0.6281008292151994  0.656403796265238  0.8254085530142279  1.0000
  C   C83       1.0  0.1281013187429423  0.15640410147118902  0.6745895858416732  1.0000
  C   C84       1.0  0.3718978005671119  0.3435963736187945  0.17459021034711955  1.0000
  C   C85       1.0  0.9199442961052212  0.7943434435676481  0.3043268534855272  1.0000
  C   C86       1.0  0.5800548813607023  0.7056559126770382  0.8043250250589722  1.0000
  C   C87       1.0  0.08005478928683368  0.20565616083763422  0.6956724510749411  1.0000
  C   C88       1.0  0.41994477552989906  0.2943436932723388  0.19567373830307846  1.0000
  C   C89       1.0  0.9580773143740228  0.7562978039014895  0.36146067738967963  1.0000
  C   C90       1.0  0.5419233263756098  0.7437031060890291  0.8614582138290958  1.0000
  C   C91       1.0  0.04192245840498287  0.24370236906859324  0.638538627170128  1.0000
  C   C92       1.0  0.45807575901657305  0.25629649831696355  0.13854054953294082  1.0000
  C   C93       1.0  0.7503528134894919  0.9655500071939828  0.2511322486194417  1.0000
  C   C94       1.0  0.7496471927426072  0.5344506246701712  0.7511324663717789  1.0000
  C   C95       1.0  0.24964672751243464  0.034449031733267105  0.748867055941723  1.0000
  C   C96       1.0  0.25035281181334307  0.465550682342041  0.24886737938509643  1.0000
  C   C97       1.0  0.6748504481251913  0.9337912433595082  0.22808643192801983  1.0000
  C   C98       1.0  0.8251494532619573  0.5662088821512086  0.7280871188691834  1.0000
  C   C99       1.0  0.325149208765275  0.06620836258915831  0.7719128726324629  1.0000
  C   C100      1.0  0.17484986390692103  0.4337918562954854  0.27191326808678445  1.0000
  C   C101      1.0  0.7833373450481886  0.04062584107654742  0.23113824661319887  1.0000
  C   C102      1.0  0.7166622134586262  0.4593752765146561  0.7311368974724675  1.0000
  C   C103      1.0  0.21666219595334718  0.9593731978485566  0.7688626815432473  1.0000
  C   C104      1.0  0.28333664810076437  0.5406260274122091  0.2688618658875158  1.0000
  C   C105      1.0  0.6337063092264544  0.9757809572147169  0.18520560500574135  1.0000
  C   C106      1.0  0.8662948715947891  0.5242198512887485  0.6852063955615294  1.0000
  C   C107      1.0  0.3662939191622955  0.0242186502766231  0.8147942407531874  1.0000
  C   C108      1.0  0.13370444557408942  0.47578088715794564  0.3147939913944384  1.0000
  C   C109      1.0  0.7417837252873412  0.0830825491786982  0.18908924110134254  1.0000
  C   C110      1.0  0.7582157374806683  0.416918112083728  0.6890896203213615  1.0000
  C   C111      1.0  0.2582159316031252  0.9169170567699684  0.8109100634591402  1.0000
  C   C112      1.0  0.2417838114655453  0.5830837604072271  0.3109096842363926  1.0000
  C   C113      1.0  0.6669229714409608  0.05048622397819  0.16519103791251416  1.0000
  C   C114      1.0  0.8330776457759227  0.4495145032829199  0.6651918842645801  1.0000
  C   C115      1.0  0.33307725694778867  0.9495133835131425  0.8348088078464146  1.0000
  C   C116      1.0  0.1669223587800346  0.5504868037292923  0.3348079614922953  1.0000
  C   C117      1.0  0.6219544978120978  0.0959372684821886  0.12030939611514672  1.0000
  C   C118      1.0  0.8780443105289351  0.4040630052812304  0.620308731054948  1.0000
  C   C119      1.0  0.3780452749665173  0.9040629044857625  0.8796915320399422  1.0000
  C   C120      1.0  0.12195557813848262  0.5959377347095581  0.3796911147026024  1.0000
  C   C121      1.0  0.2568232282902727  0.16024738859882603  0.5192212576939923  1.0000
  C   C122      1.0  0.24317767996861042  0.339753500132474  0.0192213425828243  1.0000
  C   C123      1.0  0.7431758571017824  0.8397522158064563  0.4807780468664762  1.0000
  C   C124      1.0  0.75682427085966  0.6602489455527164  0.9807785031727364  1.0000
  C   C125      1.0  0.3680999706321231  0.11009669747719641  0.507058427933366  1.0000
  C   C126      1.0  0.13190174673064795  0.38990535885869093  0.007058926559693602  1.0000
  C   C127      1.0  0.6319007133668819  0.8899023445382426  0.49293979423097084  1.0000
  C   C128      1.0  0.8680994008220039  0.6100959512395719  0.9929414603956349  1.0000
  C   C129      1.0  0.20899203368406924  0.0900039306046025  0.5059657677646074  1.0000
  C   C130      1.0  0.29100876503842693  0.4099964260008592  0.005965686276269401  1.0000
  C   C131      1.0  0.7910075073177294  0.9099951083219294  0.49403407799498217  1.0000
  C   C132      1.0  0.7089920348486061  0.5900031830331472  0.9940347006811056  1.0000
  C   C133      1.0  0.324167919617004  0.0381245403554331  0.49446807307172264  1.0000
  C   C134      1.0  0.17583310856625184  0.46187679834243767  0.9944683390647882  1.0000
  C   C135      1.0  0.6758326484932057  0.9618739346371613  0.5055312314901529  1.0000
  C   C136      1.0  0.8241667801009028  0.53812394164693  0.0055325890896256  1.0000
  C   C137      1.0  0.24250715087948288  0.026513168102056305  0.4946142081994439  1.0000
  C   C138      1.0  0.25749456462070697  0.4734887387759415  0.9946144510879907  1.0000
  C   C139      1.0  0.7574930775092666  0.9734864393892761  0.505385637559485  1.0000
  C   C140      1.0  0.7425058955449941  0.5265120027575209  0.005385935868005701  1.0000
  C   C141      1.0  0.1950535066387218  0.9497134743844244  0.4845689930563994  1.0000
  C   C142      1.0  0.304948670981986  0.5502880258468182  0.9845697171508834  1.0000
  C   C143      1.0  0.8049461502514818  0.0502861315628138  0.5154313939009401  1.0000
  C   C144      1.0  0.6950517891835872  0.4497127156859265  0.015431211003537705  1.0000
  C   C145      1.0  0.22014162950035396  0.8975228344816486  0.4385644842273423  1.0000
  C   C146      1.0  0.2798606860546968  0.6024793538797583  0.938564539888681  1.0000
  C   C147      1.0  0.7798583750558592  0.10247847253198471  0.5614342791326694  1.0000
  C   C148      1.0  0.7201390867241811  0.3975208190896141  0.06143530586955142  1.0000
  C   C149      1.0  0.12471587934798116  0.9255539714852432  0.521968537488448  1.0000
  C   C150      1.0  0.3752866278980919  0.5744464800100533  0.021968728234647003  1.0000
  C   C151      1.0  0.8752856079258748  0.074446206112853  0.47803239066669095  1.0000
  C   C152      1.0  0.6247137163790625  0.42555369450198555  0.9780316587220316  1.0000
  C   C153      1.0  0.17593702541060444  0.8245496926975804  0.43220061848749947  1.0000
  C   C154      1.0  0.32406368664310736  0.6754502412446258  0.932200500981054  1.0000
  C   C155      1.0  0.8240616043714508  0.17545047718502363  0.5677992272707046  1.0000
  C   C156      1.0  0.675935970246968  0.3245493647019018  0.067800427174717  1.0000
  C   C157      1.0  0.08368719669544326  0.8516481074493569  0.5128478081702071  1.0000
  C   C158      1.0  0.4163160023085908  0.6483529366229065  0.012846740911875503  1.0000
  C   C159      1.0  0.9163131475814552  0.14835206706126067  0.4871536611833279  1.0000
  C   C160      1.0  0.5836836545817476  0.35164666932504224  0.9871531048470317  1.0000
  C   C161      1.0  0.09520779630766187  0.8416451842259535  0.0028808706274930005  1.0000
  C   C162      1.0  0.4047910593177164  0.6583541742145371  0.5028813403212524  1.0000
  C   C163      1.0  0.9047920923597558  0.1583555557648353  0.9971189751300645  1.0000
  C   C164      1.0  0.5952094008479776  0.3416465673189252  0.4971190466347509  1.0000
  C   C165      1.0  0.052113322589043734  0.9413855560015988  0.9483376272779654  1.0000
  C   C166      1.0  0.44788497984944087  0.5586137622641801  0.4483378604968564  1.0000
  C   C167      1.0  0.9478859945798275  0.05861518244509511  0.051662759678002615  1.0000
  C   C168      1.0  0.5521139896538115  0.4413852751182575  0.5516625264611436  1.0000
  C   C169      1.0  0.16919397575791342  0.8857104783989201  0.012819928898906603  1.0000
  C   C170      1.0  0.33080556249154097  0.6142894224414519  0.5128205003415546  1.0000
  C   C171      1.0  0.8308059129092484  0.11429026159044038  0.9871809992555001  1.0000
  C   C172      1.0  0.6691947817853573  0.38571075206916566  0.48718096901198044  1.0000
  C   C173      1.0  0.12439559163006908  0.9890584496803497  0.9572137674385601  1.0000
  C   C174      1.0  0.37560350983063967  0.510941980806294  0.45721302880184594  1.0000
  C   C175      1.0  0.8756039573154978  0.010943422807045501  0.042788243111331815  1.0000
  C   C176      1.0  0.6243968344465145  0.48905819370574477  0.5427873581548255  1.0000
  C   C177      1.0  0.18558416195647706  0.9616901217769042  0.9898837865881805  1.0000
  C   C178      1.0  0.3144148079600413  0.5383096556838824  0.48988297836721273  1.0000
  C   C179      1.0  0.8144146996020111  0.03831118214498021  0.010118765160804304  1.0000
  C   C180      1.0  0.6855854204283176  0.46168995180531175  0.5101184909869972  1.0000
  C   C181      1.0  0.2634789845118419  0.0106742828054962  0.00019915602054250005  1.0000
  C   C182      1.0  0.23651998659033782  0.48932551732946933  0.5001988183033248  1.0000
  C   C183      1.0  0.7365207882667802  0.9893258901624549  0.9998017721345465  1.0000
  C   C184      1.0  0.7634804735751004  0.5106752242025651  0.49980265104952804  1.0000
  C   C185      1.0  0.2782665860750199  0.08881498067180622  0.9853063021086684  1.0000
  C   C186      1.0  0.2217330717247989  0.4111852450154814  0.4853062136244973  1.0000
  C   C187      1.0  0.721732615205447  0.911185190754182  0.0146935436495497  1.0000
  C   C188      1.0  0.7782684155491849  0.5888149325833184  0.5146941733322096  1.0000
  C   C189      1.0  0.32621546958355907  0.9806427803260361  0.025693847451826506  1.0000
  C   C190      1.0  0.17378303538855278  0.5193576505592575  0.5256935558429775  1.0000
  C   C191      1.0  0.673783963474115  0.0193585251435024  0.9743054571066025  1.0000
  C   C192      1.0  0.8262179962756875  0.4806430925182923  0.47430628991460827  1.0000
  C   C193      1.0  0.39837831561148807  0.027711671804375705  0.036701349951940215  1.0000
  C   C194      1.0  0.10162075388714699  0.4722885992591515  0.536701045235212  1.0000
  C   C195      1.0  0.6016219127773964  0.9722879356876677  0.9632979546085637  1.0000
  C   C196      1.0  0.898379134780143  0.5277121407309266  0.46329934172077014  1.0000
  C   C197      1.0  0.3521098716405007  0.13234321313219513  0.9974583213984192  1.0000
  C   C198      1.0  0.14788978033610084  0.3676569805652222  0.49745779218000064  1.0000
  C   C199      1.0  0.6478899011383773  0.8676569598371772  0.0025415243598204008  1.0000
  C   C200      1.0  0.8521101083314448  0.6323437594262771  0.5025415123791178  1.0000
  N   N1        1.0  0.823874697465854  0.1073319488509838  0.745984021239913  1.0000
  N   N2        1.0  0.6761243903716618  0.39266686156745595  0.2459866806405628  1.0000
  N   N3        1.0  0.17612416409289008  0.8926693550723286  0.254017448112215  1.0000
  N   N4        1.0  0.32387606184884277  0.6073310463973057  0.7540174947078527  1.0000
  N   N5        1.0  0.8613555685323249  0.0778164967009047  0.25609556968715463  1.0000
  N   N6        1.0  0.6386443177357176  0.42218342268791537  0.7560959290898384  1.0000
  N   N7        1.0  0.13864340097093475  0.9221825406815402  0.7439048172708527  1.0000
  N   N8        1.0  0.3613561424299832  0.5778173188455469  0.24390445786615803  1.0000
  N   N9        1.0  0.3350281095346047  0.17000195612611443  0.5207793585524316  1.0000
  N   N10       1.0  0.1649727979776188  0.3299989285034287  0.020779462277815207  1.0000
  N   N11       1.0  0.6649713155790451  0.8299965157811401  0.47921886361255167  1.0000
  N   N12       1.0  0.8350296084605233  0.6700029517037295  0.979220383478442  1.0000
  N   N13       1.0  0.10917556064261184  0.8017287793027849  0.469265700784675  1.0000
  N   N14       1.0  0.3908269640332022  0.6982716287171443  0.9692649910808271  1.0000
  N   N15       1.0  0.8908250154116215  0.19827252925209393  0.5307346861706392  1.0000
  N   N16       1.0  0.6091728087456758  0.30172854425222795  0.0307348546774051  1.0000
  N   N17       1.0  0.037219870294741504  0.8687074495494331  0.9708326270777834  1.0000
  N   N18       1.0  0.4627796802494045  0.6312923796061796  0.4708326860883362  1.0000
  N   N19       1.0  0.9627812772579034  0.13129386054882278  0.029167759877545104  1.0000
  N   N20       1.0  0.5372194051425153  0.36870722479838497  0.5291671596705643  1.0000
  N   N21       1.0  0.4114031175075041  0.1027218250749371  0.023615081973098005  1.0000
  N   N22       1.0  0.08859538676395567  0.3972784788962755  0.523613874797036  1.0000
  N   N23       1.0  0.5885960837729627  0.8972783463510511  0.9763847637851203  1.0000
  N   N24       1.0  0.9114045019034619  0.6027222610945131  0.4763859709605144  1.0000
  O   O1        1.0  0.8921169052931855  0.8960789503035472  0.8995216086192316  1.0000
  O   O2        1.0  0.607882913941438  0.6039207239018652  0.3995211712088534  1.0000
  O   O3        1.0  0.10788309926316228  0.10392235671079672  0.10047661354235522  1.0000
  O   O4        1.0  0.39211753828049467  0.39607718407073383  0.6004770509568402  1.0000
  O   O5        1.0  0.7895159851697287  0.8004310762027987  0.8938856803388049  1.0000
  O   O6        1.0  0.710483836765725  0.699568612839613  0.39388501861277814  1.0000
  O   O7        1.0  0.21048459088463994  0.19957023235279087  0.10611416541808442  1.0000
  O   O8        1.0  0.289515588347534  0.30042985906550274  0.6061148271474937  1.0000
  O   O9        1.0  0.8934470793718956  0.11265310194680471  0.7296252119952842  1.0000
  O   O10       1.0  0.6065529275244758  0.3873446205797535  0.22962842126611357  1.0000
  O   O11       1.0  0.10655372845915413  0.8873493406494859  0.2703762573555295  1.0000
  O   O12       1.0  0.39344729291895664  0.612652153342168  0.7703757540836592  1.0000
  O   O13       1.0  0.7882571360348718  0.16037374586090183  0.7454108271475024  1.0000
  O   O14       1.0  0.711744014237233  0.3396267717557322  0.24541740484762903  1.0000
  O   O15       1.0  0.21174298440936204  0.839628128171306  0.2545901010055474  1.0000
  O   O16       1.0  0.28825666975969705  0.6603722702483098  0.7545894764915673  1.0000
  O   O17       1.0  0.6651053915144871  0.0469029788942734  0.7018937356950163  1.0000
  O   O18       1.0  0.8348945207276656  0.4530970831834579  0.20189301178721314  1.0000
  O   O19       1.0  0.33489564014975304  0.9530977641832834  0.29810611006256954  1.0000
  O   O20       1.0  0.1651050202737423  0.5469019557409354  0.7981084575676719  1.0000
  O   O21       1.0  0.43987335035617287  0.2525154491707937  0.6580504553768167  1.0000
  O   O22       1.0  0.06012760726338939  0.2474856411108064  0.15805075164039556  1.0000
  O   O23       1.0  0.5601274495315067  0.7474841598667724  0.3419472255884132  1.0000
  O   O24       1.0  0.9398730846796465  0.752516234466917  0.8419485529173871  1.0000
  O   O25       1.0  0.5063343582340281  0.20652814233515931  0.5719447603250674  1.0000
  O   O26       1.0  0.9936660718899972  0.2934716963560646  0.07194551285228813  1.0000
  O   O27       1.0  0.493666325765119  0.7934708996809905  0.4280529206408446  1.0000
  O   O28       1.0  0.006333245279009207  0.7065290420913402  0.928054332905248  1.0000
  O   O29       1.0  0.5820687307752123  0.14091465782836823  0.9462068267167468  1.0000
  O   O30       1.0  0.9179287783972895  0.3590847549182073  0.44620471065951517  1.0000
  O   O31       1.0  0.41793035461697053  0.8590849465776245  0.053791936645289716  1.0000
  O   O32       1.0  0.08207213737841094  0.6409154211379259  0.5537951350987457  1.0000
  O   O33       1.0  0.49599945882867047  0.2118160708466448  0.9163877877085372  1.0000
  O   O34       1.0  0.003998857223358185  0.2881831991401427  0.4163879825739657  1.0000
  O   O35       1.0  0.5040000821733911  0.7881829680813155  0.0836109756541958  1.0000
  O   O36       1.0  0.9960019426639376  0.7118164098952917  0.5836113219865526  1.0000
  O   O37       1.0  0.9498259049695292  0.7582899708035953  0.08118645599649452  1.0000
  O   O38       1.0  0.5501745224233616  0.7417099759491422  0.5811850801255646  1.0000
  O   O39       1.0  0.05017672530127729  0.24171020988197267  0.9188139309602406  1.0000
  O   O40       1.0  0.44982341997174297  0.2582896253686613  0.4188147656333002  1.0000
  O   O41       1.0  0.8644197590598638  0.8303203546576868  0.053727581996398016  1.0000
  O   O42       1.0  0.635580109992901  0.6696796628367994  0.5537269259529439  1.0000
  O   O43       1.0  0.13558035344073718  0.16967868581436824  0.9462706401679243  1.0000
  O   O44       1.0  0.36441897539928186  0.3303199415691935  0.44627183740909276  1.0000
  O   O45       1.0  0.0009776206426792672  0.7094010290951829  0.34208363679353954  1.0000
  O   O46       1.0  0.4990234822621034  0.7906008431507984  0.8420800051127488  1.0000
  O   O47       1.0  0.999022152136064  0.2905991438734788  0.6579167501631249  1.0000
  O   O48       1.0  0.5009756031299516  0.20939876125448356  0.15791929944771976  1.0000
  O   O49       1.0  0.9464576861996647  0.7687339226403297  0.4278559677131356  1.0000
  O   O50       1.0  0.5535421274017267  0.731268510540616  0.9278535348047754  1.0000
  O   O51       1.0  0.0535416309693417  0.23126681580708217  0.5721438780444006  1.0000
  O   O52       1.0  0.44645718976740767  0.2687322279075063  0.07214576975432861  1.0000
  O   O53       1.0  0.787121593668658  0.925966048631885  0.29926865045602113  1.0000
  O   O54       1.0  0.712878389496204  0.5740344565122798  0.7992687706499881  1.0000
  O   O55       1.0  0.21287806322193598  0.07403355731749171  0.7007301129060367  1.0000
  O   O56       1.0  0.28712081178426263  0.42596571491370844  0.2007310751082301  1.0000
  O   O57       1.0  0.9114053088438254  0.03835459875752889  0.26279349047110406  1.0000
  O   O58       1.0  0.5885940027162777  0.46164530145632915  0.7627932106188312  1.0000
  O   O59       1.0  0.08859446393492484  0.9616455742111331  0.7372068964855601  1.0000
  O   O60       1.0  0.41140553828539334  0.5383537374694926  0.23720717633919014  1.0000
  O   O61       1.0  0.872017988258598  0.14685733012963456  0.26861881848258673  1.0000
  O   O62       1.0  0.6279833826703651  0.3531442604408426  0.7686204259773532  1.0000
  O   O63       1.0  0.12798121302173365  0.8531428412956431  0.7313815684740634  1.0000
  O   O64       1.0  0.37201879199017895  0.6468564857206331  0.2313815845739812  1.0000
  O   O65       1.0  0.5509303673360221  0.0677285493404369  0.10489663792165523  1.0000
  O   O66       1.0  0.9490678768926272  0.4322717634548142  0.6048953679384328  1.0000
  O   O67       1.0  0.44906826244589854  0.9322716205414568  0.8951037490349806  1.0000
  O   O68       1.0  0.050932011774783285  0.5677289765359746  0.39510447781911756  1.0000
  O   O69       1.0  0.6547452808014427  0.16175383108468114  0.09860401362215751  1.0000
  O   O70       1.0  0.8452528505534288  0.3382459312507607  0.5986056699658207  1.0000
  O   O71       1.0  0.3452542602006119  0.8382452078432722  0.9013947497405823  1.0000
  O   O72       1.0  0.1547479493332133  0.6617536777811069  0.40139634058684254  1.0000
