data_image0
_chemical_formula_structural       Na2Zn2Fe2P2H54C50S2Br6O6
_chemical_formula_sum              "Na2 Zn2 Fe2 P2 H54 C50 S2 Br6 O6"
_cell_length_a       8.677574947031262
_cell_length_b       9.170451689178005
_cell_length_c       18.1021
_cell_angle_alpha    91.27804507777971
_cell_angle_beta     100.14788982740117
_cell_angle_gamma    95.10208072957934

_space_group_name_H-M_alt    "P 1"
_space_group_IT_number       1

loop_
  _space_group_symop_operation_xyz
  'x, y, z'

loop_
  _atom_site_type_symbol
  _atom_site_label
  _atom_site_symmetry_multiplicity
  _atom_site_fract_x
  _atom_site_fract_y
  _atom_site_fract_z
  _atom_site_occupancy
  Na  Na1       1.0  0.7134372459943918  0.0646699841738965  0.03927005027534139  1.0000
  Na  Na2       1.0  0.2865584243692183  0.9353350868968492  0.9607322929701568  1.0000
  Zn  Zn1       1.0  0.6833022184777278  0.1539793353061896  0.23742352149583473  1.0000
  Zn  Zn2       1.0  0.3166944006704853  0.8460235445273341  0.762574457747661  1.0000
  Fe  Fe1       1.0  0.1398544458005162  0.4566067257540638  0.2745177367355894  1.0000
  Fe  Fe2       1.0  0.860146634262243  0.543393962842238  0.725484461470771  1.0000
  P   P1        1.0  0.8174012353791085  0.2966562690141359  0.3460532859299619  1.0000
  P   P2        1.0  0.1826007934682536  0.7033422283449369  0.6539456531185692  1.0000
  H   H1        1.0  0.39100590897407267  0.49358714075459187  0.1974061830389076  1.0000
  H   H2        1.0  0.6089964527613532  0.5064146434603174  0.8025955833747106  1.0000
  H   H3        1.0  0.2743566389980145  0.7361965436538256  0.24674844121343403  1.0000
  H   H4        1.0  0.725645944662773  0.2638074317983055  0.7532561308137177  1.0000
  H   H5        1.0  0.9577602618322559  0.6865080483762469  0.22257451373098294  1.0000
  H   H6        1.0  0.0422400913712693  0.3134970226944986  0.7774298822920687  1.0000
  H   H7        1.0  0.8778373972223363  0.4123130565204676  0.1575230693410816  1.0000
  H   H8        1.0  0.1221594438512525  0.587692014550278  0.8424788203601494  1.0000
  H   H9        1.0  0.1152929931181106  0.1569090194738578  0.3004836674991013  1.0000
  H   H10       1.0  0.8847065833466132  0.8430883822666004  0.6995139471980778  1.0000
  H   H11       1.0  0.39938660943254695  0.3134312855777921  0.3374304983145748  1.0000
  H   H12       1.0  0.6006117963221982  0.6865661161626662  0.662568674771066  1.0000
  H   H13       1.0  0.35675705105820305  0.5757070425569495  0.39872226207641154  1.0000
  H   H14       1.0  0.6432458156110812  0.4242881679462869  0.6012811299720937  1.0000
  H   H15       1.0  0.04569267437272371  0.5816398173392727  0.40049596713650004  1.0000
  H   H16       1.0  0.9543078508766029  0.4183553931639636  0.5995066747342719  1.0000
  H   H17       1.0  0.0736406175119697  0.16919966905985012  0.1521495900001852  1.0000
  H   H18       1.0  0.9263538821416617  0.8308054020108884  0.847850444679125  1.0000
  H   H19       1.0  0.2740684427473568  0.22611705593739373  0.1460130413930401  1.0000
  H   H20       1.0  0.7259245533082463  0.7738847282775154  0.8539846194654643  1.0000
  H   H21       1.0  0.0703506236096771  0.2359863883915381  0.46983982983284994  1.0000
  H   H22       1.0  0.9296556941064225  0.7640197782978149  0.5301562435773164  1.0000
  H   H23       1.0  0.0683715954869299  0.1370103942482643  0.5955931798872101  1.0000
  H   H24       1.0  0.9316303722773115  0.8629990592969321  0.4044047729546634  1.0000
  H   H25       1.0  0.8129132417010894  0.05919846482709091  0.6353450640205266  1.0000
  H   H26       1.0  0.18709029074431527  0.9408033193878182  0.3646512770499514  1.0000
  H   H27       1.0  0.5633025105204723  0.0724324420377513  0.5464591076960232  1.0000
  H   H28       1.0  0.43670197070953515  0.9275671509399358  0.4535367363271163  1.0000
  H   H29       1.0  0.5637671044666915  0.1657605222377398  0.418653474221415  1.0000
  H   H30       1.0  0.4362408888932521  0.8342390707399403  0.5813432188572705  1.0000
  H   H31       1.0  0.7394149713173945  0.4559723625778886  0.4773305118112745  1.0000
  H   H32       1.0  0.2605902367718471  0.5440228479253477  0.5226714207265816  1.0000
  H   H33       1.0  0.640922712939293  0.6976154298616066  0.49107041249310174  1.0000
  H   H34       1.0  0.35907781231004077  0.3023797806416297  0.508930019689295  1.0000
  H   H35       1.0  0.5832044621851296  0.8522105028275746  0.37811034477073246  1.0000
  H   H36       1.0  0.41679349971887086  0.147782516438447  0.6218903985750543  1.0000
  H   H37       1.0  0.6184325735075404  0.7601664876404826  0.2545000181278709  1.0000
  H   H38       1.0  0.3815654993591481  0.2398276272441393  0.745500746969455  1.0000
  H   H39       1.0  0.7115940306737939  0.5133740128817976  0.23953465127824816  1.0000
  H   H40       1.0  0.2884063836128519  0.48662010200282424  0.7604668639968042  1.0000
  H   H41       1.0  0.3182005456129033  0.3997594584676705  0.020505520211550315  1.0000
  H   H42       1.0  0.6817975272537923  0.6002346564169585  0.9794952448857757  1.0000
  H   H43       1.0  0.147635803680501  0.5000315694285788  0.0189219229916091  1.0000
  H   H44       1.0  0.8523695652509886  0.49997678849799604  0.9810785144205668  1.0000
  H   H45       1.0  0.1650211084546456  0.3886717981173149  0.9381369770502347  1.0000
  H   H46       1.0  0.8349822020653832  0.6113277948603653  0.061862635049749294  1.0000
  H   H47       1.0  0.4532142500017997  0.9687240640882493  0.12088935429965632  1.0000
  H   H48       1.0  0.5467887276301725  0.0312722420336016  0.8791124022340995  1.0000
  H   H49       1.0  0.3875932312471875  0.7213048954836765  0.11598412446011962  1.0000
  H   H50       1.0  0.6124064561802243  0.2786936018754034  0.8840157216769667  1.0000
  H   H51       1.0  0.5984480880493095  0.7553994510610025  0.1295537804256099  1.0000
  H   H52       1.0  0.4015515993780951  0.24459904629807033  0.8704466181335776  1.0000
  H   H53       1.0  0.4864520658459456  0.7092541863736415  0.03769211538156722  1.0000
  H   H54       1.0  0.5135438875261542  0.2907421197482094  0.9623084954631907  1.0000
  C   C1        1.0  0.13798082038628928  0.4042613553431238  0.1650883719540204  1.0000
  C   C2        1.0  0.8620194218545478  0.5957426201090072  0.8349126877849358  1.0000
  C   C3        1.0  0.2677366869104532  0.5109559826057932  0.1938566808174826  1.0000
  C   C4        1.0  0.7322656748249727  0.48904580160911587  0.8061467428624101  1.0000
  C   C5        1.0  0.20585922573239657  0.6379852913015114  0.2201927549834863  1.0000
  C   C6        1.0  0.7941445286383768  0.3620186841506197  0.7798119159214849  1.0000
  C   C7        1.0  0.03796047509854359  0.6111656433058386  0.20749667249319262  1.0000
  C   C8        1.0  0.9620411597776409  0.3888405233835215  0.79250673931503  1.0000
  C   C9        1.0  0.9957948507234705  0.4671410987055041  0.1734670450395583  1.0000
  C   C10       1.0  0.00420444273276389  0.5328650679838489  0.8265345117467363  1.0000
  C   C11       1.0  0.021717355853361698  0.3531551295820066  0.3483434503253307  1.0000
  C   C12       1.0  0.9782811608640712  0.6468433677770662  0.6516551920897484  1.0000
  C   C13       1.0  0.13882894426735956  0.264988508661709  0.3280468036743898  1.0000
  C   C14       1.0  0.8611694614873853  0.7350088930787493  0.6719512645670634  1.0000
  C   C15       1.0  0.2888900155084642  0.3477131919377214  0.348546004232098  1.0000
  C   C16       1.0  0.7111106207035505  0.6522831141841294  0.6514538972797439  1.0000
  C   C17       1.0  0.2658302392787704  0.4868611380974031  0.3805309825025418  1.0000
  C   C18       1.0  0.7341705078959322  0.5131362636430623  0.6194705980271139  1.0000
  C   C19       1.0  0.1016078079274294  0.49081522566700647  0.3807684920855934  1.0000
  C   C20       1.0  0.8983941099572519  0.509182176073459  0.6192326348997881  1.0000
  C   C21       1.0  0.1526875342105782  0.2560504520275089  0.1334456347681865  1.0000
  C   C22       1.0  0.847304513060415  0.7439535234246293  0.8665514182934757  1.0000
  C   C23       1.0  0.8175969702442174  0.209640047636114  0.435920260519822  1.0000
  C   C24       1.0  0.1824086816957688  0.7903595453415663  0.5640767872253181  1.0000
  C   C25       1.0  0.9587939128551286  0.1993171290767322  0.48606771708021074  1.0000
  C   C26       1.0  0.041211850047538696  0.8006835595195696  0.5139299048385624  1.0000
  C   C27       1.0  0.9575322172812404  0.1438010384035451  0.5572050842903238  1.0000
  C   C28       1.0  0.04247153708953279  0.856202937048586  0.44279295754951425  1.0000
  C   C29       1.0  0.8151313671756172  0.0994558750952024  0.5792778418914963  1.0000
  C   C30       1.0  0.18487099455980877  0.9005459091197068  0.4207200575674578  1.0000
  C   C31       1.0  0.6742417396013636  0.1071953249682096  0.5290779842649229  1.0000
  C   C32       1.0  0.3257594514240836  0.8928064592466995  0.47091926389411753  1.0000
  C   C33       1.0  0.6745698301730343  0.1602900985095488  0.45743003303268653  1.0000
  C   C34       1.0  0.3254361546550085  0.8397127813239678  0.5425665275449633  1.0000
  C   C35       1.0  0.7333423988303736  0.4691143078251656  0.3577429341020917  1.0000
  C   C36       1.0  0.2666618604742581  0.5308830939152926  0.6422572857947344  1.0000
  C   C37       1.0  0.7118756354313973  0.5213446382818816  0.4281978923756924  1.0000
  C   C38       1.0  0.28813202504048974  0.4786516678399693  0.5718031548251474  1.0000
  C   C39       1.0  0.656886196723285  0.6584262477399037  0.4358022824484778  1.0000
  C   C40       1.0  0.3431177296932972  0.3415678671447253  0.5641989770379325  1.0000
  C   C41       1.0  0.6245287837907157  0.7442756352964679  0.3732525478769659  1.0000
  C   C42       1.0  0.37547163049593013  0.2557184795881611  0.6267478625538985  1.0000
  C   C43       1.0  0.6443165495630154  0.6919970976208418  0.3028077057546454  1.0000
  C   C44       1.0  0.3556839756863113  0.3079981128824016  0.6971932788498449  1.0000
  C   C45       1.0  0.6978433175272301  0.5547029381521469  0.29471498839639315  1.0000
  C   C46       1.0  0.30216094177740876  0.4452944635883113  0.7052863363446209  1.0000
  C   C47       1.0  0.1916893282395691  0.4003412319504775  0.9995834309914287  1.0000
  C   C48       1.0  0.8083070689832752  0.5996594566458171  0.0004167144373709932  1.0000
  C   C49       1.0  0.4871607122429182  0.7676901006469947  0.09130445483193482  1.0000
  C   C50       1.0  0.5128388642218056  0.2323073010934706  0.9086959219757207  1.0000
  S   S1        1.0  0.09606651484218529  0.24235631499993096  0.0327861111737988  1.0000
  S   S2        1.0  0.9039265921760986  0.7576465648335855  0.9672126762804254  1.0000
  Br  Br1       1.0  0.43591193696179426  0.027076022750812  0.2550313509642805  1.0000
  Br  Br2       1.0  0.5640814530649862  0.972918092133817  0.7449668089333912  1.0000
  Br  Br3       1.0  0.8595732088901259  0.986799579943991  0.20101202324633502  1.0000
  Br  Br4       1.0  0.1404118752041228  0.0131934393220305  0.7989837654887995  1.0000
  Br  Br5       1.0  0.5931584605615755  0.298537446170414  0.1262578172297921  1.0000
  Br  Br6       1.0  0.4068383805120135  0.7014676249003315  0.873743520049338  1.0000
  O   O1        1.0  0.9258828075929557  0.2485356039698914  0.013614765424968273  1.0000
  O   O2        1.0  0.07410120555043419  0.7514815189055781  0.9863850721651416  1.0000
  O   O3        1.0  0.1611004627373873  0.1146937387466522  0.0057791986897371  1.0000
  O   O4        1.0  0.8388753055565985  0.8853113323240933  0.9942203587886738  1.0000
  O   O5        1.0  0.472742630479388  0.9196293940982087  0.07492093505855733  1.0000
  O   O6        1.0  0.5272570569480167  0.080369103260864  0.9250794635006231  1.0000
