data_image0
_chemical_formula_structural       Dy2H12C18O14
_chemical_formula_sum              "Dy2 H12 C18 O14"
_cell_length_a       7.046052503203284
_cell_length_b       7.598345343699315
_cell_length_c       10.236540500651481
_cell_angle_alpha    75.79394150410684
_cell_angle_beta     71.42024173767362
_cell_angle_gamma    88.38297425463008

_space_group_name_H-M_alt    "P 1"
_space_group_IT_number       1

loop_
  _space_group_symop_operation_xyz
  'x, y, z'

loop_
  _atom_site_type_symbol
  _atom_site_label
  _atom_site_symmetry_multiplicity
  _atom_site_fract_x
  _atom_site_fract_y
  _atom_site_fract_z
  _atom_site_occupancy
  Dy  Dy1       1.0  0.311317828692566  0.21547041928324973  0.016912922841086683  1.0000
  Dy  Dy2       1.0  0.6886807089921021  0.784531367094516  0.983088280882548  1.0000
  H   H1        1.0  0.1758823752758758  0.13423922806052963  0.5989422814540717  1.0000
  H   H2        1.0  0.8241189209364492  0.8657584821634219  0.4010580882735296  1.0000
  H   H3        1.0  0.7134566866426582  0.886883795272034  0.651603100430755  1.0000
  H   H4        1.0  0.2865432003632549  0.11311528184797483  0.3483992824991091  1.0000
  H   H5        1.0  0.6942766151363244  0.2933959084275699  0.5899511577319386  1.0000
  H   H6        1.0  0.3057248406240092  0.7066045267090644  0.41004964927709864  1.0000
  H   H7        1.0  0.059300183931831896  0.6948683752243879  0.6485787607856395  1.0000
  H   H8        1.0  0.9406997030740739  0.30513070189562086  0.35142362214423173  1.0000
  H   H9        1.0  0.999656038749748  0.9132946984367862  0.1679141538451531  1.0000
  H   H10       1.0  0.0003439907565975995  0.0867070863719235  0.8320857426096778  1.0000
  H   H11       1.0  0.218417676609036  0.8404596168663331  0.16719643470869974  1.0000
  H   H12       1.0  0.7815838504015175  0.159542172114655  0.8328031290628247  1.0000
  C   C1        1.0  0.3755678020477403  0.0328996414152058  0.7900388639232006  1.0000
  C   C2        1.0  0.6244335654147974  0.9670994226530921  0.20996026256688086  1.0000
  C   C3        1.0  0.4369879827787173  0.010423814207833003  0.6421453089388933  1.0000
  C   C4        1.0  0.5630118985446729  0.9895752571708487  0.35785609940548113  1.0000
  C   C5        1.0  0.31750488483324796  0.07511890786815908  0.555717645654056  1.0000
  C   C6        1.0  0.6824949195573922  0.924878803924841  0.4442840313423418  1.0000
  C   C7        1.0  0.6202279831460588  0.9359697918157935  0.5851152848245249  1.0000
  C   C8        1.0  0.3797717386293229  0.0640265546501979  0.4148856862384065  1.0000
  C   C9        1.0  0.7146931114027097  0.48240732453245977  0.7783098685162811  1.0000
  C   C10       1.0  0.28530683548837027  0.517593094949241  0.22168932200508348  1.0000
  C   C11       1.0  0.8613389423100912  0.4929869308403383  0.6339449893343743  1.0000
  C   C12       1.0  0.1386595241243569  0.5070135016930734  0.36605745762677344  1.0000
  C   C13       1.0  0.8290863313604432  0.38279796111093845  0.5504621568414549  1.0000
  C   C14       1.0  0.17091527258285313  0.6172051874557312  0.44953713827803904  1.0000
  C   C15       1.0  0.0331045103685881  0.6108891134327121  0.5828725704830263  1.0000
  C   C16       1.0  0.9668970166419654  0.38911267554826884  0.4171269932884983  1.0000
  C   C17       1.0  0.9181534562653724  0.4328742900065449  0.059498010430104366  1.0000
  C   C18       1.0  0.08184506437172698  0.5671274791472383  0.9405002695370541  1.0000
  O   O1        1.0  0.47079052060783505  0.9623940617156493  0.875877253670474  1.0000
  O   O2        1.0  0.5292109294699684  0.03760636767965758  0.12412257875307385  1.0000
  O   O3        1.0  0.2334050041413676  0.13785794090869524  0.8284008854396419  1.0000
  O   O4        1.0  0.7665949484322425  0.862142484314333  0.17159927966721267  1.0000
  O   O5        1.0  0.6200771844679736  0.32868832693992545  0.847669159553547  1.0000
  O   O6        1.0  0.3799227681056294  0.6713120982831028  0.15233100555331452  1.0000
  O   O7        1.0  0.6939722790364229  0.6220422524660804  0.826341462450351  1.0000
  O   O8        1.0  0.30602467852877174  0.3779581644123979  0.17365936802312382  1.0000
  O   O9        1.0  0.9692538758649363  0.2719958253558731  0.09871851458703419  1.0000
  O   O10       1.0  0.0307446504546789  0.7280059495392308  0.9012807399656211  1.0000
  O   O11       1.0  0.7490045180428806  0.4949922925550466  0.10725198235959264  1.0000
  O   O12       1.0  0.2509984894242976  0.5050094833742306  0.8927443249721493  1.0000
  O   O13       1.0  0.13656238770342105  0.9492942528045847  0.16386404659304787  1.0000
  O   O14       1.0  0.8634376418029248  0.0507075320041324  0.8361358498617832  1.0000
