data_image0
_chemical_formula_structural       U2H10C20N4Cl4O14
_chemical_formula_sum              "U2 H10 C20 N4 Cl4 O14"
_cell_length_a       8.080158237912451
_cell_length_b       8.560989940272009
_cell_length_c       12.171271654415731
_cell_angle_alpha    70.68528929367484
_cell_angle_beta     72.23003951066498
_cell_angle_gamma    76.12344542553156

_space_group_name_H-M_alt    "P 1"
_space_group_IT_number       1

loop_
  _space_group_symop_operation_xyz
  'x, y, z'

loop_
  _atom_site_type_symbol
  _atom_site_label
  _atom_site_symmetry_multiplicity
  _atom_site_fract_x
  _atom_site_fract_y
  _atom_site_fract_z
  _atom_site_occupancy
  U   U1        1.0  0.3562446028294914  0.3318618165074909  0.24249347105848068  1.0000
  U   U2        1.0  0.6437494439010293  0.668127815981201  0.7575160322672119  1.0000
  H   H1        1.0  0.6966555124875881  0.09448370208365017  0.2275426660506669  1.0000
  H   H2        1.0  0.30335183731307325  0.9055125956132098  0.7724520636612696  1.0000
  H   H3        1.0  0.6714030991488328  0.12147010764620345  0.10139018101657632  1.0000
  H   H4        1.0  0.32859686132842114  0.8785236119618955  0.8986082201631265  1.0000
  H   H5        1.0  0.9989541461432694  0.019249203948980696  0.3136791598900572  1.0000
  H   H6        1.0  0.0010603802801157144  0.9807508667196955  0.6863133250858341  1.0000
  H   H7        1.0  0.31494156180072963  0.8793379402339025  0.2772303162384376  1.0000
  H   H8        1.0  0.6850742144413572  0.12065473078003204  0.7227602382794276  1.0000
  H   H9        1.0  0.4480372354483252  0.8060473903163512  0.07838212978554542  1.0000
  H   H10       1.0  0.5519750555345624  0.1939427679755993  0.9216096624760226  1.0000
  C   C1        1.0  0.15561992930402374  0.3911469302198113  0.0296654328398702  1.0000
  C   C2        1.0  0.8443898026742643  0.6088575090795627  0.9703451376854703  1.0000
  C   C3        1.0  0.9682165507800558  0.5017308465131478  0.8909439348592586  1.0000
  C   C4        1.0  0.03179256618341949  0.49827737899727254  0.10906511467047153  1.0000
  C   C5        1.0  0.12275281284764356  0.4020552670677588  0.920433557912368  1.0000
  C   C6        1.0  0.8772477144463907  0.5979582119270146  0.07956866242005133  1.0000
  C   C7        1.0  0.3704791366599878  0.5069451278591758  0.4401206983224029  1.0000
  C   C8        1.0  0.629498879716877  0.4930637264993576  0.5598746713382569  1.0000
  C   C9        1.0  0.4564052933414898  0.6133468938333235  0.5717646636328341  1.0000
  C   C10       1.0  0.543571832789908  0.38665942419376614  0.4282322550190685  1.0000
  C   C11       1.0  0.33190615307778165  0.6163794316653579  0.5117688929132386  1.0000
  C   C12       1.0  0.668083379146523  0.3836379279782632  0.48823056143337606  1.0000
  C   C13       1.0  0.05095847737403859  0.9791059205585596  0.046655287696047806  1.0000
  C   C14       1.0  0.949049713334837  0.02088551122245259  0.953336221313606  1.0000
  C   C15       1.0  0.06491307332418476  0.9834990062528559  0.23084506498460666  1.0000
  C   C16       1.0  0.9351098795406256  0.016497437732894603  0.7691432447972206  1.0000
  C   C17       1.0  0.23944349384083105  0.905458219120028  0.2112995511096614  1.0000
  C   C18       1.0  0.7605719294243796  0.09454444546920368  0.7886897273918976  1.0000
  C   C19       1.0  0.31246044490686137  0.8668440388151736  0.10264037008712988  1.0000
  C   C20       1.0  0.6875449907230333  0.13315604250018248  0.8973530973761896  1.0000
  N   N1        1.0  0.970455168994931  0.020818248759255194  0.14951039708186897  1.0000
  N   N2        1.0  0.02955067224726805  0.9791792700226618  0.8504851893672482  1.0000
  N   N3        1.0  0.21833258987089016  0.9029556659134242  0.021242215853632673  1.0000
  N   N4        1.0  0.7816809936715925  0.0970344373819643  0.9787509751440241  1.0000
  Cl  Cl1       1.0  0.26130229042388464  0.28874108805286613  0.8257166733096071  1.0000
  Cl  Cl2       1.0  0.7386974012836586  0.711253336930781  0.17429724320800952  1.0000
  Cl  Cl3       1.0  0.13420056331979419  0.7462326170817801  0.5297432510834383  1.0000
  Cl  Cl4       1.0  0.865784825889598  0.25377867139272325  0.4702525908171539  1.0000
  O   O1        1.0  0.4675563987060014  0.4989739244151323  0.1338404453535916  1.0000
  O   O2        1.0  0.5324467487125516  0.5010157838105583  0.8661655892600566  1.0000
  O   O3        1.0  0.24629359444481477  0.1636658181362947  0.35219438725712143  1.0000
  O   O4        1.0  0.7536983221160724  0.836328764059381  0.6478161092932241  1.0000
  O   O5        1.0  0.2817681164072141  0.2966820928994309  0.07283362064288922  1.0000
  O   O6        1.0  0.7182194970735054  0.7033150440520258  0.9271755331626468  1.0000
  O   O7        1.0  0.9183817384835959  0.5115832063227614  0.7992012289311604  1.0000
  O   O8        1.0  0.0816169523858932  0.48841774017272127  0.20080407515580842  1.0000
  O   O9        1.0  0.27026069047688844  0.4975580978733233  0.38040678188533417  1.0000
  O   O10       1.0  0.7297228852597896  0.502447829992711  0.6196004454131555  1.0000
  O   O11       1.0  0.43804190358795136  0.7057278245665299  0.6391792220912295  1.0000
  O   O12       1.0  0.5619362595260496  0.2942792590177773  0.3608312956685112  1.0000
  O   O13       1.0  0.5992952094253281  0.12462657335324683  0.18849407368026055  1.0000
  O   O14       1.0  0.40070953216888916  0.8753696327748343  0.8115036597502867  1.0000
