data_image0
_chemical_formula_structural       Zn4H32C60S8N4O16
_chemical_formula_sum              "Zn4 H32 C60 S8 N4 O16"
_cell_length_a       9.3318037439784
_cell_length_b       14.10714095562688
_cell_length_c       14.0157
_cell_angle_alpha    101.65289931001469
_cell_angle_beta     101.50597473171025
_cell_angle_gamma    101.29392895478459

_space_group_name_H-M_alt    "P 1"
_space_group_IT_number       1

loop_
  _space_group_symop_operation_xyz
  'x, y, z'

loop_
  _atom_site_type_symbol
  _atom_site_label
  _atom_site_symmetry_multiplicity
  _atom_site_fract_x
  _atom_site_fract_y
  _atom_site_fract_z
  _atom_site_occupancy
  Zn  Zn1       1.0  0.9076964907015606  0.27474748949993  0.8257228728880437  1.0000
  Zn  Zn2       1.0  0.5922085034119177  0.1761471828983048  0.7246522654851335  1.0000
  Zn  Zn3       1.0  0.0923053654965642  0.7252523665296735  0.1742764881805314  1.0000
  Zn  Zn4       1.0  0.4077914432291223  0.8238534198657206  0.2753469937875225  1.0000
  H   H1        1.0  0.061089224762398  0.49054178982077457  0.8968284361096013  1.0000
  H   H2        1.0  0.43751110875454896  0.1029164315630595  0.5082906622414711  1.0000
  H   H3        1.0  0.9389126314357268  0.509458066208829  0.10317306541574571  1.0000
  H   H4        1.0  0.5624899314673897  0.897084171200966  0.4917094557545455  1.0000
  H   H5        1.0  0.3193872861808984  0.5959284188531058  0.96999338412968  1.0000
  H   H6        1.0  0.1788829645641741  0.029376532176947  0.4028782628152641  1.0000
  H   H7        1.0  0.680613476436335  0.4040714371764977  0.03000868564348744  1.0000
  H   H8        1.0  0.8211180756577647  0.9706240705870854  0.5971225686663432  1.0000
  H   H9        1.0  0.46809971521950894  0.323837063693631  0.9758126271322285  1.0000
  H   H10       1.0  0.0336032868300578  0.0245414267919486  0.6777690619039802  1.0000
  H   H11       1.0  0.5319007697930259  0.6761620456015507  0.02418925396132466  1.0000
  H   H12       1.0  0.9663985693680672  0.9754584292376549  0.32223101265018533  1.0000
  H   H13       1.0  0.20195898601173923  0.23095375582984456  0.9037820067593858  1.0000
  H   H14       1.0  0.30000051149769996  0.0971613493696779  0.7705813140772975  1.0000
  H   H15       1.0  0.7980414990007887  0.7690453534653372  0.09621844736298611  1.0000
  H   H16       1.0  0.6999999735148279  0.9028377599255037  0.2294191400450743  1.0000
  H   H17       1.0  0.08444905020696318  0.2733861926479051  0.5276232541707842  1.0000
  H   H18       1.0  0.4168766841184208  0.4742353502389706  0.7268479878231633  1.0000
  H   H19       1.0  0.9155457061343242  0.7266151568505421  0.4723776080494276  1.0000
  H   H20       1.0  0.5831218913370293  0.525764505790633  0.2731537914744707  1.0000
  H   H21       1.0  0.03382381737655749  0.2548918212084956  0.3303593049981615  1.0000
  H   H22       1.0  0.4663224545209133  0.669694578769203  0.7449569021306744  1.0000
  H   H23       1.0  0.9661753132883032  0.7451095282899516  0.6696421381731241  1.0000
  H   H24       1.0  0.5336780304916147  0.33030453052597153  0.25504426547728803  1.0000
  H   H25       1.0  0.4565148152249137  0.074351599703256  0.9997346429131895  1.0000
  H   H26       1.0  0.04316130207955377  0.998267432169655  0.9258942738041256  1.0000
  H   H27       1.0  0.5434859473923197  0.9256482563263475  0.00026314594643403103  1.0000
  H   H28       1.0  0.9568394605376795  0.0017324238599485  0.07410636899786031  1.0000
  H   H29       1.0  0.5259843235095829  0.05976339602738531  0.1880872862620606  1.0000
  H   H30       1.0  0.9748573108380397  0.8116114557450089  0.9405755106929448  1.0000
  H   H31       1.0  0.4740158838982397  0.9402349665333747  0.8119094117527368  1.0000
  H   H32       1.0  0.025143451779193488  0.1883884002845946  0.05942513210904821  1.0000
  C   C1        1.0  0.15559595559834352  0.4573233090406178  0.9158794908195702  1.0000
  C   C2        1.0  0.3436859133547969  0.0841860920461741  0.5421228790057456  1.0000
  C   C3        1.0  0.8444048070188899  0.5426765469889858  0.08412115198241575  1.0000
  C   C4        1.0  0.6563151268671419  0.9158145107178512  0.457877238990264  1.0000
  C   C5        1.0  0.3018653227775516  0.515458077292763  0.9562811035793218  1.0000
  C   C6        1.0  0.19730243870200329  0.0434442619604098  0.48396310200095644  1.0000
  C   C7        1.0  0.6981354398396817  0.4845417787368405  0.043721679679443105  1.0000
  C   C8        1.0  0.8026975079390438  0.9565563408036155  0.51603687075729  1.0000
  C   C9        1.0  0.42114674533841867  0.4700954546012284  0.9790060801599623  1.0000
  C   C10       1.0  0.07888080876353598  0.0209996654265368  0.530053174525314  1.0000
  C   C11       1.0  0.5788551108597061  0.5299044014283751  0.020996848336565694  1.0000
  C   C12       1.0  0.9211202314583957  0.9790009373374886  0.46994694347070265  1.0000
  C   C13       1.0  0.38360019635940995  0.3654682544764682  0.9600620635191819  1.0000
  C   C14       1.0  0.11735858182183279  0.0401795390657043  0.635485234352757  1.0000
  C   C15       1.0  0.6164016598387078  0.6345316015531353  0.03993872452057449  1.0000
  C   C16       1.0  0.8826421807953934  0.9598203169638992  0.3645146949636385  1.0000
  C   C17       1.0  0.23461686111320293  0.3121880067042966  0.9195870051403077  1.0000
  C   C18       1.0  0.2664361778533149  0.0810819170522876  0.6887627967371232  1.0000
  C   C19       1.0  0.7653849950849222  0.6878118493253071  0.0804144963850321  1.0000
  C   C20       1.0  0.7335645847639185  0.9189179389773159  0.31123784606487  1.0000
  C   C21       1.0  0.8178589774928327  0.2205539855291718  0.6052990966119225  1.0000
  C   C22       1.0  0.683526462523055  0.3962075769742768  0.7794928397392696  1.0000
  C   C23       1.0  0.1821355012437564  0.7794466172348535  0.39469872298630554  1.0000
  C   C24       1.0  0.3164718353276896  0.6037915323209049  0.2205080373931594  1.0000
  C   C25       1.0  0.8428257826403182  0.2187252329287332  0.5046129216467606  1.0000
  C   C26       1.0  0.6587975814552536  0.4965978059863759  0.7810739509605115  1.0000
  C   C27       1.0  0.15717225444365118  0.7812761165697142  0.4953862358299831  1.0000
  C   C28       1.0  0.3412026259525689  0.5034005565743769  0.21892631448223915  1.0000
  C   C29       1.0  0.9740362787398806  0.2469868906130444  0.4746462313009374  1.0000
  C   C30       1.0  0.527331848107309  0.5266030885469775  0.7529265443079964  1.0000
  C   C31       1.0  0.025959293577599844  0.753013712150981  0.5253524470206514  1.0000
  C   C32       1.0  0.47266809853373093  0.4733975142170479  0.24707414193584754  1.0000
  C   C33       1.0  0.9466406801861069  0.23757280974993483  0.3699958026975665  1.0000
  C   C34       1.0  0.5540939111069179  0.6304783271083922  0.7621859181541454  1.0000
  C   C35       1.0  0.05335898885023476  0.7624270462796687  0.6300039813810657  1.0000
  C   C36       1.0  0.44590575792942383  0.3695215289212115  0.23781386592448683  1.0000
  C   C37       1.0  0.7940876297488016  0.20136515107694214  0.32098472926602994  1.0000
  C   C38       1.0  0.7065564283695807  0.6792886226281141  0.7981802555475355  1.0000
  C   C39       1.0  0.20591148407812904  0.7986332114838177  0.6790139639677691  1.0000
  C   C40       1.0  0.2934415918764657  0.3207097399326457  0.20181971941968874  1.0000
  C   C41       1.0  0.7220843624622901  0.1846838508150981  0.21591901030122074  1.0000
  C   C42       1.0  0.7778426474627479  0.7837642356651244  0.8148754819566549  1.0000
  C   C43       1.0  0.27791284180756287  0.8153152584800836  0.7840788676510756  1.0000
  C   C44       1.0  0.2221575599450816  0.2162341268956283  0.1851247834861027  1.0000
  C   C45       1.0  0.6581986760404986  0.1951007960074875  0.03865095529284448  1.0000
  C   C46       1.0  0.8404836388893032  0.9603706602332027  0.8047462609409451  1.0000
  C   C47       1.0  0.3418023641814401  0.8048998067565449  0.961347735731984  1.0000
  C   C48       1.0  0.1595165685185194  0.0396277023275573  0.19525329101621483  1.0000
  C   C49       1.0  0.5528897353535455  0.1223823044860026  0.05819566336086269  1.0000
  C   C50       1.0  0.9464736608426918  0.9405149919417682  0.8775613854313421  1.0000
  C   C51       1.0  0.4471113048683931  0.8776182982780227  0.9418023141783821  1.0000
  C   C52       1.0  0.0535271017745416  0.0594848640878354  0.1224385438850533  1.0000
  C   C53       1.0  0.589774655187604  0.11521813443756201  0.158572002117765  1.0000
  C   C54       1.0  0.9103356074409774  0.8407796490181101  0.8846717660006506  1.0000
  C   C55       1.0  0.4102247362440393  0.8847809748576196  0.8414261663100646  1.0000
  C   C56       1.0  0.08966515517625599  0.1592202070114936  0.11532816331574482  1.0000
  C   C57       1.0  0.6746896592356819  0.21218234591972876  0.9410217688549807  1.0000
  C   C58       1.0  0.8237826353814413  0.057842048358566  0.7879033403881124  1.0000
  C   C59       1.0  0.32531219696244307  0.7878175101098748  0.05897687872800362  1.0000
  C   C60       1.0  0.17621566246931047  0.9421570609366157  0.21209539628753765  1.0000
  S   S1        1.0  0.6862061329293638  0.1804595741876227  0.40471293921434187  1.0000
  S   S2        1.0  0.8150381713288012  0.5959478339480881  0.8190874578644768  1.0000
  S   S3        1.0  0.3137897001548922  0.8195387883731371  0.5952846048205701  1.0000
  S   S4        1.0  0.18496231368373367  0.4040512753470935  0.18091228277229734  1.0000
  S   S5        1.0  0.7986340387976866  0.2581781994014491  0.14533067017070075  1.0000
  S   S6        1.0  0.7001987924266402  0.8542529782013446  0.7412475179596214  1.0000
  S   S7        1.0  0.20136535263394958  0.7418209098937325  0.8546682117427197  1.0000
  S   S8        1.0  0.2998027861667794  0.1457461310938371  0.2587530814005135  1.0000
  N   N1        1.0  0.1218530601477426  0.3569472679825338  0.8971162286307008  1.0000
  N   N2        1.0  0.378217004815717  0.1036661529231395  0.6432389884947584  1.0000
  N   N3        1.0  0.8781487960503822  0.6430525880470626  0.10288455940905547  1.0000
  N   N4        1.0  0.6217837578015164  0.896333703106464  0.3567616543072277  1.0000
  O   O1        1.0  0.9317736574950929  0.2429448171846289  0.679790050655143  1.0000
  O   O2        1.0  0.5692344152696974  0.3225877770049621  0.756563787711592  1.0000
  O   O3        1.0  0.06822165405560544  0.757058025782662  0.3202083349819489  1.0000
  O   O4        1.0  0.43076553137134965  0.6774128257590633  0.243436898532245  1.0000
  O   O5        1.0  0.8221789278180367  0.3930205144595008  0.8012804584030846  1.0000
  O   O6        1.0  0.6789031516682658  0.1994624717686833  0.6076634032066651  1.0000
  O   O7        1.0  0.17782183479919667  0.6069793415701028  0.19872018439890132  1.0000
  O   O8        1.0  0.3210918654398042  0.8005366375264984  0.3923348977556885  1.0000
  O   O9        1.0  0.7963886299337232  0.2726767949466335  0.9416321422464337  1.0000
  O   O10       1.0  0.7021878803162735  0.0577375055394356  0.7269326927524702  1.0000
  O   O11       1.0  0.20361459744999166  0.7273238078173918  0.05836826622511639  1.0000
  O   O12       1.0  0.29781151111536264  0.9422616037557461  0.27306690264654077  1.0000
  O   O13       1.0  0.5680416807606434  0.1638193443190161  0.8639202752900418  1.0000
  O   O14       1.0  0.9304559107977467  0.1342628491462747  0.837129291288207  1.0000
  O   O15       1.0  0.4319629178086686  0.8361820051794311  0.136079753613302  1.0000
  O   O16       1.0  0.06954375823859489  0.8657370068833289  0.16286977930483465  1.0000
