data_image0
_chemical_formula_structural       Zn4H55C90N19O3
_chemical_formula_sum              "Zn4 H55 C90 N19 O3"
_cell_length_a       18.857618410577793
_cell_length_b       19.554373372951353
_cell_length_c       20.49367293816825
_cell_angle_alpha    107.9667004031498
_cell_angle_beta     104.51390885464372
_cell_angle_gamma    113.61114365153816

_space_group_name_H-M_alt    "P 1"
_space_group_IT_number       1

loop_
  _space_group_symop_operation_xyz
  'x, y, z'

loop_
  _atom_site_type_symbol
  _atom_site_label
  _atom_site_symmetry_multiplicity
  _atom_site_fract_x
  _atom_site_fract_y
  _atom_site_fract_z
  _atom_site_occupancy
  Zn  Zn1       1.0  0.1172167275113694  0.09554710795977427  0.5015442198073217  1.0000
  Zn  Zn2       1.0  0.8879570801967133  0.8854847544124521  0.5012732881246293  1.0000
  Zn  Zn3       1.0  0.003246523684346355  0.8877425885978738  0.40229482343924877  1.0000
  Zn  Zn4       1.0  0.010811078778360197  0.08753699132309119  0.6054998750962781  1.0000
  H   H1        1.0  0.1955389984196501  0.14071590766477726  0.3853284861770376  1.0000
  H   H2        1.0  0.8290087005789886  0.496055025662663  0.5753062084842497  1.0000
  H   H3        1.0  0.7146378598710041  0.858115602351347  0.5316931957975796  1.0000
  H   H4        1.0  0.8458140911052682  0.3808083581263943  0.5881136210720683  1.0000
  H   H5        1.0  0.9002267618982387  0.2847720842516778  0.5535788888267916  1.0000
  H   H6        1.0  0.1180575913047335  0.36208083813886566  0.500126632606559  1.0000
  H   H7        1.0  0.16492348615358307  0.6139539093730804  0.48315083083075905  1.0000
  H   H8        1.0  0.2494608492194032  0.8412014662374359  0.5455925104486427  1.0000
  H   H9        1.0  0.38886309909615596  0.1097369466740901  0.6869110306256374  1.0000
  H   H10       1.0  0.5473149930927549  0.18998967937729813  0.7470704985348036  1.0000
  H   H11       1.0  0.6812262675640357  0.1974717713937295  0.7482333933828258  1.0000
  H   H12       1.0  0.8492464233649244  0.7147808613919365  0.5092247303595486  1.0000
  H   H13       1.0  0.8938279115213918  0.8998043442283289  0.2633521864578229  1.0000
  H   H14       1.0  0.6156443855118993  0.8574790619696486  0.5652465281809853  1.0000
  H   H15       1.0  0.4631147915197004  0.7725786195486818  0.5346128784406688  1.0000
  H   H16       1.0  0.3283708288253988  0.7659371711305311  0.5293327953808102  1.0000
  H   H17       1.0  0.22191526133916986  0.4072618743799552  0.8277591643663058  1.0000
  H   H18       1.0  0.7808538086226093  0.8916411019423265  0.16159188786122777  1.0000
  H   H19       1.0  0.6190357223829537  0.8118114737501472  0.2714148286537181  1.0000
  H   H20       1.0  0.4279418404841451  0.6764071396268605  0.023018243134991685  1.0000
  H   H21       1.0  0.475045380549993  0.5966124400965994  0.8085097507982227  1.0000
  H   H22       1.0  0.654400789778137  0.8121755905261094  0.039432508101235476  1.0000
  H   H23       1.0  0.12310549082884847  0.8435114312764752  0.5049660709083524  1.0000
  H   H24       1.0  0.3741837171847279  0.45338058840061274  0.7036578418872425  1.0000
  H   H25       1.0  0.919418602652286  0.17912026351923055  0.5657518880656341  1.0000
  H   H26       1.0  0.5373674530840163  0.6905832764060661  0.9339231451793211  1.0000
  H   H27       1.0  0.49251326205230567  0.7361253153037592  0.14975041044691303  1.0000
  H   H28       1.0  0.1881145141003415  0.9042373169662241  0.21344713975808116  1.0000
  H   H29       1.0  0.2362989318230433  0.08772783139027499  0.8338105356865384  1.0000
  H   H30       1.0  0.04365349102715729  0.8249028817671655  0.7323225068747802  1.0000
  H   H31       1.0  0.18097001736192905  0.8978641510279104  0.9892609791948248  1.0000
  H   H32       1.0  0.23092535247734258  0.1453138781433196  0.16047575847437665  1.0000
  H   H33       1.0  0.2879338915102779  0.08826026852499072  0.9565304131860798  1.0000
  H   H34       1.0  0.1539404879774011  0.10120294961222949  0.7388658372113568  1.0000
  H   H35       1.0  0.19089570773527237  0.1365544723104506  0.2644936033461391  1.0000
  H   H36       1.0  0.2522086472371186  0.0879223129089866  0.0534108860146389  1.0000
  H   H37       1.0  0.22582289349022477  0.9119330503754667  0.10824360134009223  1.0000
  H   H38       1.0  0.09687718368243015  0.825357956615896  0.8550312407348528  1.0000
  H   H39       1.0  0.8816032719933561  0.12663728539580177  0.677141932956843  1.0000
  H   H40       1.0  0.07408542694192007  0.8701729270672941  0.26434928996885537  1.0000
  H   H41       1.0  0.2832747464022489  0.300852824357584  0.6143893525889084  1.0000
  H   H42       1.0  0.7427973905077182  0.4708147429940865  0.4435289193018903  1.0000
  H   H43       1.0  0.7111687303441556  0.5468593758396593  0.4692767764373612  1.0000
  H   H44       1.0  0.761176067984138  0.5443856504139999  0.405275555326284  1.0000
  H   H45       1.0  0.9873445354804173  0.82983361074573  0.6176126635642162  1.0000
  H   H46       1.0  0.2544315986204211  0.4494175835201304  0.9509069897500665  1.0000
  H   H47       1.0  0.1862951403968083  0.4795428585770338  0.904740899510884  1.0000
  H   H48       1.0  0.2514264045548202  0.5389697068149814  0.005324416770385193  1.0000
  H   H49       1.0  0.6867098446438648  0.9593209784383063  0.3532064173966489  1.0000
  H   H50       1.0  0.7675426978705816  0.0157505425222197  0.4497756512611844  1.0000
  H   H51       1.0  0.6592228439471198  0.9408308024731439  0.42652040344353986  1.0000
  H   H52       1.0  0.27319372578487133  0.11597891690454529  0.6264798476641573  1.0000
  H   H53       1.0  0.13554286222422715  0.2779483574368766  0.7459873441148872  1.0000
  H   H54       1.0  0.0015252198642342638  0.7141735914649912  0.3829663732290953  1.0000
  H   H55       1.0  0.06919744906024047  0.6715682404098118  0.46227850753193417  1.0000
  C   C1        1.0  0.16119301831049176  0.07312762672828652  0.3649139564173041  1.0000
  C   C2        1.0  0.22546583277587473  0.04960419385152899  0.5908456940106248  1.0000
  C   C3        1.0  0.16334607412174756  0.2698305532348326  0.7058435533586334  1.0000
  C   C4        1.0  0.7664540443888938  0.9232458716128205  0.5657656543776852  1.0000
  C   C5        1.0  0.9630906281845454  0.725004923592827  0.4118519979123717  1.0000
  C   C6        1.0  0.2348336307716892  0.3293535363332936  0.7037482146467084  1.0000
  C   C7        1.0  0.9339045737362001  0.6900639827625737  0.45726458696544386  1.0000
  C   C8        1.0  0.2312333968497597  0.978079032631598  0.5829990658422802  1.0000
  C   C9        1.0  0.09141079186362322  0.9623419084882342  0.7065760390535089  1.0000
  C   C10       1.0  0.02807417561666628  0.6319656062368962  0.48076616482033785  1.0000
  C   C11       1.0  0.9561729398775825  0.6365513157299459  0.4833029311967465  1.0000
  C   C12       1.0  0.7672048433683398  0.9935634412861205  0.613370255066556  1.0000
  C   C13       1.0  0.9079044196035327  0.5888998605787563  0.5126466142355142  1.0000
  C   C14       1.0  0.9260447956581712  0.5333928874786195  0.5333624225502261  1.0000
  C   C15       1.0  0.993958782686704  0.5237247457485167  0.522851252539148  1.0000
  C   C16       1.0  0.8668187424079574  0.9013845230406116  0.30443045030290955  1.0000
  C   C17       1.0  0.04795280035249041  0.576696124930386  0.4996005898317648  1.0000
  C   C18       1.0  0.8757969586695538  0.4831842477728258  0.5611791571142177  1.0000
  C   C19       1.0  0.8855217007700064  0.4199920821276208  0.5684821811120955  1.0000
  C   C20       1.0  0.9462917286871929  0.40207877996535046  0.5490426683290864  1.0000
  C   C21       1.0  0.004486509029682297  0.45851725624608963  0.5310680759344422  1.0000
  C   C22       1.0  0.0693611619294217  0.44520720060368996  0.5169195846378116  1.0000
  C   C23       1.0  0.785380492110356  0.8882657605323983  0.296234372376695  1.0000
  C   C24       1.0  0.1307985079661761  0.5073173303827685  0.5042175712743244  1.0000
  C   C25       1.0  0.11924935125377793  0.5696357752534309  0.4950413782166692  1.0000
  C   C26       1.0  0.9476475926954607  0.32943546449072864  0.5432794057823216  1.0000
  C   C27       1.0  0.005413866355667073  0.3114404244975546  0.5211065338375603  1.0000
  C   C28       1.0  0.9567311495241813  0.1748735801151611  0.5336148057884172  1.0000
  C   C29       1.0  0.0690340103128051  0.37216418272139856  0.5123517827113417  1.0000
  C   C30       1.0  0.3098301697018042  0.9010519519399194  0.582271674551805  1.0000
  C   C31       1.0  0.30919750444138566  0.9759972368531393  0.6115231036789623  1.0000
  C   C32       1.0  0.38781058288318354  0.05131374959051271  0.6609359047003665  1.0000
  C   C33       1.0  0.4660746509663198  0.055094441930940284  0.6732094486572677  1.0000
  C   C34       1.0  0.9994174933340149  0.2311396731387205  0.5085580383817431  1.0000
  C   C35       1.0  0.4659457987782075  0.9800177888733969  0.6365871044619524  1.0000
  C   C36       1.0  0.3865141467605823  0.9014477358340611  0.5938469878110695  1.0000
  C   C37       1.0  0.5466143506821269  0.1329145239192471  0.7163871779993656  1.0000
  C   C38       1.0  0.6209759766501647  0.13712188830222516  0.717111985937045  1.0000
  C   C39       1.0  0.6212176653762356  0.06334208529841587  0.6758106189862474  1.0000
  C   C40       1.0  0.7878764662303724  0.896378591101424  0.3680568922670701  1.0000
  C   C41       1.0  0.5432688784823368  0.9840592974929548  0.6384019542827417  1.0000
  C   C42       1.0  0.5424479252307391  0.909139537961991  0.5991931242828201  1.0000
  C   C43       1.0  0.4631298774570778  0.8300827261274788  0.5622551131143253  1.0000
  C   C44       1.0  0.38849932274084137  0.8265401093119278  0.5595047821200723  1.0000
  C   C45       1.0  0.23846017304109068  0.28142559781128534  0.6387610000644699  1.0000
  C   C46       1.0  0.6955470521410804  0.06682741672889848  0.668430546594486  1.0000
  C   C47       1.0  0.6944833915743232  0.9927673303656447  0.6271152103117785  1.0000
  C   C48       1.0  0.6178588872992774  0.9154351027322672  0.5956907433635975  1.0000
  C   C49       1.0  0.29155073814443005  0.41803101463776215  0.7591153787836475  1.0000
  C   C50       1.0  0.27712174387931293  0.4490927577556149  0.8229993165873069  1.0000
  C   C51       1.0  0.33250478311923354  0.5309314920887829  0.8811786444091041  1.0000
  C   C52       1.0  0.037034830518052765  0.19213030063460926  0.47145413851917073  1.0000
  C   C53       1.0  0.4085523632560496  0.586338846992206  0.879413250472922  1.0000
  C   C54       1.0  0.418484562198813  0.5551252715867109  0.8124280313687179  1.0000
  C   C55       1.0  0.3621357425791344  0.47388617910411296  0.753408487500991  1.0000
  C   C56       1.0  0.8842062095003983  0.7243049746911792  0.4750270506881904  1.0000
  C   C57       1.0  0.6459201859618844  0.8119911445715856  0.09016303964221346  1.0000
  C   C58       1.0  0.7176921869691172  0.8569281998710849  0.15953798100433408  1.0000
  C   C59       1.0  0.6274990778804792  0.8143784556125409  0.22142149818053264  1.0000
  C   C60       1.0  0.5560556130588595  0.7709540874777331  0.15246101508888196  1.0000
  C   C61       1.0  0.5629752118727679  0.764626172951118  0.08417680450790502  1.0000
  C   C62       1.0  0.47986509697263807  0.6650266958764347  0.9436150168249712  1.0000
  C   C63       1.0  0.48561922222233983  0.7022667164040753  0.014317755278689571  1.0000
  C   C64       1.0  0.8511292255321906  0.0603945255089684  0.6389439546516016  1.0000
  C   C65       1.0  0.710811945598678  0.8562478460563053  0.22647514006622774  1.0000
  C   C66       1.0  0.1833939838163872  0.018102396182847296  0.2450988773431959  1.0000
  C   C67       1.0  0.14896166602425603  0.910748510166492  0.528464150070299  1.0000
  C   C68       1.0  0.19576342455020046  0.9564552489201855  0.20094405863481757  1.0000
  C   C69       1.0  0.21735169710908045  0.960976799996004  0.14181240783921115  1.0000
  C   C70       1.0  0.2275797413005165  0.0274901973462107  0.1240615408413532  1.0000
  C   C71       1.0  0.22196183998533314  0.09242708588508458  0.1722976539346206  1.0000
  C   C72       1.0  0.199545688432778  0.08759714546295778  0.2309937272064317  1.0000
  C   C73       1.0  0.2337072259570264  0.030420949162362394  0.9076222422575667  1.0000
  C   C74       1.0  0.20446016756854854  0.030005488225455696  0.8382166774206752  1.0000
  C   C75       1.0  0.0978140096161581  0.8829933770651832  0.7810112108794057  1.0000
  C   C76       1.0  0.0998191693251157  0.9352212180203878  0.3037044763332801  1.0000
  C   C77       1.0  0.12780677072792176  0.8831057555352543  0.8503228541824939  1.0000
  C   C78       1.0  0.10602374189041798  0.0356502433415002  0.6996603255514132  1.0000
  C   C79       1.0  0.19278911653169917  0.9579209020350701  0.916395776625805  1.0000
  C   C80       1.0  0.23391353695460992  0.027983129274858194  0.054919227801043684  1.0000
  C   C81       1.0  0.2062961694792733  0.9592959005111013  0.9899847085822131  1.0000
  C   C82       1.0  0.13266688948628752  0.9575099313338952  0.7741564337017338  1.0000
  C   C83       1.0  0.1516833413566161  0.009327505126187  0.30180167440425265  1.0000
  C   C84       1.0  0.7591498075087557  0.5354405302376433  0.4554066227609326  1.0000
  C   C85       1.0  0.20374202714731376  0.5034174465361261  0.500600484734079  1.0000
  C   C86       1.0  0.7694679319434101  0.14804085330175099  0.7008427199185974  1.0000
  C   C87       1.0  0.24827420741267758  0.5030600328043064  0.9506449706620828  1.0000
  C   C88       1.0  0.7093503913203351  0.9556983154174147  0.4063195760461867  1.0000
  C   C89       1.0  0.02017591092182153  0.897297535848473  0.6377688889828335  1.0000
  C   C90       1.0  0.09021087433632857  0.21855363069825265  0.4357195247259682  1.0000
  N   N1        1.0  0.11875091715300813  0.03963976991656891  0.4013713612485432  1.0000
  N   N2        1.0  0.9119428270129718  0.9137297269108727  0.373816879251983  1.0000
  N   N3        1.0  0.9707322970286045  0.11019484458788749  0.5157280168046299  1.0000
  N   N4        1.0  0.8634062041234215  0.9110539612504593  0.4135000535566036  1.0000
  N   N5        1.0  0.019504167764594585  0.11980739535443517  0.47708722202092696  1.0000
  N   N6        1.0  0.8952456826088026  0.03157927877136759  0.6089138282738489  1.0000
  N   N7        1.0  0.08023108577859249  0.9536072592129443  0.363195067076049  1.0000
  N   N8        1.0  0.17446418257550528  0.20044636612114886  0.6054378978471604  1.0000
  N   N9        1.0  0.26443046202578546  0.5011957284758778  0.49922048772082656  1.0000
  N   N10       1.0  0.8288204503645674  0.21595056434497198  0.727149437215367  1.0000
  N   N11       1.0  0.13659161754069518  0.23943566091685392  0.40774977860262845  1.0000
  N   N12       1.0  0.8860327809654294  0.7768037369623568  0.44492679356885384  1.0000
  N   N13       1.0  0.09955625039479082  0.9403591592611633  0.5051232802707872  1.0000
  N   N14       1.0  0.04728616832552749  0.014863995577918796  0.6326735213012  1.0000
  N   N15       1.0  0.994493776159608  0.9300621299593386  0.5945279892860711  1.0000
  N   N16       1.0  0.14662847789250583  0.025638761311285  0.5435229866738354  1.0000
  N   N17       1.0  0.1277250650716226  0.19350266435193927  0.6473866104823996  1.0000
  N   N18       1.0  0.9352425528835296  0.7772288989430078  0.405129062438192  1.0000
  N   N19       1.0  0.8425090577336716  0.9462446637816767  0.5634970838555303  1.0000
  O   O1        1.0  0.8400806378620018  0.5955244678097883  0.5210539537340466  1.0000
  O   O2        1.0  0.3182942192436045  0.560394297332877  0.9434731222221444  1.0000
  O   O3        1.0  0.7264782748255952  0.8881112209942329  0.3937486674705113  1.0000
