data_image0
_chemical_formula_structural       Zn2H26C38N10O8
_chemical_formula_sum              "Zn2 H26 C38 N10 O8"
_cell_length_a       9.138320810946885
_cell_length_b       11.128764855060316
_cell_length_c       11.619216250925778
_cell_angle_alpha    84.70660046657841
_cell_angle_beta     68.87916713031895
_cell_angle_gamma    71.25984922987729

_space_group_name_H-M_alt    "P 1"
_space_group_IT_number       1

loop_
  _space_group_symop_operation_xyz
  'x, y, z'

loop_
  _atom_site_type_symbol
  _atom_site_label
  _atom_site_symmetry_multiplicity
  _atom_site_fract_x
  _atom_site_fract_y
  _atom_site_fract_z
  _atom_site_occupancy
  Zn  Zn1       1.0  0.40016896472477737  0.3048263439775596  0.3086312133364402  1.0000
  Zn  Zn2       1.0  0.5998394587380315  0.6951777442636385  0.6913673126174089  1.0000
  H   H1        1.0  0.9267997822950917  0.7279065050455458  0.05136089212818007  1.0000
  H   H2        1.0  0.07319480874771501  0.2720937922527611  0.9486387154510467  1.0000
  H   H3        1.0  0.37849441357652586  0.4298954974643578  0.8697174981889546  1.0000
  H   H4        1.0  0.6215001774662736  0.5701047998339492  0.13028210939027215  1.0000
  H   H5        1.0  0.03578211384389361  0.6327118494026395  0.6876947757843226  1.0000
  H   H6        1.0  0.9642073641008152  0.3672836943238238  0.31230680851098924  1.0000
  H   H7        1.0  0.13417254352459904  0.5975192224714547  0.3758324873718522  1.0000
  H   H8        1.0  0.8658267363105309  0.4024810798889789  0.6241657022687761  1.0000
  H   H9        1.0  0.0235375027689813  0.7272146503113674  0.1951280564114555  1.0000
  H   H10       1.0  0.976455810829421  0.2727799591619302  0.804870731130741  1.0000
  H   H11       1.0  0.38338803211794203  0.3707984261707793  0.048975937262476135  1.0000
  H   H12       1.0  0.6166167695043042  0.6291999717143499  0.9510224776236454  1.0000
  H   H13       1.0  0.5587170431201968  0.375811459347986  0.6807427007571222  1.0000
  H   H14       1.0  0.44127850302627536  0.624181202842543  0.31926333689735026  1.0000
  H   H15       1.0  0.6528392808051748  0.2638511800799961  0.4503667769986067  1.0000
  H   H16       1.0  0.3471571061444507  0.7361452758515342  0.549639523470418  1.0000
  H   H17       1.0  0.14651756298090382  0.47248915753500853  0.5621135318295458  1.0000
  H   H18       1.0  0.8534828767168392  0.5275140005166536  0.437883187326456  1.0000
  H   H19       1.0  0.820482572660822  0.09092492574679768  0.8754462860249886  1.0000
  H   H20       1.0  0.17952353107676083  0.9090734511119365  0.12455518089810622  1.0000
  H   H21       1.0  0.10206731894041345  0.9335969224070766  0.7789101858255806  1.0000
  H   H22       1.0  0.8979348114178406  0.06639670771834011  0.2210920516985411  1.0000
  H   H23       1.0  0.2681384015212202  0.9666845060207548  0.3266196505457159  1.0000
  H   H24       1.0  0.7318621232789937  0.03332148973765921  0.673378507501539  1.0000
  H   H25       1.0  0.14696679707734  0.7876759464619668  0.39604497709618874  1.0000
  H   H26       1.0  0.8530366979024675  0.21233103015367755  0.6039478893834485  1.0000
  C   C1        1.0  0.013371256757437777  0.66808465085969  0.9706883382740799  1.0000
  C   C2        1.0  0.9866237507827617  0.33191469166989424  0.029312090897185887  1.0000
  C   C3        1.0  0.1590581925372945  0.5776151554529179  0.974465500743058  1.0000
  C   C4        1.0  0.8409388403396179  0.4223851276574989  0.02553595275808358  1.0000
  C   C5        1.0  0.2653354427461707  0.5021328069249051  0.8693686491188259  1.0000
  C   C6        1.0  0.7346552924990845  0.4978655757738436  0.13063401958308435  1.0000
  C   C7        1.0  0.22044906592207522  0.5209236379648914  0.7650494976056236  1.0000
  C   C8        1.0  0.7795452508760619  0.4790747373844865  0.23495381090314993  1.0000
  C   C9        1.0  0.07311669537047277  0.6147204841552495  0.7686432170941445  1.0000
  C   C10       1.0  0.9268739222930051  0.3852750664097259  0.2313571610861159  1.0000
  C   C11       1.0  0.17296447528588027  0.5702109464448881  0.2793226029697138  1.0000
  C   C12       1.0  0.8270328441711712  0.4297884041887485  0.7206762656018527  1.0000
  C   C13       1.0  0.11173968510261999  0.6342521424425698  0.19186420236388102  1.0000
  C   C14       1.0  0.8882533945388076  0.365746242787246  0.8081377573687334  1.0000
  C   C15       1.0  0.30145175777327887  0.4512912134431986  0.11074171398772846  1.0000
  C   C16       1.0  0.6985514226741784  0.5487081435180983  0.8892553821605844  1.0000
  C   C17       1.0  0.4883900692071632  0.3779866410971735  0.6225640555662011  1.0000
  C   C18       1.0  0.5116058486219189  0.6220079263233274  0.37744083604993506  1.0000
  C   C19       1.0  0.5339863410714186  0.3244829195939545  0.5084704309954661  1.0000
  C   C20       1.0  0.4660080082060246  0.675515450182445  0.49153372914371113  1.0000
  C   C21       1.0  0.27172380991925127  0.4315994186394789  0.561476327611139  1.0000
  C   C22       1.0  0.7282782509532807  0.5684027803360153  0.4385217102826717  1.0000
  C   C23       1.0  0.8435457349085097  0.0881540472352995  0.053376765845428054  1.0000
  C   C24       1.0  0.15645764041482824  0.911845276288098  0.9466254400853201  1.0000
  C   C25       1.0  0.9009761558940639  0.050950495919295194  0.9286671937801286  1.0000
  C   C26       1.0  0.09902829418941665  0.9490488455885853  0.071332102774761  1.0000
  C   C27       1.0  0.056594479485745676  0.9638333266484483  0.8754102495064303  1.0000
  C   C28       1.0  0.9434076385370388  0.0361631579026707  0.12459087201771989  1.0000
  C   C29       1.0  0.6768021894978773  0.1845330818155375  0.10804868946893714  1.0000
  C   C30       1.0  0.32320392204808  0.8154709983216222  0.8919513970846182  1.0000
  C   C31       1.0  0.0673841322863211  0.0998997303874205  0.4609656683657164  1.0000
  C   C32       1.0  0.932621751904435  0.90010438876061  0.5390284567750001  1.0000
  C   C33       1.0  0.15090452406892754  0.9798905116275093  0.4024050370288847  1.0000
  C   C34       1.0  0.8491036070800533  0.020113626770530902  0.5975858242513183  1.0000
  C   C35       1.0  0.08367890599070175  0.8810181261180151  0.4413828246931786  1.0000
  C   C36       1.0  0.916332467507864  0.1189840941277041  0.5586106740626207  1.0000
  C   C37       1.0  0.14114324229036163  0.20600891364926344  0.4203217486017223  1.0000
  C   C38       1.0  0.8588597120084811  0.7939999223469698  0.579677139367476  1.0000
  N   N1        1.0  0.9718318743110428  0.6857154593486712  0.8699217874684848  1.0000
  N   N2        1.0  0.028162761546546667  0.31428197795094803  0.1300797877411171  1.0000
  N   N3        1.0  0.291578364835992  0.45686556933554096  0.22702335290463085  1.0000
  N   N4        1.0  0.7084205511249023  0.543138531073332  0.7729746024047941  1.0000
  N   N5        1.0  0.19365281399856119  0.5577390070690456  0.08515633124061851  1.0000
  N   N6        1.0  0.8063425450803973  0.44225939183779434  0.9148432162618791  1.0000
  N   N7        1.0  0.39805922900169577  0.3589554723794493  0.47174893653744476  1.0000
  N   N8        1.0  0.6019424277089128  0.6410448269390586  0.5282493957642841  1.0000
  N   N9        1.0  0.32158137733046027  0.44640421849697276  0.655607630002578  1.0000
  N   N10       1.0  0.6784156678819215  0.5535932101877421  0.34439493949853534  1.0000
  O   O1        1.0  0.633941112128852  0.21447549756835127  0.22398530789383395  1.0000
  O   O2        1.0  0.3660653756268034  0.7855219300946529  0.7760161289908963  1.0000
  O   O3        1.0  0.591302321201823  0.23065192147134178  0.04191351541774681  1.0000
  O   O4        1.0  0.40870421464990186  0.7693569071755204  0.9580860123583079  1.0000
  O   O5        1.0  0.2920645095866945  0.17241854952822422  0.3455777182328674  1.0000
  O   O6        1.0  0.7079402998439188  0.8275855516353237  0.6544193162837147  1.0000
  O   O7        1.0  0.05676218453975683  0.31834614934528815  0.45923730332468443  1.0000
  O   O8        1.0  0.9432405403292065  0.6816579047033429  0.5407672532044359  1.0000
