data_image0
_chemical_formula_structural       Cd2H50C50N10O14
_chemical_formula_sum              "Cd2 H50 C50 N10 O14"
_cell_length_a       8.53491167582496
_cell_length_b       9.454867956221829
_cell_length_c       17.7549
_cell_angle_alpha    80.6756870772274
_cell_angle_beta     77.24112179550976
_cell_angle_gamma    65.68291849325702

_space_group_name_H-M_alt    "P 1"
_space_group_IT_number       1

loop_
  _space_group_symop_operation_xyz
  'x, y, z'

loop_
  _atom_site_type_symbol
  _atom_site_label
  _atom_site_symmetry_multiplicity
  _atom_site_fract_x
  _atom_site_fract_y
  _atom_site_fract_z
  _atom_site_occupancy
  Cd  Cd1       1.0  0.9184589742852368  0.961458777719244  0.15801806432633472  1.0000
  Cd  Cd2       1.0  0.0815401758488505  0.0385413464011037  0.8419828600264694  1.0000
  H   H1        1.0  0.9703510113596039  0.8409677306322934  0.014361833191060198  1.0000
  H   H2        1.0  0.0296493400956663  0.1590323934880544  0.9856384004004398  1.0000
  H   H3        1.0  0.7747274875553316  0.9380202923848344  0.023741793985316024  1.0000
  H   H4        1.0  0.22527286389993856  0.0619798317355063  0.9762584396061842  1.0000
  H   H5        1.0  0.4500243034026781  0.5173186925054765  0.1417663462070067  1.0000
  H   H6        1.0  0.5499746651292909  0.48267910290296356  0.8582325454485941  1.0000
  H   H7        1.0  0.5463951710593449  0.8639055429068989  0.9710360827710146  1.0000
  H   H8        1.0  0.4536068915766264  0.1360934168574914  0.0289646328415216  1.0000
  H   H9        1.0  0.9248428754639162  0.3911537388594297  0.9749862402934255  1.0000
  H   H10       1.0  0.07515900556993667  0.6088428921930529  0.0250130058467093  1.0000
  H   H11       1.0  0.8620046639792417  0.7877624853587832  0.8985622366733781  1.0000
  H   H12       1.0  0.1379951776164958  0.2122388031175149  0.101438513810173  1.0000
  H   H13       1.0  0.9944526512679843  0.5855359790813424  0.8889787938984385  1.0000
  H   H14       1.0  0.005547881789404111  0.4144664737509061  0.1110200930414678  1.0000
  H   H15       1.0  0.8920438314326375  0.4393708832301755  0.827484972056304  1.0000
  H   H16       1.0  0.10795721148428333  0.5606304052461226  0.1725145244411408  1.0000
  H   H17       1.0  0.761446035549163  0.4421467078221895  0.713262109520656  1.0000
  H   H18       1.0  0.2385556988294013  0.5578557450100661  0.2867372131075356  1.0000
  H   H19       1.0  0.6848164369754528  0.922877843215737  0.8176247308286194  1.0000
  H   H20       1.0  0.31517878093769974  0.0771257739724618  0.1823763095989648  1.0000
  H   H21       1.0  0.553268041402127  0.9423016292241115  0.698778849398451  1.0000
  H   H22       1.0  0.4467276863705506  0.0577008236081369  0.301221674137075  1.0000
  H   H23       1.0  0.7567258364120022  0.2420905610411808  0.2868014492682392  1.0000
  H   H24       1.0  0.24327502490279324  0.7579083987232096  0.7131993938808067  1.0000
  H   H25       1.0  0.21781528619796134  0.8364861245690989  0.2904471548752312  1.0000
  H   H26       1.0  0.7821840455382513  0.1635163282631567  0.7095541125003778  1.0000
  H   H27       1.0  0.1541110692476053  0.9935763723275031  0.4212893831617919  1.0000
  H   H28       1.0  0.8458899736693083  0.006424916148795  0.5787118030100518  1.0000
  H   H29       1.0  0.8565610385985991  0.2142543032721989  0.48446467182300523  1.0000
  H   H30       1.0  0.1434388029971387  0.7857469852040992  0.5155355154357438  1.0000
  H   H31       1.0  0.7034531035553897  0.3209069798574404  0.4215324795650517  1.0000
  H   H32       1.0  0.29654433539799635  0.6790943086188577  0.5784673995419143  1.0000
  H   H33       1.0  0.932164263227953  0.4299035049761244  0.34594067560975367  1.0000
  H   H34       1.0  0.06783368558496512  0.5700966191442234  0.6540592498299561  1.0000
  H   H35       1.0  0.053125339865459906  0.3449800391862468  0.42161134182762794  1.0000
  H   H36       1.0  0.9468738102686346  0.655020084934101  0.5783884560755794  1.0000
  H   H37       1.0  0.7720284284538861  0.5055365746168121  0.5151346033390638  1.0000
  H   H38       1.0  0.22797192300137684  0.49446354950353566  0.48486450380283236  1.0000
  H   H39       1.0  0.8878311824924978  0.607687851087654  0.45199625734562693  1.0000
  H   H40       1.0  0.1121691689627653  0.3923122730326938  0.5480034130210711  1.0000
  H   H41       1.0  0.5537421051897764  0.5837661580327449  0.42722269485250314  1.0000
  H   H42       1.0  0.4462570449443106  0.4162339660876029  0.5727771030507043  1.0000
  H   H43       1.0  0.5704454994450572  0.7454416395341639  0.45981450863502  1.0000
  H   H44       1.0  0.4295531408295048  0.2545596489421342  0.5401863693850402  1.0000
  H   H45       1.0  0.5744151298022331  0.5740007046547149  0.2895960485739622  1.0000
  H   H46       1.0  0.4255835104723288  0.4260005838215832  0.7104037029964945  1.0000
  H   H47       1.0  0.794074299505361  0.8581408165834645  0.3504285271078729  1.0000
  H   H48       1.0  0.20592485062873314  0.1418593075368761  0.6495718340201294  1.0000
  H   H49       1.0  0.7038770339236461  0.7230918270158355  0.15424362703232933  1.0000
  H   H50       1.0  0.29612109649138313  0.2769106258164129  0.8457560782053832  1.0000
  C   C1        1.0  0.7488723820896794  0.2747740326426111  0.1007145257242286  1.0000
  C   C2        1.0  0.25112778776347255  0.7252237627658289  0.8992848016196646  1.0000
  C   C3        1.0  0.6925927920220261  0.4368151219132841  0.06253980353559997  1.0000
  C   C4        1.0  0.30740927061394535  0.5631838378511063  0.9374586591777359  1.0000
  C   C5        1.0  0.5322736168694462  0.5495795028959591  0.09202097886353759  1.0000
  C   C6        1.0  0.4677263713815805  0.4504159638005731  0.9079768790079542  1.0000
  C   C7        1.0  0.4782979525096493  0.7028064176022255  0.058834723469239215  1.0000
  C   C8        1.0  0.5217034186646785  0.2971913778062145  0.9411656027877484  1.0000
  C   C9        1.0  0.586514344228327  0.7433539493103893  0.9955691229507124  1.0000
  C   C10       1.0  0.4134853157652927  0.256645010454001  0.004431284510033607  1.0000
  C   C11       1.0  0.7465679162993127  0.630803809823071  0.9649667047198137  1.0000
  C   C12       1.0  0.2534341463366658  0.3691951499413193  0.0350323212183241  1.0000
  C   C13       1.0  0.7990281292476878  0.47800072068370275  0.9983431752089446  1.0000
  C   C14       1.0  0.20097342352875813  0.521999403436638  0.0016558043964493875  1.0000
  C   C15       1.0  0.8605624810863547  0.6735903980289066  0.8952740656687439  1.0000
  C   C16       1.0  0.1394378703689156  0.3264097260914411  0.1047256046979541  1.0000
  C   C17       1.0  0.305858045666568  0.8242359355873106  0.091027404085068  1.0000
  C   C18       1.0  0.6941435071098779  0.1757641885330301  0.9089732651947245  1.0000
  C   C19       1.0  0.8190603549436517  0.546970181205225  0.7960551500740608  1.0000
  C   C20       1.0  0.18093828533091022  0.4530311072710731  0.20394460149640284  1.0000
  C   C21       1.0  0.7460818430169452  0.550420167894039  0.7335481145023479  1.0000
  C   C22       1.0  0.253918690040436  0.4495822849382094  0.2664507724375511  1.0000
  C   C23       1.0  0.6481661906243585  0.6932121245492908  0.6975293355326359  1.0000
  C   C24       1.0  0.35183193979067084  0.3067903282829576  0.30247149615467345  1.0000
  C   C25       1.0  0.699047177660418  0.822067904802779  0.790314359936673  1.0000
  C   C26       1.0  0.300953173794845  0.1779322193175616  0.209685873654827  1.0000
  C   C27       1.0  0.6278458456023442  0.8300600440643464  0.7262247764587499  1.0000
  C   C28       1.0  0.37215330453174283  0.1699400800559943  0.2737761478940541  1.0000
  C   C29       1.0  0.5620686553362333  0.6981641304175099  0.629863014506576  1.0000
  C   C30       1.0  0.4379294750788033  0.3018383224147385  0.3701366907311369  1.0000
  C   C31       1.0  0.8740838802690759  0.152301251723614  0.3045783754362859  1.0000
  C   C32       1.0  0.12591628958407602  0.847696543684826  0.6954226415820131  1.0000
  C   C33       1.0  0.11136769286495961  0.9432983179199042  0.30937318117498336  1.0000
  C   C34       1.0  0.8886326585903035  0.0567018062004436  0.6906276156413115  1.0000
  C   C35       1.0  0.0807197731770941  0.0184317547363975  0.3747198689398132  1.0000
  C   C36       1.0  0.9192815979972269  0.9815660406720426  0.6252804573171745  1.0000
  C   C37       1.0  0.8429247553326318  0.2709502876928767  0.42581892625623396  1.0000
  C   C38       1.0  0.15707388494193  0.7290510007834214  0.5741813885390243  1.0000
  C   C39       1.0  0.9197164319933221  0.3954618558856282  0.4085799714953566  1.0000
  C   C40       1.0  0.08028271814076497  0.6045382682347196  0.5914198264078436  1.0000
  C   C41       1.0  0.8093048631690463  0.5392272141176093  0.4536696574826991  1.0000
  C   C42       1.0  0.19069497842669134  0.4607740743586888  0.546329966551248  1.0000
  C   C43       1.0  0.6394497907704206  0.6456318828848566  0.42415736553720507  1.0000
  C   C44       1.0  0.3605493593636737  0.3543682412354912  0.5758424323659953  1.0000
  C   C45       1.0  0.6399125770199562  0.6542620892086788  0.2801766646166897  1.0000
  C   C46       1.0  0.3600865731141382  0.345738034911669  0.7198242597361146  1.0000
  C   C47       1.0  0.7547948556378044  0.8008603254743747  0.3142276375542394  1.0000
  C   C48       1.0  0.2452042944962898  0.1991397986459731  0.6857732867985646  1.0000
  C   C49       1.0  0.7037441979643618  0.7279739715268718  0.2148652818213819  1.0000
  C   C50       1.0  0.29625513377184387  0.2720284813053766  0.7851348591046232  1.0000
  N   N1        1.0  0.7935878375019598  0.6817653411750939  0.8235873107083408  1.0000
  N   N2        1.0  0.20641080277260224  0.3182359473011971  0.17641413053652144  1.0000
  N   N3        1.0  0.9816100692445174  0.0286338415968075  0.2659353961013338  1.0000
  N   N4        1.0  0.018391993391453754  0.971365118167583  0.7340641930615989  1.0000
  N   N5        1.0  0.9292353693236562  0.150068017005708  0.37096595219129824  1.0000
  N   N6        1.0  0.07076549199113909  0.8499309427586823  0.6290343277329458  1.0000
  N   N7        1.0  0.672889505734922  0.7022871148471737  0.342501509914051  1.0000
  N   N8        1.0  0.3271096443991652  0.297713009273167  0.6574994144387534  1.0000
  N   N9        1.0  0.7751812750905813  0.8189916763748855  0.23699699792116044  1.0000
  N   N10       1.0  0.22481685532445536  0.181010776457363  0.7630038337661561  1.0000
  O   O1        1.0  0.8617933249402369  0.8623918801679622  0.05442813502529726  1.0000
  O   O2        1.0  0.13820822783620912  0.1376082439523785  0.9455714078048985  1.0000
  O   O3        1.0  0.19445097253083776  0.7743688988311348  0.1343706596290062  1.0000
  O   O4        1.0  0.8055488690649  0.2256323896451633  0.865628964404948  1.0000
  O   O5        1.0  0.28100429290141443  0.9660952431241938  0.0735991365808317  1.0000
  O   O6        1.0  0.7189994809152651  0.0339025522842462  0.9263992449287457  1.0000
  O   O7        1.0  0.5229851624390847  0.8215905188620383  0.5858634562646972  1.0000
  O   O8        1.0  0.47701518901618556  0.1784096052583024  0.4141362141020011  1.0000
  O   O9        1.0  0.5378216123087682  0.5752244427613462  0.626321195768334  1.0000
  O   O10       1.0  0.46217943060815253  0.4247768457149519  0.3736783007291181  1.0000
  O   O11       1.0  0.8861511469289098  0.1692309872806064  0.06593154756152589  1.0000
  O   O12       1.0  0.1138509157070615  0.830767972483784  0.9340686048262087  1.0000
  O   O13       1.0  0.6662232943185913  0.24489665888797418  0.16507514589545744  1.0000
  O   O14       1.0  0.33377858671526184  0.7550999721645084  0.8349241002446705  1.0000
