data_image0
_chemical_formula_structural       Cd4H20C12S8N4Cl8
_chemical_formula_sum              "Cd4 H20 C12 S8 N4 Cl8"
_cell_length_a       3.9100242979497657
_cell_length_b       9.087356993595739
_cell_length_c       22.361551832005
_cell_angle_alpha    89.99998863058084
_cell_angle_beta     90.00008206960398
_cell_angle_gamma    90.69288776567132

_space_group_name_H-M_alt    "P 1"
_space_group_IT_number       1

loop_
  _space_group_symop_operation_xyz
  'x, y, z'

loop_
  _atom_site_type_symbol
  _atom_site_label
  _atom_site_symmetry_multiplicity
  _atom_site_fract_x
  _atom_site_fract_y
  _atom_site_fract_z
  _atom_site_occupancy
  Cd  Cd1       1.0  0.7451570529494518  0.8426312518036386  0.95496643688071  1.0000
  Cd  Cd2       1.0  0.24515371462197075  0.34263270211199176  0.5450328545032335  1.0000
  Cd  Cd3       1.0  0.2548426789873375  0.157367998759895  0.04503357510414221  1.0000
  Cd  Cd4       1.0  0.7548409487607799  0.6573687429250371  0.4549667102846938  1.0000
  H   H1        1.0  0.5085096382591702  0.2450467097420201  0.7826331302542825  1.0000
  H   H2        1.0  0.0085104612509852  0.7450471138590943  0.717366552560449  1.0000
  H   H3        1.0  0.49149520889483267  0.7549525473593877  0.2173664345351014  1.0000
  H   H4        1.0  0.9914892706858042  0.2549521367044392  0.28263345942440304  1.0000
  H   H5        1.0  0.9396524461074093  0.31080534676394933  0.778879421087261  1.0000
  H   H6        1.0  0.4396533674967102  0.8108090507298586  0.7211194780518113  1.0000
  H   H7        1.0  0.06035237770993261  0.689192809832072  0.22111924930985075  1.0000
  H   H8        1.0  0.5603464344382302  0.18919350135053753  0.2788800867367556  1.0000
  H   H9        1.0  0.44256121455294567  0.32308737292680695  0.8859197781502032  1.0000
  H   H10       1.0  0.9425518599563959  0.8230915635561548  0.6140800151632249  1.0000
  H   H11       1.0  0.5574487011534046  0.6769096897012049  0.1140797866399481  1.0000
  H   H12       1.0  0.0574428034280459  0.1769098814807748  0.3859199968208529  1.0000
  H   H13       1.0  0.8765668444532583  0.27103823482896433  0.886661289913171  1.0000
  H   H14       1.0  0.37655932420180704  0.7710441778961582  0.6133375954779012  1.0000
  H   H15       1.0  0.12344307125140119  0.7289588277991471  0.11333782768083009  1.0000
  H   H16       1.0  0.6234405243996978  0.22896057519541566  0.3866619693105875  1.0000
  H   H17       1.0  0.8896437178166536  0.5319535348973546  0.9178380082002633  1.0000
  H   H18       1.0  0.3896356618510453  0.0319604646964962  0.5821613473663375  1.0000
  H   H19       1.0  0.11036103600084603  0.4680413201819038  0.08216066219697639  1.0000
  H   H20       1.0  0.6103565372553774  0.9680453790939936  0.41783821742107813  1.0000
  C   C1        1.0  0.7017732887456773  0.5965666734303811  0.8359939287715292  1.0000
  C   C2        1.0  0.20176575868170227  0.09656916483670842  0.6640058181556439  1.0000
  C   C3        1.0  0.2982315350750468  0.40343148316544125  0.16400563601789733  1.0000
  C   C4        1.0  0.7982263470932834  0.9034322769313337  0.3359941938280926  1.0000
  C   C5        1.0  0.6864207211947643  0.33097254478752103  0.798094510569804  1.0000
  C   C6        1.0  0.18641893959613037  0.830976254023277  0.7019052131467731  1.0000
  C   C7        1.0  0.31358666023541565  0.6690256150771887  0.20190505421996358  1.0000
  C   C8        1.0  0.8135782813977671  0.16902519428253981  0.2980947988376457  1.0000
  C   C9        1.0  0.6943880680932537  0.34618798615351676  0.8658447285116395  1.0000
  C   C10       1.0  0.19437814773386458  0.8461939167010402  0.6341549961102755  1.0000
  C   C11       1.0  0.305621824278127  0.6538079759690093  0.1341543890824042  1.0000
  C   C12       1.0  0.8056165856504193  0.1538108298526524  0.3658450158736741  1.0000
  S   S1        1.0  0.5473560207233846  0.5101789644082119  0.7713664647636449  1.0000
  S   S2        1.0  0.04735409485373761  0.010181433632574502  0.7286341420166734  1.0000
  S   S3        1.0  0.4526487797691344  0.4898180916817196  0.22863444161428959  1.0000
  S   S4        1.0  0.952643126143542  0.9898200146730434  0.2713667643600601  1.0000
  S   S5        1.0  0.7199398159220608  0.7812585284333694  0.8402557030583822  1.0000
  S   S6        1.0  0.2199297193406267  0.2812621189700693  0.6597449281193519  1.0000
  S   S7        1.0  0.2800675655115015  0.21873963143114855  0.1597447561237004  1.0000
  S   S8        1.0  0.7800572945521156  0.7187404167655843  0.3402559782559678  1.0000
  N   N1        1.0  0.7915885769995867  0.49907475926145406  0.8773188943197283  1.0000
  N   N2        1.0  0.2915734312845474  0.9990795878639747  0.6226835272026036  1.0000
  N   N3        1.0  0.20842389632467467  0.5009223066349479  0.12268290645154417  1.0000
  N   N4        1.0  0.7084110483404871  0.0009240451078725  0.3773196151530982  1.0000
  Cl  Cl1       1.0  0.2373407424050527  0.6617440817080508  0.9832734453046185  1.0000
  Cl  Cl2       1.0  0.7373379308920676  0.16174489626189373  0.5167263058936767  1.0000
  Cl  Cl3       1.0  0.7626590128650151  0.33825626936106806  0.016726566680191  1.0000
  Cl  Cl4       1.0  0.26265931343510834  0.8382576525495083  0.48327370609070625  1.0000
  Cl  Cl5       1.0  0.24870677540690175  0.047543477996242714  0.9339012275283167  1.0000
  Cl  Cl6       1.0  0.748702126334365  0.5475454954744877  0.566098536024313  1.0000
  Cl  Cl7       1.0  0.7512980484121315  0.9524546785996794  0.0660978900649596  1.0000
  Cl  Cl8       1.0  0.2512925603833551  0.45245705006802683  0.4339014759597219  1.0000
