data_image0
_chemical_formula_structural       Zn2H50C40S2N4Cl2O12
_chemical_formula_sum              "Zn2 H50 C40 S2 N4 Cl2 O12"
_cell_length_a       9.694208662608341
_cell_length_b       11.395264167031502
_cell_length_c       11.53278904642603
_cell_angle_alpha    95.89766131209453
_cell_angle_beta     90.00315591653113
_cell_angle_gamma    115.1903348584684

_space_group_name_H-M_alt    "P 1"
_space_group_IT_number       1

loop_
  _space_group_symop_operation_xyz
  'x, y, z'

loop_
  _atom_site_type_symbol
  _atom_site_label
  _atom_site_symmetry_multiplicity
  _atom_site_fract_x
  _atom_site_fract_y
  _atom_site_fract_z
  _atom_site_occupancy
  Zn  Zn1       1.0  0.30454889030355053  0.44160908112736064  0.6502633765918093  1.0000
  Zn  Zn2       1.0  0.8630668033521403  0.5584809192169686  0.3496372584348393  1.0000
  H   H1        1.0  0.3146530667018581  0.008333110637316602  0.6579860006972922  1.0000
  H   H2        1.0  0.30642387153591244  0.9919258716794062  0.34191800487641194  1.0000
  H   H3        1.0  0.4091549818725397  0.2481864158245273  0.6558468376555028  1.0000
  H   H4        1.0  0.16113616289478463  0.7520523498569459  0.3438970056747479  1.0000
  H   H5        1.0  0.988231866213347  0.336894117711644  0.6375716439699987  1.0000
  H   H6        1.0  0.6514127966894848  0.6629437114958492  0.3621516351390923  1.0000
  H   H7        1.0  0.7081194604240154  0.2089977736369946  0.6366815364509862  1.0000
  H   H8        1.0  0.49894727651429344  0.7905552973233723  0.3632033092826887  1.0000
  H   H9        1.0  0.7640008771297246  0.8549706278523459  0.6500506738124443  1.0000
  H   H10       1.0  0.9088154650701482  0.1449379496318812  0.35013658528844627  1.0000
  H   H11       1.0  0.522564832932268  0.7709708742975535  0.5855870290407382  1.0000
  H   H12       1.0  0.7514240540494156  0.22882912341421494  0.41439444477221343  1.0000
  H   H13       1.0  0.3739959726278456  0.7981352741245471  0.6589860052506182  1.0000
  H   H14       1.0  0.5755604273070958  0.20150669739546606  0.34104830933711133  1.0000
  H   H15       1.0  0.5366078915455219  0.8076076608493209  0.7412384511769262  1.0000
  H   H16       1.0  0.7286771565563585  0.1920486180632253  0.25875958211473465  1.0000
  H   H17       1.0  0.9223230705096768  0.7768788806096723  0.598784149433783  1.0000
  H   H18       1.0  0.14559490459904373  0.22329556776777792  0.4013385573467191  1.0000
  H   H19       1.0  0.09466014278678606  0.7107714953549403  0.5704681742373054  1.0000
  H   H20       1.0  0.3841032833610996  0.28942418763953975  0.42958655663056083  1.0000
  H   H21       1.0  0.8840649081290549  0.8324128237544884  0.8060659783059095  1.0000
  H   H22       1.0  0.05166758229236021  0.16756493715084989  0.19406594644337366  1.0000
  H   H23       1.0  0.20119389464529297  0.8495134469261246  0.8437983259393746  1.0000
  H   H24       1.0  0.35165771523062267  0.150460785038824  0.15635292197768544  1.0000
  H   H25       1.0  0.10647580581706244  0.9334651656948123  0.9228762944069476  1.0000
  H   H26       1.0  0.17295402194052661  0.06654665096322529  0.0772437376664712  1.0000
  H   H27       1.0  0.11783744835025801  0.7743695213190165  0.04817140377970469  1.0000
  H   H28       1.0  0.3435850369426134  0.22555047072823703  0.9519375720276316  1.0000
  H   H29       1.0  0.8511851000773235  0.6279601672124145  0.06390972100258102  1.0000
  H   H30       1.0  0.2234271602498268  0.3719349922038617  0.9360758021922494  1.0000
  H   H31       1.0  0.721436331312809  0.5164096129681398  0.8906063756444457  1.0000
  H   H32       1.0  0.2052148147203922  0.48354414446480115  0.1093260930854072  1.0000
  H   H33       1.0  0.6848551018359998  0.6518242025234713  0.8691405742739775  1.0000
  H   H34       1.0  0.03310207823299289  0.3481227874158107  0.13074298852765054  1.0000
  H   H35       1.0  0.8014690415540145  0.6131637244473539  0.7079803474893114  1.0000
  H   H36       1.0  0.188339877735352  0.3868714198357992  0.29199386221456086  1.0000
  H   H37       1.0  0.8915567144343157  0.46874609784967447  0.7758775275397412  1.0000
  H   H38       1.0  0.4230108231134723  0.5312823924695779  0.22420677667066266  1.0000
  H   H39       1.0  0.04755102520650211  0.5953953636262668  0.7178842809289067  1.0000
  H   H40       1.0  0.4522571305270162  0.4045759263595272  0.2821345020429931  1.0000
  H   H41       1.0  0.17726340465959117  0.6326663195579201  0.8977880144990635  1.0000
  H   H42       1.0  0.5448414424810863  0.3676103137383322  0.10222764357938981  1.0000
  H   H43       1.0  0.009917979548227086  0.5346207969007037  0.9664102205158543  1.0000
  H   H44       1.0  0.47522947227675877  0.46541568442739134  0.0335844278354145  1.0000
  H   H45       1.0  0.9390319786034101  0.8752108544664098  0.11781665740591052  1.0000
  H   H46       1.0  0.0639046859289039  0.12459804752784721  0.8823397412128885  1.0000
  H   H47       1.0  0.6364047202095905  0.7789020726767008  0.9718363271749767  1.0000
  H   H48       1.0  0.8575986865038415  0.22115298545334375  0.027994708570126602  1.0000
  H   H49       1.0  0.7251386113532874  0.9226872892299199  0.08312720050142273  1.0000
  H   H50       1.0  0.8024988523558392  0.07727610100186412  0.9167777757369749  1.0000
  C   C1        1.0  0.07834379598192957  0.9730820450020231  0.6583580558385834  1.0000
  C   C2        1.0  0.10530997008878269  0.027065251304257697  0.3417560232495163  1.0000
  C   C3        1.0  0.23339083959292847  0.051080892770336596  0.6588275681984612  1.0000
  C   C4        1.0  0.18239705149770907  0.9491172782637349  0.34112102478115963  1.0000
  C   C5        1.0  0.2869684034071653  0.18587718234120126  0.6563916228944039  1.0000
  C   C6        1.0  0.10120614429511213  0.8142963488588818  0.34342811921845146  1.0000
  C   C7        1.0  0.0387783732304499  0.1708349050996958  0.6501596186019328  1.0000
  C   C8        1.0  0.8679968849519639  0.8291970171081074  0.3498001898545838  1.0000
  C   C9        1.0  0.9394521664865253  0.23228395331612714  0.6436268528038981  1.0000
  C   C10       1.0  0.7071820167494067  0.7675843623260336  0.35625833333519114  1.0000
  C   C11       1.0  0.7841865211907263  0.1614516402783508  0.6429201018555945  1.0000
  C   C12       1.0  0.6225961226701457  0.8382679980385319  0.35707113065672763  1.0000
  C   C13       1.0  0.7204351956985205  0.024387188038062398  0.6480021320392595  1.0000
  C   C14       1.0  0.6958277969139955  0.9753808028093898  0.3521025708778041  1.0000
  C   C15       1.0  0.8142985568975191  0.9606167684380222  0.652148909598381  1.0000
  C   C16       1.0  0.8535072205878083  0.039291095089183194  0.34804596460496384  1.0000
  C   C17       1.0  0.9751405738571677  0.03225237797150981  0.6540579430484429  1.0000
  C   C18       1.0  0.9428803376197763  0.9678076362551166  0.34605141909860754  1.0000
  C   C19       1.0  0.49669939835244026  0.8265646525421599  0.6590080724042195  1.0000
  C   C20       1.0  0.6698673211435064  0.1731398722944206  0.3410219898228064  1.0000
  C   C21       1.0  0.021608037587647195  0.8273122279834337  0.6608332292921446  1.0000
  C   C22       1.0  0.1943964792783319  0.1728319577512707  0.3393021022642202  1.0000
  C   C23       1.0  0.9662950435473547  0.7917377897232354  0.783724322471585  1.0000
  C   C24       1.0  0.17461286223640127  0.20830664474303265  0.2163818107089455  1.0000
  C   C25       1.0  0.09215037729644138  0.837926114887601  0.8807193425164571  1.0000
  C   C26       1.0  0.2542435852034188  0.16208658600981346  0.1194006071639535  1.0000
  C   C27       1.0  0.044600510823606526  0.7355983805512949  0.9677851359573142  1.0000
  C   C28       1.0  0.3091266145901415  0.26438116150636404  0.032285694375886506  1.0000
  C   C29       1.0  0.8761798568688093  0.6969261732148126  0.9978874182529865  1.0000
  C   C30       1.0  0.17943438546611648  0.3030121417376463  0.0021228116276716977  1.0000
  C   C31       1.0  0.77554624749898  0.6222967062686422  0.8874431294829322  1.0000
  C   C32       1.0  0.15334568998271442  0.3776534824376725  0.11249857069204693  1.0000
  C   C33       1.0  0.9707895735030191  0.5724906297025641  0.7899531303870972  1.0000
  C   C34       1.0  0.39842286896306683  0.42754180304964245  0.21009642771392834  1.0000
  C   C35       1.0  0.057488800587442754  0.6132640331068657  0.9100049816831302  1.0000
  C   C36       1.0  0.4443466466875563  0.3868295566455728  0.09002874867633183  1.0000
  C   C37       1.0  0.8502852381697963  0.8110894964165636  0.05218550725663818  1.0000
  C   C38       1.0  0.03931884581028561  0.18882879109730066  0.9478535178473494  1.0000
  C   C39       1.0  0.7316644926910598  0.8385059960937511  0.033901526682214495  1.0000
  C   C40       1.0  0.893246479051065  0.1614841378299303  0.9660144788891216  1.0000
  S   S1        1.0  0.6185590410715419  0.4778843403891455  0.5423115741036711  1.0000
  S   S2        1.0  0.14078096507832055  0.522378976689218  0.4575830878978168  1.0000
  N   N1        1.0  0.1935702316998302  0.24432502614813964  0.6520414816487516  1.0000
  N   N2        1.0  0.9493328345223305  0.7557671725361104  0.3477868289244128  1.0000
  N   N3        1.0  0.873769934500153  0.6456114429602237  0.7838017115434255  1.0000
  N   N4        1.0  0.228215671843529  0.3544018779883374  0.21620673827847275  1.0000
  Cl  Cl1       1.0  0.3949672892337476  0.5516821202060884  0.8239069478082969  1.0000
  Cl  Cl2       1.0  0.8432754137716785  0.44818986232027674  0.1761138802639337  1.0000
  O   O1        1.0  0.5662047895786131  0.9644134848334789  0.647523532212425  1.0000
  O   O2        1.0  0.601543181909271  0.035291303837688304  0.3525820212472794  1.0000
  O   O3        1.0  0.13860812988898627  0.788681116819518  0.6292015196683495  1.0000
  O   O4        1.0  0.3500900212911305  0.21145460531328553  0.3709237174656508  1.0000
  O   O5        1.0  0.4460025291087959  0.43134844871681827  0.5264084504652261  1.0000
  O   O6        1.0  0.014782162025568469  0.5689050681475082  0.4735840434364534  1.0000
  O   O7        1.0  0.6530484618085737  0.3938590040624489  0.6136403675115432  1.0000
  O   O8        1.0  0.2593322135312164  0.6064596187712539  0.38627903567552124  1.0000
  O   O9        1.0  0.664862062528826  0.46598201799605465  0.4183456955925494  1.0000
  O   O10       1.0  0.19907429227423282  0.534184122349707  0.5815104198601946  1.0000
  O   O11       1.0  0.6887483020238606  0.6158815786911164  0.5939733150881636  1.0000
  O   O12       1.0  0.07285388882016264  0.3844044473275759  0.4058699235873107  1.0000
