data_image0
_chemical_formula_structural       Mg2H32C32N20O12
_chemical_formula_sum              "Mg2 H32 C32 N20 O12"
_cell_length_a       4.590208829833772
_cell_length_b       15.092415495242387
_cell_length_c       16.283593092923518
_cell_angle_alpha    118.28664557543112
_cell_angle_beta     98.10101688098636
_cell_angle_gamma    90.02140366964925

_space_group_name_H-M_alt    "P 1"
_space_group_IT_number       1

loop_
  _space_group_symop_operation_xyz
  'x, y, z'

loop_
  _atom_site_type_symbol
  _atom_site_label
  _atom_site_symmetry_multiplicity
  _atom_site_fract_x
  _atom_site_fract_y
  _atom_site_fract_z
  _atom_site_occupancy
  Mg  Mg1       1.0  0.5000004217877817  0.5000012467737066  6.690880453753818e-07  1.0000
  Mg  Mg2       1.0  0.5000007959588544  0.9999999803384015  8.673687378450304e-09  1.0000
  H   H1        1.0  0.8251190498992499  0.37551797519302715  0.8967239990513247  1.0000
  H   H2        1.0  0.9285057359037905  0.12457005460549203  0.10331792155140816  1.0000
  H   H3        1.0  0.1748820061340908  0.6244838867751383  0.10327669041924264  1.0000
  H   H4        1.0  0.07149278364121872  0.8754302881641112  0.8966814002927561  1.0000
  H   H5        1.0  0.5090713357766532  0.33948802659158883  0.8264123591996578  1.0000
  H   H6        1.0  0.6826094955152724  0.16056284725910788  0.17358919339377368  1.0000
  H   H7        1.0  0.4909315928267047  0.6605123360692886  0.1735883736548302  1.0000
  H   H8        1.0  0.3173890277461311  0.8394375040866037  0.8264107464400111  1.0000
  H   H9        1.0  0.7292230654073961  0.45856663111418794  0.47598976139278887  1.0000
  H   H10       1.0  0.2531358716439626  0.04138985498998691  0.5240019717542026  1.0000
  H   H11       1.0  0.2707748013684821  0.5414307188778907  0.5240100901777678  1.0000
  H   H12       1.0  0.7468580802959082  0.9586097304140966  0.47599684399826697  1.0000
  H   H13       1.0  0.3844020400083181  0.37549894982884535  0.5296880024096282  1.0000
  H   H14       1.0  0.8546262122449731  0.12440166619987285  0.4703250946041208  1.0000
  H   H15       1.0  0.6155941201771284  0.6245006540969842  0.47031213683762724  1.0000
  H   H16       1.0  0.14537483635557896  0.8756001786160754  0.5296743588871989  1.0000
  H   H17       1.0  0.1584150870470395  0.19924877966921173  0.41351081061858247  1.0000
  H   H18       1.0  0.7453485824723458  0.30066745614324475  0.5864656928802602  1.0000
  H   H19       1.0  0.8415832665183913  0.8007508084739288  0.5864881801649557  1.0000
  H   H20       1.0  0.2546612730957136  0.699334402726926  0.4135347286628245  1.0000
  H   H21       1.0  0.27782959675729296  0.11838653162068621  0.24993092353042098  1.0000
  H   H22       1.0  0.02855840604761543  0.38159826202639396  0.7500201582230515  1.0000
  H   H23       1.0  0.7221665597117521  0.8816130637290345  0.7500685977272067  1.0000
  H   H24       1.0  0.9714465573889368  0.6184013473775495  0.24998033108634837  1.0000
  H   H25       1.0  0.2849665497475868  0.3073705021986228  0.09270741154513468  1.0000
  H   H26       1.0  0.1923584707239598  0.1926903223738918  0.9073686685678267  1.0000
  H   H27       1.0  0.7150299386806225  0.6926306024040232  0.9072927718337453  1.0000
  H   H28       1.0  0.8076400488210493  0.8073100203957113  0.0926306532763377  1.0000
  H   H29       1.0  0.442382048652938  0.43403823837860506  0.15409908864951652  1.0000
  H   H30       1.0  0.28816567100682283  0.06602257526302681  0.8459875787430349  1.0000
  H   H31       1.0  0.5576141115325086  0.5659613655472244  0.8459010505977458  1.0000
  H   H32       1.0  0.7118347211082039  0.9339762681992883  0.1540117864850429  1.0000
  C   C1        1.0  0.6684452586439634  0.3338054550076422  0.3339011344061688  1.0000
  C   C2        1.0  0.3347795413762639  0.16616515637488766  0.6660837292204744  1.0000
  C   C3        1.0  0.3315598744885691  0.6661949175988726  0.6661003039534847  1.0000
  C   C4        1.0  0.6652164491132025  0.8338336843483702  0.33391546097653446  1.0000
  C   C5        1.0  0.6190841531521586  0.38435151904487713  0.42759474208219217  1.0000
  C   C6        1.0  0.19166285501504626  0.11562050790104912  0.5723885053173844  1.0000
  C   C7        1.0  0.3809098136533037  0.6156481006636414  0.5724065456287802  1.0000
  C   C8        1.0  0.8083334674335775  0.8843798420751344  0.4276113470008695  1.0000
  C   C9        1.0  0.4314833034839295  0.3367347266456307  0.4574460999323121  1.0000
  C   C10       1.0  0.9741306646767068  0.1631871332920269  0.5425493876689415  1.0000
  C   C11       1.0  0.5685208412039201  0.6632611353543254  0.5425545880428542  1.0000
  C   C12       1.0  0.025870221660660792  0.8368139654735671  0.4574503527513797  1.0000
  C   C13       1.0  0.3042767977365415  0.23994662708856404  0.3935455973399654  1.0000
  C   C14       1.0  0.9111075763909751  0.2599848296204215  0.6064318848992014  1.0000
  C   C15       1.0  0.6957193587325037  0.7600529682611565  0.6064539239176694  1.0000
  C   C16       1.0  0.08889551447556707  0.7400162790908102  0.39356856102627796  1.0000
  C   C17       1.0  0.37004213199732305  0.19434062876887745  0.30185348079280766  1.0000
  C   C18       1.0  0.06870741210957482  0.30562818018886173  0.698111257971611  1.0000
  C   C19       1.0  0.6299536925125649  0.8056574573279182  0.6981453783435754  1.0000
  C   C20       1.0  0.9312931422686362  0.6943714093238074  0.30188782032746525  1.0000
  C   C21       1.0  0.8597073130497604  0.38028773675372224  0.29794329226942295  1.0000
  C   C22       1.0  0.5618901676303949  0.11971820169377173  0.7020846234538141  1.0000
  C   C23       1.0  0.14029731471124052  0.6197103548211873  0.7020559169291116  1.0000
  C   C24       1.0  0.43810801995545035  0.8802806318229061  0.29791403626910534  1.0000
  C   C25       1.0  0.23452657779649397  0.3866885846726405  0.1292043265344276  1.0000
  C   C26       1.0  0.1052983326328913  0.11336336857620213  0.8708765979009454  1.0000
  C   C27       1.0  0.7654721188772838  0.6133125384517512  0.8707971803392308  1.0000
  C   C28       1.0  0.8947022254617065  0.8866362295125757  0.12912309838775823  1.0000
  C   C29       1.0  0.041574672576494734  0.4130569809795262  0.060078470252129514  1.0000
  C   C30       1.0  0.9813253590297819  0.08695564372546731  0.939969509811142  1.0000
  C   C31       1.0  0.9584287539655988  0.5869456455607464  0.9399232557842223  1.0000
  C   C32       1.0  0.018673001968437648  0.9130439615698908  0.0600307169516512  1.0000
  N   N1        1.0  0.9202866464456889  0.3341157808221524  0.20938042075759705  1.0000
  N   N2        1.0  0.7110154583816309  0.16590354367516372  0.7906554093915759  1.0000
  N   N3        1.0  0.07971169225415758  0.665883773016553  0.7906160980674383  1.0000
  N   N4        1.0  0.2889802001486785  0.834093787795169  0.20934311868419528  1.0000
  N   N5        1.0  0.10539833570620522  0.4023343624979888  0.2106863554508535  1.0000
  N   N6        1.0  0.8946807703791394  0.09769861437944632  0.7893767278705324  1.0000
  N   N7        1.0  0.8946047551603372  0.5976667462132426  0.7893140904746261  1.0000
  N   N8        1.0  0.1053174209231074  0.9023002277133403  0.2106225498420144  1.0000
  N   N9        1.0  0.15936553015130528  0.4870363537766452  0.2939636649981735  1.0000
  N   N10       1.0  0.8653208574130599  0.013005111310157202  0.7060997165782297  1.0000
  N   N11       1.0  0.8406352050720683  0.5129640246669213  0.7060382163200315  1.0000
  N   N12       1.0  0.13467969696514356  0.9869944782025115  0.2938993617208536  1.0000
  N   N13       1.0  0.0036848715408340266  0.47392731048437753  0.3499777585403762  1.0000
  N   N14       1.0  0.6536901053659605  0.026088679125905404  0.6500608407749906  1.0000
  N   N15       1.0  0.9963109529690539  0.5260707756124107  0.6500211005960139  1.0000
  N   N16       1.0  0.3463080859362862  0.9739101629668814  0.3499384369375562  1.0000
  N   N17       1.0  0.5467740221160325  0.24000318959893727  0.2722426735384786  1.0000
  N   N18       1.0  0.27494701708010894  0.25997535787445264  0.7277223499992757  1.0000
  N   N19       1.0  0.45322263972454374  0.7599986867823887  0.727759076880268  1.0000
  N   N20       1.0  0.7250513402017161  0.7400242388447965  0.2722772587738901  1.0000
  O   O1        1.0  0.1545721594532239  0.3956314629521814  0.986996747577116  1.0000
  O   O2        1.0  0.1674400989718237  0.10432326973511152  0.013032809815200604  1.0000
  O   O3        1.0  0.845435672430817  0.60437117490325  0.013005771479932083  1.0000
  O   O4        1.0  0.8325585902691657  0.8956778362370631  0.98696746107921  1.0000
  O   O5        1.0  0.7974190944828122  0.4491305407039975  0.07892744024934464  1.0000
  O   O6        1.0  0.7182050843088632  0.05091058075154822  0.9211045750509469  1.0000
  O   O7        1.0  0.20258195783413413  0.5508713126880594  0.9210726312315953  1.0000
  O   O8        1.0  0.2817951418265849  0.9490875080843041  0.07889445911651881  1.0000
  O   O9        1.0  0.6394359484032323  0.3992580784083444  0.8784042241606398  1.0000
  O   O10       1.0  0.7610137276841796  0.10083320784450221  0.12161183985239175  1.0000
  O   O11       1.0  0.3605649416505301  0.6007430289333585  0.12159613424930875  1.0000
  O   O12       1.0  0.23898699639000404  0.8991671448707381  0.8783881874969308  1.0000
