data_image0
_chemical_formula_structural       Cd2H22C28N2O12
_chemical_formula_sum              "Cd2 H22 C28 N2 O12"
_cell_length_a       6.887777690192758
_cell_length_b       9.796869219667387
_cell_length_c       12.118989500793752
_cell_angle_alpha    77.28440850622223
_cell_angle_beta     84.256064692648
_cell_angle_gamma    71.41878784366007

_space_group_name_H-M_alt    "P 1"
_space_group_IT_number       1

loop_
  _space_group_symop_operation_xyz
  'x, y, z'

loop_
  _atom_site_type_symbol
  _atom_site_label
  _atom_site_symmetry_multiplicity
  _atom_site_fract_x
  _atom_site_fract_y
  _atom_site_fract_z
  _atom_site_occupancy
  Cd  Cd1       1.0  0.49059294946907517  0.8193883606838027  0.9529488663347224  1.0000
  Cd  Cd2       1.0  0.5094076634289948  0.1806123397570616  0.047051862418257415  1.0000
  H   H1        1.0  0.13993968600595955  0.7538305030938022  0.8647645471642704  1.0000
  H   H2        1.0  0.8600635424571407  0.24617572159564102  0.13524234354343886  1.0000
  H   H3        1.0  0.25909023225966626  0.6126538227828036  0.9524277683413304  1.0000
  H   H4        1.0  0.7409041425737968  0.3873479919874542  0.047574083623331404  1.0000
  H   H5        1.0  0.015360629095617612  0.3083931631238244  0.9447440697266387  1.0000
  H   H6        1.0  0.9846357035725645  0.6916053925494198  0.055265679591151716  1.0000
  H   H7        1.0  0.9705577289448254  0.6785751398510699  0.6714083201349723  1.0000
  H   H8        1.0  0.029443509706254548  0.3214256025872048  0.32860060897245097  1.0000
  H   H9        1.0  0.5218555863928172  0.5361374052424639  0.15219221292039012  1.0000
  H   H10       1.0  0.4781422946477889  0.46386002347624355  0.8478126696492083  1.0000
  H   H11       1.0  0.405141976793324  0.46955291213334505  0.3521727639188725  1.0000
  H   H12       1.0  0.5948602167814128  0.5304412141083007  0.6478323979243896  1.0000
  H   H13       1.0  0.333295161048319  0.2408504167552082  0.6286241631069701  1.0000
  H   H14       1.0  0.6666795966785558  0.7591558105699433  0.3713751458999113  1.0000
  H   H15       1.0  0.22189416827861663  0.7210084242041717  0.534943634176706  1.0000
  H   H16       1.0  0.778113397870932  0.27899007974136947  0.4650594238510806  1.0000
  H   H17       1.0  0.9925802422698595  0.7103772827652649  0.4856869890748711  1.0000
  H   H18       1.0  0.007417148732763138  0.28962566318518423  0.514321833103601  1.0000
  H   H19       1.0  0.2130766421042549  0.9783311777687804  0.13814119080140588  1.0000
  H   H20       1.0  0.7869163921162751  0.021657488577119507  0.8618682439136478  1.0000
  H   H21       1.0  0.08720190379516163  0.9303618398564737  0.3383662645637386  1.0000
  H   H22       1.0  0.9127962526989677  0.0696311873943571  0.6616377861940564  1.0000
  C   C1        1.0  0.8241190861209373  0.6038007321662562  0.8799639998137679  1.0000
  C   C2        1.0  0.17589279085649423  0.3961911793984569  0.12004079343749652  1.0000
  C   C3        1.0  0.9762918911544031  0.5035104476673171  0.813502481196899  1.0000
  C   C4        1.0  0.023702767663813514  0.4965034151538461  0.18649125920686774  1.0000
  C   C5        1.0  0.05389982251620038  0.35384706195717547  0.8584089377754723  1.0000
  C   C6        1.0  0.9460996137218127  0.6461623994220319  0.1415852542466709  1.0000
  C   C7        1.0  0.03250119316989946  0.5608745316880929  0.7028067343168446  1.0000
  C   C8        1.0  0.9675089171112032  0.4391272313803753  0.29718970978798614  1.0000
  C   C9        1.0  0.42432125460981485  0.6204613999165004  0.19602016533205815  1.0000
  C   C10       1.0  0.5756788291210383  0.379537105385758  0.8039810269905772  1.0000
  C   C11       1.0  0.360203452492428  0.5837309392400626  0.30812922511240975  1.0000
  C   C12       1.0  0.639798492487351  0.41626646010637086  0.6918712006392627  1.0000
  C   C13       1.0  0.23849055735729505  0.6946692790430831  0.36251800354558844  1.0000
  C   C14       1.0  0.7615131897086087  0.3053335899552962  0.6374779237000326  1.0000
  C   C15       1.0  0.18303252812100368  0.2597359855714672  0.7918449433498651  1.0000
  C   C16       1.0  0.8169750036911052  0.740278864307875  0.20813103519792966  1.0000
  C   C17       1.0  0.23240589659320685  0.31473088003231436  0.6800585278812719  1.0000
  C   C18       1.0  0.7675946516963704  0.685280714897921  0.3199236011947519  1.0000
  C   C19       1.0  0.15973985101999938  0.46588719311171195  0.6362929606492074  1.0000
  C   C20       1.0  0.8402637406242446  0.5341102160427553  0.36370980632855787  1.0000
  C   C21       1.0  0.16135306350381728  0.6650316293973475  0.4828653458770304  1.0000
  C   C22       1.0  0.8386539091969636  0.3349613853060872  0.517138811634787  1.0000
  C   C23       1.0  0.2771223437982257  0.10116843191566721  0.8432604104334088  1.0000
  C   C24       1.0  0.7228802415224607  0.8988190403316736  0.15673360382669446  1.0000
  C   C25       1.0  0.2533663348968389  0.867316459847622  0.18903068015873714  1.0000
  C   C26       1.0  0.7466260518308514  0.13268316257521923  0.8109717542558172  1.0000
  C   C27       1.0  0.1851973547071352  0.8394347093869642  0.3008947788876384  1.0000
  C   C28       1.0  0.8147992245228152  0.16057147187059684  0.699101926880239  1.0000
  N   N1        1.0  0.37161964886150395  0.7594133959700072  0.13710515757107092  1.0000
  N   N2        1.0  0.6283704457420781  0.2405862740326299  0.8629057149584085  1.0000
  O   O1        1.0  0.7886374868249246  0.7428227847527255  0.8462509787091292  1.0000
  O   O2        1.0  0.2113898841571212  0.2571713192371377  0.15375708238276786  1.0000
  O   O3        1.0  0.22269576448321968  0.5109531865502035  0.5270954574243447  1.0000
  O   O4        1.0  0.7773028926133206  0.4890398742985623  0.47291515361700937  1.0000
  O   O5        1.0  0.727850358649867  0.5503595202786683  0.9650991760498329  1.0000
  O   O6        1.0  0.2721356291458719  0.4496400755112618  0.03489635356667259  1.0000
  O   O7        1.0  0.27518325481228345  0.6994931947957711  0.8948597429822199  1.0000
  O   O8        1.0  0.7248164014558752  0.3005108319379702  0.1051462089847277  1.0000
  O   O9        1.0  0.3397810145249522  0.005749192061877302  0.7821482557873551  1.0000
  O   O10       1.0  0.6602290831585405  0.9942579188660406  0.2178199087835395  1.0000
  O   O11       1.0  0.29623296043675396  0.0685377560423035  0.951891365517568  1.0000
  O   O12       1.0  0.703771486132865  0.9314486102492056  0.04810188217157223  1.0000
