data_image0
_chemical_formula_structural       Zn2H44C56N16O12
_chemical_formula_sum              "Zn2 H44 C56 N16 O12"
_cell_length_a       7.982948579
_cell_length_b       13.820669663644377
_cell_length_c       14.295
_cell_angle_alpha    113.22250874486825
_cell_angle_beta     90.0
_cell_angle_gamma    106.78648228518135

_space_group_name_H-M_alt    "P 1"
_space_group_IT_number       1

loop_
  _space_group_symop_operation_xyz
  'x, y, z'

loop_
  _atom_site_type_symbol
  _atom_site_label
  _atom_site_symmetry_multiplicity
  _atom_site_fract_x
  _atom_site_fract_y
  _atom_site_fract_z
  _atom_site_occupancy
  Zn  Zn1       1.0  0.44368268996635146  0.9999986837986652  0.7501177913480247  1.0000
  Zn  Zn2       1.0  0.5563194961427413  2.4880932585e-06  0.24988342489970705  1.0000
  H   H1        1.0  0.8234107111785677  0.960604703265737  0.4451140335216834  1.0000
  H   H2        1.0  0.8627662863372619  0.0398219325730764  0.05544602000957609  1.0000
  H   H3        1.0  0.17658814022261277  0.03939480989734529  0.5548872499317739  1.0000
  H   H4        1.0  0.13724134237176602  0.9601750924967545  0.9445508172080395  1.0000
  H   H5        1.0  0.6343479978377929  0.04385264364889  0.5748930633785605  1.0000
  H   H6        1.0  0.5907713047532468  0.956448758162672  0.9255290071716685  1.0000
  H   H7        1.0  0.3656496008934055  0.9561468695141995  0.4251054218937114  1.0000
  H   H8        1.0  0.409237982691721  0.0435515843648275  0.0744669960892068  1.0000
  H   H9        1.0  0.5753035425085145  0.795211192121556  0.6772737350831335  1.0000
  H   H10       1.0  0.7805994776466818  0.204619130700074  0.8226511574636675  1.0000
  H   H11       1.0  0.4246944709066723  0.20478915040595064  0.3227285640854091  1.0000
  H   H12       1.0  0.2194123151382286  0.7953812118274328  0.17734904306898613  1.0000
  H   H13       1.0  0.8855647928189256  0.626211604484034  0.3942958762641097  1.0000
  H   H14       1.0  0.2590478544489159  0.3739869561395891  0.10605690878477247  1.0000
  H   H15       1.0  0.1144261278784171  0.3737870793146313  0.6057008937477804  1.0000
  H   H16       1.0  0.7409580724340472  0.6260191919388517  0.8939448053910936  1.0000
  H   H17       1.0  0.8353116557894892  0.43953245552899733  0.43258592108509214  1.0000
  H   H18       1.0  0.395678796904626  0.5605607758134211  0.0675686131639921  1.0000
  H   H19       1.0  0.16468177024780323  0.560466228269668  0.5674094498362123  1.0000
  H   H20       1.0  0.6043150351986172  0.4394412254429199  0.9324294215270541  1.0000
  H   H21       1.0  0.8045318763224641  0.3444192852416846  0.5175511417924028  1.0000
  H   H22       1.0  0.46047950005576144  0.6552899503747865  0.9822387477128982  1.0000
  H   H23       1.0  0.1954690571166537  0.6555818866502392  0.48244937491003276  1.0000
  H   H24       1.0  0.5395126905476175  0.34470375723736163  0.017761721642635588  1.0000
  H   H25       1.0  0.708798284958661  0.21601957400216065  0.6012105886765723  1.0000
  H   H26       1.0  0.4930392341165232  0.7837012727161792  0.8985998167475556  1.0000
  H   H27       1.0  0.29120724447638213  0.7839807685253459  0.3987903114013775  1.0000
  H   H28       1.0  0.5069596345207117  0.21629326426039333  0.1014009687777673  1.0000
  H   H29       1.0  0.4148531171243022  0.4181547582676544  0.790750424482482  1.0000
  H   H30       1.0  0.9969770376536218  0.5815511598911485  0.7091186480526588  1.0000
  H   H31       1.0  0.5851486543008093  0.5818455842598524  0.2092490765048751  1.0000
  H   H32       1.0  0.0030243104694775893  0.4184508413651996  0.2908807857289801  1.0000
  H   H33       1.0  0.5127667994873021  0.550163034093778  0.7077412038718478  1.0000
  H   H34       1.0  0.963048846920799  0.4494383841482445  0.7920145790140438  1.0000
  H   H35       1.0  0.4872337192678344  0.4498373084337288  0.2922589966607987  1.0000
  H   H36       1.0  0.03694248846052523  0.5505611290148451  0.2079818076223461  1.0000
  H   H37       1.0  0.1092718426169625  0.9309681951210675  0.6407695025761697  1.0000
  H   H38       1.0  0.17848851980920702  0.0691482584250807  0.8592567735490348  1.0000
  H   H39       1.0  0.890723259392324  0.0690288299487563  0.3592301328226312  1.0000
  H   H40       1.0  0.8215157569558541  0.9308520841024261  0.14074552561950068  1.0000
  H   H41       1.0  0.18503296914674652  0.8341465341308378  0.6365279745567348  1.0000
  H   H42       1.0  0.35123580377126723  0.1659748956018277  0.863663192641056  1.0000
  H   H43       1.0  0.814971722302296  0.1658546377610861  0.3634732416909969  1.0000
  H   H44       1.0  0.6487663823378256  0.8340262762900962  0.13633662451608328  1.0000
  C   C1        1.0  0.7679049933006041  0.922123023593592  0.4963125570400138  1.0000
  C   C2        1.0  0.845914199768721  0.078133592539352  0.004077050345195203  1.0000
  C   C3        1.0  0.23209219074661996  0.0778756602050734  0.5036870111530618  1.0000
  C   C4        1.0  0.15409425830827675  0.9218650912593205  0.995921818302584  1.0000
  C   C5        1.0  0.6647540193656596  0.9697020015765574  0.5679217291607941  1.0000
  C   C6        1.0  0.6952812604631475  0.030576178031274992  0.9324502154629569  1.0000
  C   C7        1.0  0.3352452467195021  0.030298340950942297  0.4320784713718594  1.0000
  C   C8        1.0  0.3047259449438754  0.9694225057673902  0.06754795363953285  1.0000
  C   C9        1.0  0.6297611567673868  0.8317745518928062  0.6245835051102446  1.0000
  C   C10       1.0  0.7983729144614314  0.16817271131188954  0.8754559219061306  1.0000
  C   C11       1.0  0.3702368566478  0.1682257906347004  0.37541739496769816  1.0000
  C   C12       1.0  0.20163178560564177  0.8318259724867756  0.12454294674164855  1.0000
  C   C13       1.0  0.7289315256522357  0.7821569961682043  0.5494416787328119  1.0000
  C   C14       1.0  0.9469506295021048  0.21790306059745745  0.950743580533107  1.0000
  C   C15       1.0  0.27106732574893744  0.21784251699487805  0.4505596047206453  1.0000
  C   C16       1.0  0.053051979909000124  0.7820964525656249  0.04925840246564655  1.0000
  C   C17       1.0  0.750420978625435  0.6764619652602518  0.5354501888776966  1.0000
  C   C18       1.0  0.0741886553514703  0.323529254258645  0.9646395733116009  1.0000
  C   C19       1.0  0.24957536743579564  0.3235375479028377  0.46454969548516795  1.0000
  C   C20       1.0  0.9258114401016542  0.6764727469976961  0.03536335819651275  1.0000
  C   C21       1.0  0.8270860209924179  0.6089616539355092  0.4566334670117413  1.0000
  C   C22       1.0  0.218019921921595  0.3911249424915581  0.043591990135077176  1.0000
  C   C23       1.0  0.1729078197288629  0.3910378592275734  0.5433650182605305  1.0000
  C   C24       1.0  0.7819843376074117  0.6088803762224586  0.956411506506889  1.0000
  C   C25       1.0  0.8035661935895818  0.5153255816782405  0.4744639896781138  1.0000
  C   C26       1.0  0.28827539696695226  0.4847029592395059  0.025654690602827657  1.0000
  C   C27       1.0  0.1964288998016741  0.4846739314848491  0.5255337960488687  1.0000
  C   C28       1.0  0.7117213465421983  0.5153023594745106  0.9743481064938423  1.0000
  C   C29       1.0  0.6645127130239885  0.4557772164018274  0.608118367952116  1.0000
  C   C30       1.0  0.20912818390476676  0.5439469477741881  0.8917030957852958  1.0000
  C   C31       1.0  0.3354898877690858  0.5442247848545136  0.3918810658295229  1.0000
  C   C32       1.0  0.7908619074246132  0.45605007729564306  0.1082944409776161  1.0000
  C   C33       1.0  0.7195682969239668  0.36141296218477237  0.5775537699354842  1.0000
  C   C34       1.0  0.3585544550722375  0.6382581226684323  0.9222180780331186  1.0000
  C   C35       1.0  0.2804359712230635  0.638589868435993  0.4224473791065293  1.0000
  C   C36       1.0  0.6414360595591475  0.3617372436725573  0.07778092502610427  1.0000
  C   C37       1.0  0.6649377423334997  0.2888253295145518  0.6248046580465001  1.0000
  C   C38       1.0  0.3763429408677865  0.7109062989412321  0.8750525298478848  1.0000
  C   C39       1.0  0.33506777848350566  0.7111775011062134  0.37519579145021703  1.0000
  C   C40       1.0  0.6236538371134799  0.2890890673997574  0.1249464732113381  1.0000
  C   C41       1.0  0.555705945807901  0.3089025833670718  0.7023969362741482  1.0000
  C   C42       1.0  0.24701533449569973  0.6908572434789517  0.7974954854783576  1.0000
  C   C43       1.0  0.44430125098109124  0.691098588524852  0.2976042799735835  1.0000
  C   C44       1.0  0.7529847695754555  0.3091422696841377  0.20250649752039607  1.0000
  C   C45       1.0  0.5022851692444448  0.403727964201039  0.7318844390682386  1.0000
  C   C46       1.0  0.09885619905984562  0.5959862476019494  0.7679759028947544  1.0000
  C   C47       1.0  0.49771660218066677  0.5962723783264678  0.2681164610097113  1.0000
  C   C48       1.0  0.9011413996713599  0.404013265561133  0.23202258237751752  1.0000
  C   C49       1.0  0.5558042765938254  0.4772544373934408  0.6857994299729384  1.0000
  C   C50       1.0  0.07893557463708596  0.5224008895358025  0.8140048857609584  1.0000
  C   C51       1.0  0.44419790951526744  0.522746734498483  0.3142017862748006  1.0000
  C   C52       1.0  0.9210536787063006  0.47759696489844566  0.1859915680811497  1.0000
  C   C53       1.0  0.49366708656223307  0.23053262196834368  0.7525319811072251  1.0000
  C   C54       1.0  0.2630685162208337  0.7693947364903051  0.7475404314614024  1.0000
  C   C55       1.0  0.5063359375328531  0.769467720559163  0.2474675198801321  1.0000
  C   C56       1.0  0.7369345078742526  0.23060560603720148  0.2524611681618438  1.0000
  N   N1        1.0  0.801957386269855  0.8295933234711227  0.48654316429863087  1.0000
  N   N2        1.0  0.9724613110147757  0.1706301180850645  0.013786926760282406  1.0000
  N   N3        1.0  0.1980414651313183  0.17040618969195978  0.5134574196095301  1.0000
  N   N4        1.0  0.027542551066304113  0.8293693950780252  0.9862143566931748  1.0000
  N   N5        1.0  0.5982257858818442  0.9245480851544341  0.6333748479216297  1.0000
  N   N6        1.0  0.6739643683856257  0.0754812851277364  0.8667917176091962  1.0000
  N   N7        1.0  0.4017713981653799  0.0754505986442382  0.3666240207261495  1.0000
  N   N8        1.0  0.3260415843514224  0.9245173986709287  0.13320715103859015  1.0000
  N   N9        1.0  0.6841999903213889  0.6277135834466492  0.5982199812601294  1.0000
  N   N10       1.0  0.05692098540151853  0.3721208861970808  0.901705792590306  1.0000
  N   N11       1.0  0.3158005284337476  0.3722867590808575  0.40178091881781336  1.0000
  N   N12       1.0  0.9430741079897301  0.6278786269660088  0.09829758949903321  1.0000
  N   N13       1.0  0.7181246447155586  0.5299904033330803  0.5603944828727592  1.0000
  N   N14       1.0  0.18855500914874307  0.4698531893192523  0.9395333697547485  1.0000
  N   N15       1.0  0.281875874039578  0.4700099391944263  0.4396057176598873  1.0000
  N   N16       1.0  0.8114379935865443  0.5301471532082473  0.060467530323194296  1.0000
  O   O1        1.0  0.4302269304867536  0.2643897656407503  0.8369381059071017  1.0000
  O   O2        1.0  0.16556787203919757  0.7356147237088493  0.6632343645266019  1.0000
  O   O3        1.0  0.5697794283162524  0.7356122356155907  0.16306272696512994  1.0000
  O   O4        1.0  0.834436819409845  0.2643864481830747  0.33676685172113  1.0000
  O   O5        1.0  0.5088820234401012  0.1334862032205919  0.7067028473258432  1.0000
  O   O6        1.0  0.37520495939487114  0.8664585718908526  0.7934069848013223  1.0000
  O   O7        1.0  0.4911214153389737  0.866514968671332  0.293296969831303  1.0000
  O   O8        1.0  0.6247972267142217  0.1335426000010713  0.20659702962759496  1.0000
  O   O9        1.0  0.21581523340960723  0.909495120951547  0.6304275520093867  1.0000
  O   O10       1.0  0.3064917635909126  0.09060723339948137  0.8697710337345015  1.0000
  O   O11       1.0  0.7841836093735423  0.09050688030479387  0.3695746799534305  1.0000
  O   O12       1.0  0.6935116751881549  0.9093939384924424  0.130229482967941  1.0000
