data_image0
_chemical_formula_structural       Zn4H44C60I8N12O4
_chemical_formula_sum              "Zn4 H44 C60 I8 N12 O4"
_cell_length_a       7.200621860635335
_cell_length_b       13.218953882782818
_cell_length_c       18.32853494805441
_cell_angle_alpha    89.99986184209617
_cell_angle_beta     89.99975910298015
_cell_angle_gamma    91.3221650155632

_space_group_name_H-M_alt    "P 1"
_space_group_IT_number       1

loop_
  _space_group_symop_operation_xyz
  'x, y, z'

loop_
  _atom_site_type_symbol
  _atom_site_label
  _atom_site_symmetry_multiplicity
  _atom_site_fract_x
  _atom_site_fract_y
  _atom_site_fract_z
  _atom_site_occupancy
  Zn  Zn1       1.0  0.7310364289446837  0.12796020739963151  0.3149426216003946  1.0000
  Zn  Zn2       1.0  0.768967386699714  0.3720424558747483  0.8149446955066895  1.0000
  Zn  Zn3       1.0  0.26896453291954714  0.8720400231017963  0.685056491584682  1.0000
  Zn  Zn4       1.0  0.2310392085939199  0.6279600579767789  0.18505550886640526  1.0000
  H   H1        1.0  0.8966606388892728  0.5781423399975836  0.8641665640121803  1.0000
  H   H2        1.0  0.6033409244465203  0.9218596043604208  0.36416800308870023  1.0000
  H   H3        1.0  0.10334317859682329  0.42186016719877256  0.13583636834994195  1.0000
  H   H4        1.0  0.396660063358766  0.07814138282186178  0.6358327468877294  1.0000
  H   H5        1.0  0.7534566441305016  0.9060883042674774  0.08856157645560363  1.0000
  H   H6        1.0  0.7465422175554863  0.5939107907285859  0.5885630860579171  1.0000
  H   H7        1.0  0.2465386843013633  0.09390964288291309  0.9114369911387998  1.0000
  H   H8        1.0  0.2534586924088984  0.40608792640550456  0.41143602712853083  1.0000
  H   H9        1.0  0.8721929837849275  0.0008454630515047004  0.19588236414523416  1.0000
  H   H10       1.0  0.6278037095775915  0.4991553194769409  0.6958833566507467  1.0000
  H   H11       1.0  0.12780108550015973  0.9991562641919959  0.8041162034468885  1.0000
  H   H12       1.0  0.3721943447560676  0.5008411209594001  0.3041135741506906  1.0000
  H   H13       1.0  0.6173569876425021  0.7896022309333685  0.03382364684832601  1.0000
  H   H14       1.0  0.8826439333938509  0.710399325598182  0.5338225436670927  1.0000
  H   H15       1.0  0.3826425334077684  0.21039648286984663  0.9661787399233436  1.0000
  H   H16       1.0  0.11735283583719541  0.28960013824573144  0.46617547832744344  1.0000
  H   H17       1.0  0.14410522123566946  0.7410025899683107  0.8904571970545379  1.0000
  H   H18       1.0  0.3558977114569474  0.7589975450770796  0.3904579593156187  1.0000
  H   H19       1.0  0.855898414615737  0.2589946204470408  0.10954300732567653  1.0000
  H   H20       1.0  0.644101887448997  0.2410034387790247  0.6095433362593001  1.0000
  H   H21       1.0  0.35042661752974874  0.10972245372934711  0.24428427731572105  1.0000
  H   H22       1.0  0.14956981692490962  0.3902764401588144  0.7442832431368134  1.0000
  H   H23       1.0  0.6495687368461276  0.8902762501028362  0.7557153814726835  1.0000
  H   H24       1.0  0.8504324819388103  0.6097222803014476  0.25571532445114553  1.0000
  H   H25       1.0  0.12995231209372798  0.9786265020058595  0.03650222113807901  1.0000
  H   H26       1.0  0.3700461191186548  0.5213748297635946  0.5365031084640252  1.0000
  H   H27       1.0  0.870043068237976  0.021372958511875605  0.9634963464549532  1.0000
  H   H28       1.0  0.6299549724804052  0.4786291841514938  0.4634987327043376  1.0000
  H   H29       1.0  0.38698534087617287  0.42497205537718935  0.8675509153961303  1.0000
  H   H30       1.0  0.1130181703410855  0.0750287048039624  0.3675474932415313  1.0000
  H   H31       1.0  0.6130198136271402  0.5750289417836286  0.13244819778480385  1.0000
  H   H32       1.0  0.8869812728889601  0.9249677389576193  0.632449437558762  1.0000
  H   H33       1.0  0.2091324632933507  0.0228177701607777  0.13805393976247876  1.0000
  H   H34       1.0  0.2908637582641802  0.47718224224085054  0.6380519730895104  1.0000
  H   H35       1.0  0.7908601132808927  0.9771809270181183  0.8619473558202702  1.0000
  H   H36       1.0  0.7091358147154737  0.5228179849390885  0.3619449577073369  1.0000
  H   H37       1.0  0.2323446369124014  0.5710564145463977  0.9252794785945898  1.0000
  H   H38       1.0  0.267657996664262  0.9289458708586764  0.42527681404703105  1.0000
  H   H39       1.0  0.7676591286945184  0.42894457928917973  0.07471963458749543  1.0000
  H   H40       1.0  0.7323415503566083  0.0710535996347801  0.574721753542548  1.0000
  H   H41       1.0  0.7627803564134936  0.7333641891624081  0.9190383542877928  1.0000
  H   H42       1.0  0.7372234166254685  0.7666383299147767  0.41903984511451153  1.0000
  H   H43       1.0  0.23722065732989955  0.2666375546997983  0.08096457807732091  1.0000
  H   H44       1.0  0.2627734304287586  0.2333634039717083  0.5809630872540624  1.0000
  C   C1        1.0  0.7498709720837482  0.5803853326200182  0.8786271955389328  1.0000
  C   C2        1.0  0.7501346013953808  0.9196165720084508  0.37862785000955074  1.0000
  C   C3        1.0  0.2501355972511092  0.41961642454501896  0.12137464562687945  1.0000
  C   C4        1.0  0.24986497156359636  0.08038365516492262  0.6213728999687123  1.0000
  C   C5        1.0  0.6576419929174976  0.9499570265125997  0.12109449559262235  1.0000
  C   C6        1.0  0.8423552574223975  0.5500457367488991  0.6210959238594003  1.0000
  C   C7        1.0  0.3423506615153684  0.0500439407201227  0.8789051631960307  1.0000
  C   C8        1.0  0.15764573038583762  0.4499552504343214  0.37890428051967723  1.0000
  C   C9        1.0  0.4843519554350379  0.665379443045822  0.9260921270364978  1.0000
  C   C10       1.0  0.015650695281841796  0.834623596245727  0.4260916824837012  1.0000
  C   C11       1.0  0.5156517842101566  0.33462079410233514  0.073909168535657  1.0000
  C   C12       1.0  0.9843474887896093  0.1653766276052195  0.5739074307036773  1.0000
  C   C13       1.0  0.7254878722218692  0.0021883280290709004  0.18129266577562936  1.0000
  C   C14       1.0  0.7745089531393745  0.4978117479663737  0.6812934178312349  1.0000
  C   C15       1.0  0.2745061451604229  0.9978118858461542  0.8187064474152097  1.0000
  C   C16       1.0  0.22548912714125177  0.502185449152698  0.31870405856685846  1.0000
  C   C17       1.0  0.46770443799127287  0.953415561075339  0.10416149054221793  1.0000
  C   C18       1.0  0.03229328669830522  0.5465862948085487  0.6041618012995686  1.0000
  C   C19       1.0  0.5322895793821516  0.046584652797072586  0.8958392594406562  1.0000
  C   C20       1.0  0.9677076751629625  0.45341393569194105  0.395837857482853  1.0000
  C   C21       1.0  0.48210336530585357  0.8115042048449015  0.013338741590359903  1.0000
  C   C22       1.0  0.01789531668936211  0.6884972065512331  0.5133366438883088  1.0000
  C   C23       1.0  0.5178976224964842  0.1884967823364505  0.9866625539834079  1.0000
  C   C24       1.0  0.9821056192190412  0.31150226726464336  0.48666356049214715  1.0000
  C   C25       1.0  0.2189145431134918  0.7791504025928403  0.9345004472080877  1.0000
  C   C26       1.0  0.2810907165166867  0.7208503443951102  0.4345003092678824  1.0000
  C   C27       1.0  0.7810877297855467  0.22084756117906323  0.06550084836727882  1.0000
  C   C28       1.0  0.7189089342920526  0.2791521528292762  0.56550044070832  1.0000
  C   C29       1.0  0.3956127682984842  0.7543090560049704  0.9582572680323556  1.0000
  C   C30       1.0  0.10439087119373622  0.7456923626799041  0.45825737880552725  1.0000
  C   C31       1.0  0.6043867527576978  0.24568965780012772  0.04174402754463102  1.0000
  C   C32       1.0  0.8956059499312443  0.25430861452947795  0.5417417343823205  1.0000
  C   C33       1.0  0.3875975063984073  0.8928477459755796  0.043800539127744315  1.0000
  C   C34       1.0  0.11240087175709589  0.6071543173918955  0.5438006106393588  1.0000
  C   C35       1.0  0.6123950961316638  0.10715170788886041  0.9561996652596253  1.0000
  C   C36       1.0  0.8875974161110916  0.39284893319279485  0.45619904814261525  1.0000
  C   C37       1.0  0.4344010057470555  0.06347835007851188  0.20817170589012335  1.0000
  C   C38       1.0  0.0655986233969656  0.4365214312742509  0.7081718204560375  1.0000
  C   C39       1.0  0.5655972042684141  0.9365226304542275  0.7918284984912562  1.0000
  C   C40       1.0  0.9344036754667542  0.5634772891860109  0.2918267471319212  1.0000
  C   C41       1.0  0.21099120870765384  0.9147808630009135  0.017957902139237106  1.0000
  C   C42       1.0  0.28901025295119354  0.5852220525282164  0.5179599023551449  1.0000
  C   C43       1.0  0.7890083383161723  0.08521860749347353  0.9820401198529897  1.0000
  C   C44       1.0  0.710992253494183  0.4147827213957882  0.48204193881137075  1.0000
  C   C45       1.0  0.46496580604416937  0.4947179767253473  0.8800215079601873  1.0000
  C   C46       1.0  0.035038985009066395  0.005283500597251099  0.3800188832890613  1.0000
  C   C47       1.0  0.53504073735553  0.5052830237607111  0.11997760521959584  1.0000
  C   C48       1.0  0.9649619249612229  0.9947152165387081  0.6199791387026965  1.0000
  C   C49       1.0  0.3565620209193127  0.013886975920897299  0.14854511696017172  1.0000
  C   C50       1.0  0.14343411300404801  0.4861137571000287  0.6485444697686874  1.0000
  C   C51       1.0  0.6434292186613391  0.986113231301033  0.8514556330250047  1.0000
  C   C52       1.0  0.8565654599697012  0.5138864700780345  0.35145355222285  1.0000
  C   C53       1.0  0.3792690500007509  0.5770351934071983  0.9112891446283129  1.0000
  C   C54       1.0  0.12073370908031929  0.9229663834028441  0.41128727938520643  1.0000
  C   C55       1.0  0.6207346637004251  0.42296428705916617  0.08871105974983352  1.0000
  C   C56       1.0  0.8792643971443184  0.07703157039802729  0.588711288206895  1.0000
  C   C57       1.0  0.6747444491794639  0.666150812458298  0.9096214761536959  1.0000
  C   C58       1.0  0.8252566480177562  0.8338517323391343  0.40962215731416773  1.0000
  C   C59       1.0  0.3252565386140134  0.3338501747202329  0.09038145621210703  1.0000
  C   C60       1.0  0.1747401471425363  0.1661484881818823  0.5903796838610875  1.0000
  I   I1        1.0  0.9888429554305134  0.24235070968018851  0.2617111025940276  1.0000
  I   I2        1.0  0.5111695363212618  0.25764534636817155  0.7617138046389942  1.0000
  I   I3        1.0  0.011160680417937401  0.7576465007342249  0.7382896473835248  1.0000
  I   I4        1.0  0.48883700706367256  0.7423556541132043  0.23828803652750719  1.0000
  I   I5        1.0  0.4722363430367055  0.18109008867840964  0.4014810750321446  1.0000
  I   I6        1.0  0.0277667748779109  0.3189097981800018  0.901482550522687  1.0000
  I   I7        1.0  0.5277645669247235  0.8189086284547359  0.5985185837516485  1.0000
  I   I8        1.0  0.9722355499327833  0.6810896789629975  0.09851656266192783  1.0000
  N   N1        1.0  0.6472768831654321  0.49633708611605687  0.8636114243240984  1.0000
  N   N2        1.0  0.8527235759167837  0.0036638898528309014  0.3636104590829917  1.0000
  N   N3        1.0  0.35272829727893656  0.503664667725623  0.1363893256481745  1.0000
  N   N4        1.0  0.14727594515416337  0.9963348239569499  0.6363881085072693  1.0000
  N   N5        1.0  0.615653394882841  0.05690973630805731  0.22497050391962156  1.0000
  N   N6        1.0  0.8843442946213216  0.4430886795083566  0.7249711705490471  1.0000
  N   N7        1.0  0.38434332243949854  0.943088214165698  0.775029154868321  1.0000
  N   N8        1.0  0.11565795233665452  0.5569085275826922  0.2750284882349733  1.0000
  N   N9        1.0  0.12805197502180482  0.8583220839607294  0.9644341054130341  1.0000
  N   N10       1.0  0.3719515456841266  0.641677800119517  0.46443723008922433  1.0000
  N   N11       1.0  0.8719461312087446  0.14167586984201821  0.035563370984377216  1.0000
  N   N12       1.0  0.6280482089154377  0.3583277238367374  0.5355651566762633  1.0000
  O   O1        1.0  0.9610058774618864  0.8785592485180443  0.942480743511837  1.0000
  O   O2        1.0  0.5389990306723648  0.6214431932993636  0.44248500049904055  1.0000
  O   O3        1.0  0.038996421422510315  0.12143947194878281  0.05751400489470632  1.0000
  O   O4        1.0  0.46100766837665225  0.3785623472727836  0.5575233878314736  1.0000
