data_image0
_chemical_formula_structural       Zn4H36C40N36
_chemical_formula_sum              "Zn4 H36 C40 N36"
_cell_length_a       6.802046411
_cell_length_b       11.674418018372108
_cell_length_c       16.0105
_cell_angle_alpha    90.0
_cell_angle_beta     90.0
_cell_angle_gamma    99.99356390543566

_space_group_name_H-M_alt    "P 1"
_space_group_IT_number       1

loop_
  _space_group_symop_operation_xyz
  'x, y, z'

loop_
  _atom_site_type_symbol
  _atom_site_label
  _atom_site_symmetry_multiplicity
  _atom_site_fract_x
  _atom_site_fract_y
  _atom_site_fract_z
  _atom_site_occupancy
  Zn  Zn1       1.0  0.8128875785019218  0.1547417495501549  0.3295837106898603  1.0000
  Zn  Zn2       1.0  0.6871148715391299  0.345258901647064  0.8295837106898605  1.0000
  Zn  Zn3       1.0  0.18711306696181396  0.8452586830737231  0.6704162893101397  1.0000
  Zn  Zn4       1.0  0.3128845628349027  0.6547424007473666  0.1704175384903692  1.0000
  H   H1        1.0  0.9536006490469972  0.0090751859907812  0.1319921301645763  1.0000
  H   H2        1.0  0.5464000717921563  0.490924595435878  0.6319921301645763  1.0000
  H   H3        1.0  0.046401466562549766  0.9909252466330897  0.8680059960650794  1.0000
  H   H4        1.0  0.45359858541358716  0.5090740976468879  0.3680072452453089  1.0000
  H   H5        1.0  0.45184454572548555  0.9784040296958381  0.3134674120108656  1.0000
  H   H6        1.0  0.048157235452549706  0.5215961843546992  0.8134680366009803  1.0000
  H   H7        1.0  0.5481531594466418  0.02159640292804  0.686533212579242  1.0000
  H   H8        1.0  0.9518466093588954  0.4784051180397313  0.1865325879891344  1.0000
  H   H9        1.0  0.12999245950426544  0.954897610624826  0.2363149183348412  1.0000
  H   H10       1.0  0.3700093216737698  0.545102603425704  0.7363155429249559  1.0000
  H   H11       1.0  0.870006974869767  0.045103691769604395  0.7636838324849293  1.0000
  H   H12       1.0  0.6299942640815813  0.4548978291981669  0.2636850816651588  1.0000
  H   H13       1.0  0.3839441157941437  0.2568354175200724  0.0898110614908987  1.0000
  H   H14       1.0  0.1160560774096737  0.2431643639065868  0.589812310671121  1.0000
  H   H15       1.0  0.616056529669592  0.7431650151037985  0.910187689328879  1.0000
  H   H16       1.0  0.8839437908857732  0.7568334594056195  0.4101914368695532  1.0000
  H   H17       1.0  0.6859775465947706  0.2711918503324071  0.1745111020892551  1.0000
  H   H18       1.0  0.8140246443901872  0.22880793109425207  0.6745117266793699  1.0000
  H   H19       1.0  0.31402283981287127  0.7288077125209114  0.8254882733206301  1.0000
  H   H20       1.0  0.1859754829613607  0.7711907619885068  0.3254913962711967  1.0000
  H   H21       1.0  0.9945325123770417  0.4145987499849255  0.9625383342181664  1.0000
  H   H22       1.0  0.5054696786079161  0.0854010314417337  0.4625383342181664  1.0000
  H   H23       1.0  0.00546813308670123  0.5854016826389525  0.0374610411917189  1.0000
  H   H24       1.0  0.4945324370016309  0.9145994011821443  0.5374616657818336  1.0000
  H   H25       1.0  0.14366977185808588  0.3261178610011797  0.0794659754536085  1.0000
  H   H26       1.0  0.356327221998022  0.17388105065492  0.5794653508634937  1.0000
  H   H27       1.0  0.85633087360565  0.6738825716226984  0.9205333999562768  1.0000
  H   H28       1.0  0.6436697060058093  0.8261167726572793  0.4205340245463915  1.0000
  H   H29       1.0  0.7420495716751603  0.0038330788442948  0.0234246275881418  1.0000
  H   H30       1.0  0.7579511491639862  0.4961667025823644  0.5234246275881418  1.0000
  H   H31       1.0  0.25795254393437966  0.996167353779576  0.9765747478217435  1.0000
  H   H32       1.0  0.24204776709784426  0.5038328602709541  0.4765753724118511  1.0000
  H   H33       1.0  0.6006713412439096  0.1101677480497045  0.909701133631053  1.0000
  H   H34       1.0  0.8993293795952368  0.3898320333769547  0.409701133631053  1.0000
  H   H35       1.0  0.3993305153095362  0.8898318148036138  0.0902982417788323  1.0000
  H   H36       1.0  0.10066979572269469  0.6101683992469162  0.5902982417788323  1.0000
  C   C1        1.0  0.4283394602244427  0.039578909192123  0.2646806783048632  1.0000
  C   C2        1.0  0.07166194406908491  0.4604200024639766  0.7646813028949779  1.0000
  C   C3        1.0  0.5716582449476846  0.9604215234317549  0.7353186971050221  1.0000
  C   C4        1.0  0.9283416416862664  0.5395804301598943  0.23531932169513686  1.0000
  C   C5        1.0  0.2502577197054947  0.0264540714883736  0.2217625932981448  1.0000
  C   C6        1.0  0.2497454137899382  0.4735457099382856  0.7217632178882596  1.0000
  C   C7        1.0  0.749743184814342  0.9735472309060569  0.7782374067018552  1.0000
  C   C8        1.0  0.7502581719654129  0.5264547226855854  0.2782380312919628  1.0000
  C   C9        1.0  0.22252604079844218  0.1070522299148564  0.15891383779394636  1.0000
  C   C10       1.0  0.2774741524053752  0.3929475515118027  0.6589150869741758  1.0000
  C   C11       1.0  0.7774716643736851  0.8929482027090145  0.8410849130258242  1.0000
  C   C12       1.0  0.7225262340022667  0.6070520113415157  0.3410861622060537  1.0000
  C   C13       1.0  0.38618110614741136  0.1950303915167098  0.1402048655569814  1.0000
  C   C14       1.0  0.11382202734802152  0.3049693899099495  0.6402061147372038  1.0000
  C   C15       1.0  0.613823949753744  0.8049700411071611  0.859794509852911  1.0000
  C   C16       1.0  0.8861810402951347  0.6950293031728165  0.3597970082133628  1.0000
  C   C17       1.0  0.5588818696795668  0.202596525591261  0.1871677961337852  1.0000
  C   C18       1.0  0.9411200622492898  0.2974023860648458  0.6871684207238999  1.0000
  C   C19       1.0  0.44111851672807484  0.7974030372620575  0.8128309546859853  1.0000
  C   C20       1.0  0.05888179430415621  0.7025971767884727  0.3128334530464372  1.0000
  C   C21       1.0  0.9423495834540887  0.3233276370546179  0.9773773461166115  1.0000
  C   C22       1.0  0.557651137385065  0.1766721443720414  0.4773773461166115  1.0000
  C   C23       1.0  0.05764959186384293  0.6766727955692602  0.0226220292932737  1.0000
  C   C24       1.0  0.4423489899664829  0.8233265487107175  0.5226220292932737  1.0000
  C   C25       1.0  0.03066999478510011  0.2717928617872261  0.0420174260641488  1.0000
  C   C26       1.0  0.4693301984187243  0.2282069196394261  0.5420168014740341  1.0000
  C   C27       1.0  0.9693311687908304  0.7282093103777569  0.9579825739358512  1.0000
  C   C28       1.0  0.5306696698767297  0.7717909036727731  0.4579819493457435  1.0000
  C   C29       1.0  0.9640327191190323  0.1530369992586103  0.0588988476312409  1.0000
  C   C30       1.0  0.5359665315743101  0.346962782168049  0.5588988476312409  1.0000
  C   C31       1.0  0.035966456198899315  0.8469634333652606  0.9411017769588739  1.0000
  C   C32       1.0  0.46403238468752755  0.6530367806852695  0.4411011523687591  1.0000
  C   C33       1.0  0.8010567554312827  0.0952764063448726  0.0116354892102066  1.0000
  C   C34       1.0  0.6989424952620594  0.40472337508178663  0.5116354892102066  1.0000
  C   C35       1.0  0.19894414908855398  0.904724896049558  0.9883645107897934  1.0000
  C   C36       1.0  0.301056420999771  0.5952761877715318  0.4883645107897934  1.0000
  C   C37       1.0  0.7219687106391818  0.1540337563168279  0.9487704943630746  1.0000
  C   C38       1.0  0.7780305400541607  0.3459660251098313  0.4487704943630746  1.0000
  C   C39       1.0  0.27803046467874987  0.8459666763070501  0.0512288810468107  1.0000
  C   C40       1.0  0.22196811715157588  0.6540326679729276  0.5512295056369254  1.0000
  N   N1        1.0  0.0226545197576229  0.272734823300361  0.2786333968333281  1.0000
  N   N2        1.0  0.4773523311977144  0.22726756743796978  0.7786327722432134  1.0000
  N   N3        1.0  0.9773488069416345  0.7272647395529575  0.7213666031666719  1.0000
  N   N4        1.0  0.5226439038286088  0.7727328651859082  0.2213678523468943  1.0000
  N   N5        1.0  0.1725137846057692  0.3168226230594939  0.313544236594737  1.0000
  N   N6        1.0  0.327476292442732  0.1831728095143745  0.8135467349551888  1.0000
  N   N7        1.0  0.827479425938165  0.6831725909410338  0.6864545142250407  1.0000
  N   N8        1.0  0.6725312698286103  0.8168311021917276  0.1864520158645888  1.0000
  N   N9        1.0  0.3213379759358688  0.36131486612759295  0.3452765372724116  1.0000
  N   N10       1.0  0.17867181531107687  0.1386875246107309  0.8452746635020745  1.0000
  N   N11       1.0  0.6786665618530919  0.638683826955166  0.6547253364979255  1.0000
  N   N12       1.0  0.8213229495694421  0.8613129080131401  0.1547259610880332  1.0000
  N   N13       1.0  0.8633216109777848  0.9998290878241604  0.359529683645107  1.0000
  N   N14       1.0  0.6366794867458693  0.5001719959969293  0.8595315574154441  1.0000
  N   N15       1.0  0.1366817157214655  0.0001704750291509  0.6404690671746636  1.0000
  N   N16       1.0  0.3633184774823519  0.4998293063975082  0.1404690671746636  1.0000
  N   N17       1.0  0.009940741957990471  0.9802401153414735  0.3951912807220239  1.0000
  N   N18       1.0  0.4900651906013636  0.5197592289385042  0.8951912807220239  1.0000
  N   N19       1.0  0.9900569632141368  0.0197603172824046  0.604806845507639  1.0000
  N   N20       1.0  0.5099337256604741  0.4802403339148142  0.1048087192779761  1.0000
  N   N21       1.0  0.14823788267088392  0.9537999601820104  0.42834764685675  1.0000
  N   N22       1.0  0.3517592290136378  0.5461993840979673  0.9283488960369723  1.0000
  N   N23       1.0  0.8517651849722723  0.0461987329007556  0.5716517285531353  1.0000
  N   N24       1.0  0.6482364879004905  0.4537993089847916  0.0716511039630277  1.0000
  N   N25       1.0  0.5812727844362653  0.1278780161294719  0.2492751631741683  1.0000
  N   N26       1.0  0.918727936402888  0.3721217652971873  0.7492764123543907  1.0000
  N   N27       1.0  0.41872613182557217  0.8721215467238395  0.7507235876456093  1.0000
  N   N28       1.0  0.0812712389150434  0.6278786673266907  0.2507254614159464  1.0000
  N   N29       1.0  0.0409575249686753  0.0888496716998759  0.1188651197651538  1.0000
  N   N30       1.0  0.45904266823514206  0.4111501097267833  0.6188651197651538  1.0000
  N   N31       1.0  0.9590431204950605  0.9111507609240022  0.8811336310546167  1.0000
  N   N32       1.0  0.5409562480266956  0.5888494531265351  0.3811348802348462  1.0000
  N   N33       1.0  0.7924342327136245  0.2665290103768214  0.9301052434339994  1.0000
  N   N34       1.0  0.707566747181623  0.23347164082039737  0.430105868024107  1.0000
  N   N35       1.0  0.2075664127501184  0.7334714222470566  0.0698947565660006  1.0000
  N   N36       1.0  0.29243363922601867  0.7665279220329211  0.5698947565660006  1.0000
