data_image0
_chemical_formula_structural       Cd2H32C32N8O8
_chemical_formula_sum              "Cd2 H32 C32 N8 O8"
_cell_length_a       7.996744263974378
_cell_length_b       8.575783141981999
_cell_length_c       12.07201177601842
_cell_angle_alpha    90.0001998797617
_cell_angle_beta     90.00001196736893
_cell_angle_gamma    94.62637676046049

_space_group_name_H-M_alt    "P 1"
_space_group_IT_number       1

loop_
  _space_group_symop_operation_xyz
  'x, y, z'

loop_
  _atom_site_type_symbol
  _atom_site_label
  _atom_site_symmetry_multiplicity
  _atom_site_fract_x
  _atom_site_fract_y
  _atom_site_fract_z
  _atom_site_occupancy
  Cd  Cd1       1.0  0.5000033920538982  0.5000000542269801  0.5000001669152779  1.0000
  Cd  Cd2       1.0  0.4999996674982227  0.9999988508188905  8.573949869999995e-07  1.0000
  H   H1        1.0  0.2931869090771072  0.6117578738518714  0.2003501562958334  1.0000
  H   H2        1.0  0.7068102055143514  0.888247972352886  0.7003417549068159  1.0000
  H   H3        1.0  0.7068129639584272  0.38824817104462983  0.7996526626287871  1.0000
  H   H4        1.0  0.29318693568423987  0.11175576209480198  0.2996560938406816  1.0000
  H   H5        1.0  0.27543043441378495  0.7213690786273547  0.32255030574919624  1.0000
  H   H6        1.0  0.7245690416959009  0.7786350003372888  0.8225424604824879  1.0000
  H   H7        1.0  0.7245729525426159  0.2786345829546093  0.6774549982596907  1.0000
  H   H8        1.0  0.2754253676680349  0.22136642367586026  0.17745621662430716  1.0000
  H   H9        1.0  0.007381733847800782  0.48874504856527057  0.2051271514323432  1.0000
  H   H10       1.0  0.992620706021569  0.011259559914208196  0.7051219816423355  1.0000
  H   H11       1.0  0.9926196218727268  0.5112633213507464  0.7948781525823133  1.0000
  H   H12       1.0  0.007377999348129428  0.9887347870271623  0.2948791805428854  1.0000
  H   H13       1.0  0.8034892832744733  0.2901551131975921  0.2943813352720639  1.0000
  H   H14       1.0  0.1965099468741016  0.20985465753322785  0.7943790550861748  1.0000
  H   H15       1.0  0.1965144539804911  0.7098520577635695  0.7056214836541911  1.0000
  H   H16       1.0  0.8034912567959012  0.790139660244314  0.20561796528742352  1.0000
  H   H17       1.0  0.879927325320203  0.17114060828664182  0.4748830027903992  1.0000
  H   H18       1.0  0.1200675996854059  0.328863075889103  0.974883496638178  1.0000
  H   H19       1.0  0.12007512750174947  0.828853694920198  0.5251165026702934  1.0000
  H   H20       1.0  0.8799387173553299  0.6711323533783186  0.0251143520994574  1.0000
  H   H21       1.0  0.1572630510169901  0.26174580454863167  0.5621800400662378  1.0000
  H   H22       1.0  0.8427292824715025  0.23825821693274202  0.062179709858789095  1.0000
  H   H23       1.0  0.842738619720066  0.7382531924154492  0.4378194654002811  1.0000
  H   H24       1.0  0.15727726810259662  0.7617395519269292  0.9378189672441335  1.0000
  H   H25       1.0  0.5513999122076354  0.7004032965358816  0.31923353270618543  1.0000
  H   H26       1.0  0.4485984288929359  0.7996019504828309  0.8192290213066612  1.0000
  H   H27       1.0  0.44860222559648116  0.2996003796147447  0.6807684578532613  1.0000
  H   H28       1.0  0.5513976966887029  0.20040413813800476  0.1807713125307586  1.0000
  H   H29       1.0  0.5420993515999369  0.518874511469086  0.26771745070994507  1.0000
  H   H30       1.0  0.4578990654826498  0.9811316517819221  0.7677183648384157  1.0000
  H   H31       1.0  0.4579006382004779  0.4811327032123316  0.7322812264044172  1.0000
  H   H32       1.0  0.5420994416344059  0.018873237890176097  0.2322819689976399  1.0000
  C   C1        1.0  0.3103305569652406  0.6078396154667657  0.2908031787989458  1.0000
  C   C2        1.0  0.6896691275432048  0.8921666468248616  0.7907972703120121  1.0000
  C   C3        1.0  0.6896755618251548  0.39216635654565823  0.7091996401259448  1.0000
  C   C4        1.0  0.31032653097170737  0.10783476261146765  0.2092014067948327  1.0000
  C   C5        1.0  0.18696096577591703  0.48187616093766644  0.338673245657958  1.0000
  C   C6        1.0  0.8130355676029596  0.018131517362199596  0.838666415480354  1.0000
  C   C7        1.0  0.8130416390942656  0.518132194393374  0.6613287449073652  1.0000
  C   C8        1.0  0.18696337129879478  0.9818651691632637  0.1613322616207711  1.0000
  C   C9        1.0  0.03641864090633359  0.4358764648414634  0.2842969898576939  1.0000
  C   C10       1.0  0.9635824957267902  0.06412737811754708  0.7842927773594823  1.0000
  C   C11       1.0  0.9635849795814623  0.5641295363205148  0.7157041723423914  1.0000
  C   C12       1.0  0.03641745879257027  0.935866954238847  0.21570507137641204  1.0000
  C   C13       1.0  0.9235264972872487  0.32438692241319694  0.3333111019039947  1.0000
  C   C14       1.0  0.07647229661629498  0.17561836075577725  0.8333070653825699  1.0000
  C   C15       1.0  0.07647723996674217  0.675620248541854  0.6666892319352228  1.0000
  C   C16       1.0  0.9235274243690413  0.8243736320042954  0.16668829826333817  1.0000
  C   C17       1.0  0.9651964259051911  0.25905859299214745  0.43466778255756816  1.0000
  C   C18       1.0  0.03479745164195689  0.2409472473936987  0.9346655614048628  1.0000
  C   C19       1.0  0.03480649398316866  0.7409403893971598  0.5653325512713536  1.0000
  C   C20       1.0  0.9652051179458639  0.7590482256041752  0.06533228733260898  1.0000
  C   C21       1.0  0.1171885400061896  0.31001874168389776  0.4836521760681121  1.0000
  C   C22       1.0  0.8828065087082917  0.18998615544852976  0.9836515825966854  1.0000
  C   C23       1.0  0.882814263115975  0.6899790709123435  0.5163489861216846  1.0000
  C   C24       1.0  0.1171965279465823  0.8100139967358757  0.016348751233707  1.0000
  C   C25       1.0  0.527726210222859  0.11361604585609801  0.46897834355678464  1.0000
  C   C26       1.0  0.4722651609066801  0.3863771102493628  0.9689773655240755  1.0000
  C   C27       1.0  0.4722668332242392  0.8863842229428369  0.5310219902731744  1.0000
  C   C28       1.0  0.5277268316401164  0.6136126303834287  0.031018826480916997  1.0000
  C   C29       1.0  0.5622497018629176  0.9542835026336931  0.4323516995705531  1.0000
  C   C30       1.0  0.4377400662253663  0.5457106906936956  0.9323473799281811  1.0000
  C   C31       1.0  0.43773959413094604  0.04571680989365489  0.5676478058968968  1.0000
  C   C32       1.0  0.5622531754727262  0.45427903536431546  0.0676496404392068  1.0000
  N   N1        1.0  0.2242423079484723  0.4199661144424951  0.43697327327573987  1.0000
  N   N2        1.0  0.7757577004118802  0.08003849460959601  0.9369699071429733  1.0000
  N   N3        1.0  0.7757607287073895  0.5800340377480353  0.5630295456416903  1.0000
  N   N4        1.0  0.2242454530098428  0.9199628273719608  0.0630312550512357  1.0000
  N   N5        1.0  0.48543696962421734  0.5916428675219335  0.3216091359996369  1.0000
  N   N6        1.0  0.5145637548933735  0.9083611922461755  0.8216065611552494  1.0000
  N   N7        1.0  0.5145665340964031  0.40836196384086065  0.6783903694742861  1.0000
  N   N8        1.0  0.4854346354565139  0.091642527626739  0.1783921159546438  1.0000
  O   O1        1.0  0.5639172366669882  0.24786036008900678  0.4291922701349049  1.0000
  O   O2        1.0  0.4360852638343716  0.25214418150611806  0.9291876385205454  1.0000
  O   O3        1.0  0.43608092015116995  0.7521410202018471  0.5708097204214367  1.0000
  O   O4        1.0  0.5639146906833475  0.7478501508400796  0.07080606840361979  1.0000
  O   O5        1.0  0.6367135612921899  0.9018154857876651  0.3496388295984331  1.0000
  O   O6        1.0  0.36327524245973564  0.5981818243730431  0.8496371176992807  1.0000
  O   O7        1.0  0.3632845955256485  0.09818589450114962  0.6503623325955629  1.0000
  O   O8        1.0  0.636710854632412  0.4018114985332275  0.15036073103454575  1.0000
