data_image0
_chemical_formula_structural       Ag4H24C14S4O20
_chemical_formula_sum              "Ag4 H24 C14 S4 O20"
_cell_length_a       7.51293808053405
_cell_length_b       8.420121421957793
_cell_length_c       11.086798642467192
_cell_angle_alpha    104.65365505187889
_cell_angle_beta     101.13288088914611
_cell_angle_gamma    90.46191051157378

_space_group_name_H-M_alt    "P 1"
_space_group_IT_number       1

loop_
  _space_group_symop_operation_xyz
  'x, y, z'

loop_
  _atom_site_type_symbol
  _atom_site_label
  _atom_site_symmetry_multiplicity
  _atom_site_fract_x
  _atom_site_fract_y
  _atom_site_fract_z
  _atom_site_occupancy
  Ag  Ag1       1.0  0.4596185542904222  0.30704208604910826  0.2011117690663937  1.0000
  Ag  Ag2       1.0  0.540384205996574  0.692958711953061  0.798888593038015  1.0000
  Ag  Ag3       1.0  0.21545366588074438  0.6023111050136193  0.04791121753835631  1.0000
  Ag  Ag4       1.0  0.7845420987520555  0.39768731164461707  0.9520885997236094  1.0000
  H   H1        1.0  0.3655219528115055  0.2961814776543861  0.9252839647616895  1.0000
  H   H2        1.0  0.634476239874303  0.7038132241743681  0.07471455938828345  1.0000
  H   H3        1.0  0.17842103578462337  0.24329881140030094  0.953645602339428  1.0000
  H   H4        1.0  0.8215813418103933  0.7566970767704504  0.04635283844824304  1.0000
  H   H5        1.0  0.7970259650940221  0.16925596608956536  0.12366580601797489  1.0000
  H   H6        1.0  0.2029734633247031  0.8307374801607776  0.8763335461053432  1.0000
  H   H7        1.0  0.6539506035034178  0.1035305331186862  0.9979111344380199  1.0000
  H   H8        1.0  0.34604892533922527  0.8964641427518031  0.0020884735845285306  1.0000
  H   H9        1.0  0.0644525866887662  0.48519977880550874  0.7931528084722361  1.0000
  H   H10       1.0  0.9355448723837085  0.5148023267023801  0.2068461672005597  1.0000
  H   H11       1.0  0.9556045944048462  0.6445368702316471  0.8258228705990619  1.0000
  H   H12       1.0  0.0443956564089163  0.3554664216290177  0.174177630998301  1.0000
  H   H13       1.0  0.4067198355927886  0.36130382377840675  0.4834847533839195  1.0000
  H   H14       1.0  0.5932788592126101  0.6386970261510712  0.516515050262214  1.0000
  H   H15       1.0  0.3287856948824341  0.9943266494855791  0.7065419487020109  1.0000
  H   H16       1.0  0.6712105284571166  0.005676711600713699  0.29345619899744696  1.0000
  H   H17       1.0  0.10068253522946687  0.7562120169336592  0.3140036375907584  1.0000
  H   H18       1.0  0.8993202060538364  0.24378877241934296  0.6859976222334581  1.0000
  H   H19       1.0  0.03890987668020071  0.696680288692832  0.5754056003550403  1.0000
  H   H20       1.0  0.9610887367049724  0.30331934026566637  0.4245930496720548  1.0000
  H   H21       1.0  0.2729366794344017  0.6825530984736331  0.6306699976700898  1.0000
  H   H22       1.0  0.7270606602104621  0.3174477687649428  0.36932961982329005  1.0000
  H   H23       1.0  0.17247342114347927  0.5898789602252917  0.4685252294799227  1.0000
  H   H24       1.0  0.8275267292463651  0.41012310201522695  0.5314750162182021  1.0000
  C   C1        1.0  0.20402519854975756  0.005564739195420998  0.3533118208364243  1.0000
  C   C2        1.0  0.7959735586721663  0.9944373230558768  0.6466900341485697  1.0000
  C   C3        1.0  0.29039981561525247  0.14610041189654047  0.4448427963704304  1.0000
  C   C4        1.0  0.7096042184120536  0.8538991478255438  0.5551565982676935  1.0000
  C   C5        1.0  0.3283046200689341  0.13921208834533869  0.572769053121192  1.0000
  C   C6        1.0  0.67170093195935  0.8607898960096064  0.4272328349077768  1.0000
  C   C7        1.0  0.29265355208456606  0.9947469443065561  0.6064760377178757  1.0000
  C   C8        1.0  0.7073520759584893  0.005255074645035104  0.3935222594318546  1.0000
  C   C9        1.0  0.2124516001915069  0.8535860129958763  0.5144261990314051  1.0000
  C   C10       1.0  0.7875499433662582  0.14641604923386348  0.4855724373798581  1.0000
  C   C11       1.0  0.16622600307218954  0.8628343838410399  0.38792463638979774  1.0000
  C   C12       1.0  0.8337713989891994  0.13716769571936277  0.6120770324424356  1.0000
  C   C13       1.0  0.17207301350344298  0.6974769394581698  0.5484841521194853  1.0000
  C   C14       1.0  0.8279255184615051  0.302521468529342  0.45151334428856416  1.0000
  S   S1        1.0  0.1357849129593731  0.011649737273813798  0.192189922091103  1.0000
  S   S2        1.0  0.8642124076817977  0.98835112131561  0.8078105931220849  1.0000
  S   S3        1.0  0.39391254082553917  0.32339413075628437  0.6939139267604304  1.0000
  S   S4        1.0  0.6060873897127834  0.6766054635947825  0.30608670485904105  1.0000
  O   O1        1.0  0.29074321481990484  0.31467905531288654  0.9915523839014782  1.0000
  O   O2        1.0  0.7092565148705817  0.6853180797978949  0.008447735919524678  1.0000
  O   O3        1.0  0.30297555821773153  0.036026986666428194  0.1457888494425461  1.0000
  O   O4        1.0  0.6970241904764477  0.9639701570935129  0.8542103726586561  1.0000
  O   O5        1.0  0.6773243560743225  0.19229826407548956  0.07777249569277701  1.0000
  O   O6        1.0  0.322673497332346  0.8076927315945068  0.9222270561991267  1.0000
  O   O7        1.0  0.03740807351161379  0.8528777763238081  0.1238890509478949  1.0000
  O   O8        1.0  0.9625905018661667  0.14712183533636383  0.8761113945188157  1.0000
  O   O9        1.0  0.9773200583181065  0.5373767012015379  0.8451022331232069  1.0000
  O   O10       1.0  0.022678755914896008  0.462625386997246  0.15489692870234964  1.0000
  O   O11       1.0  0.0185845870084052  0.15159996514515936  0.19394925858811973  1.0000
  O   O12       1.0  0.9814139883693755  0.8483996465150129  0.806051186878598  1.0000
  O   O13       1.0  0.2251855880611231  0.40355071263243764  0.7108884848582093  1.0000
  O   O14       1.0  0.774812848885361  0.5964476521092693  0.2891135001488935  1.0000
  O   O15       1.0  0.4903696545234197  0.27820237236009854  0.808458367199286  1.0000
  O   O16       1.0  0.5096318700306526  0.7217996812204814  0.19154116693178477  1.0000
  O   O17       1.0  0.514035157422306  0.4223202012043926  0.6441121033303788  1.0000
  O   O18       1.0  0.48595967274932406  0.5776831598926788  0.355887653655941  1.0000
  O   O19       1.0  0.3316096067418641  0.28189600940658016  0.4080648554684387  1.0000
  O   O20       1.0  0.6683889876396165  0.7181036109027515  0.5919346922784641  1.0000
