data_image0
_chemical_formula_structural       Cu4H18C22Br6N4O4
_chemical_formula_sum              "Cu4 H18 C22 Br6 N4 O4"
_cell_length_a       8.800510063680653
_cell_length_b       9.583601174841236
_cell_length_c       10.112194786538714
_cell_angle_alpha    73.45162710040289
_cell_angle_beta     70.82329251849498
_cell_angle_gamma    63.6218178748976

_space_group_name_H-M_alt    "P 1"
_space_group_IT_number       1

loop_
  _space_group_symop_operation_xyz
  'x, y, z'

loop_
  _atom_site_type_symbol
  _atom_site_label
  _atom_site_symmetry_multiplicity
  _atom_site_fract_x
  _atom_site_fract_y
  _atom_site_fract_z
  _atom_site_occupancy
  Cu  Cu1       1.0  0.3280029348027825  0.9687037600875712  0.6394143500474597  1.0000
  Cu  Cu2       1.0  0.6719996918202471  0.031297380325703714  0.36058026270400473  1.0000
  Cu  Cu3       1.0  0.9614816112386961  0.0501862009748351  0.8212578406617581  1.0000
  Cu  Cu4       1.0  0.03851429090673259  0.9498137485459284  0.17874493471827432  1.0000
  H   H1        1.0  0.9978031731915351  0.8733726195914501  0.49890802783905736  1.0000
  H   H2        1.0  0.0022014620060985964  0.12662377843165734  0.5010942038244721  1.0000
  H   H3        1.0  0.25699725994115136  0.46578356107631447  0.6884888423300949  1.0000
  H   H4        1.0  0.7429969329766024  0.5342175674770646  0.3115150926004374  1.0000
  H   H5        1.0  0.5667275919973562  0.2875286846048509  0.6801291569184613  1.0000
  H   H6        1.0  0.43327522931888757  0.7124748161732342  0.3198647697364976  1.0000
  H   H7        1.0  0.6756761550960277  0.954196753643942  0.037161839722820396  1.0000
  H   H8        1.0  0.32431824288742217  0.045806757540106  0.9628334889345067  1.0000
  H   H9        1.0  0.6737393522440768  0.6980322263509822  0.6399232999081476  1.0000
  H   H10       1.0  0.32626105814552625  0.3019712682553219  0.36007428024863236  1.0000
  H   H11       1.0  0.5822810875201939  0.730636671031739  0.07896003399856256  1.0000
  H   H12       1.0  0.41771412070562525  0.2693621099840301  0.9210392952002591  1.0000
  H   H13       1.0  0.7544348234852264  0.5211519282660433  0.9226217688624201  1.0000
  H   H14       1.0  0.24556589143755048  0.4788480141156343  0.07738062966858189  1.0000
  H   H15       1.0  0.7826816361703947  0.4036942312133292  0.6554694181996507  1.0000
  H   H16       1.0  0.21732359866560805  0.5963092813029932  0.34451887490931205  1.0000
  H   H17       1.0  0.9959190506267745  0.5582104854118626  0.719812662070417  1.0000
  H   H18       1.0  0.004079370988691297  0.44178355490801385  0.2801929543006025  1.0000
  C   C1        1.0  0.11756563389462832  0.7980880759040404  0.6558382624766635  1.0000
  C   C2        1.0  0.8824384981869363  0.20190950562918183  0.34416280697541857  1.0000
  C   C3        1.0  0.9707854631846257  0.7680190865171356  0.7782469948695904  1.0000
  C   C4        1.0  0.029215058341499414  0.23197849828297024  0.2217550997358302  1.0000
  C   C5        1.0  0.30143561417040843  0.67610335566674  0.6681412738322549  1.0000
  C   C6        1.0  0.6985628884086308  0.32389894925767493  0.3318611220378002  1.0000
  C   C7        1.0  0.35144702532913635  0.5141087538450081  0.6795133606527841  1.0000
  C   C8        1.0  0.6485553949316339  0.48589000115436687  0.3204908483939731  1.0000
  C   C9        1.0  0.5251463042681267  0.4139554173968278  0.675820901489615  1.0000
  C   C10       1.0  0.47485410482491364  0.5860480744262446  0.3241776686892521  1.0000
  C   C11       1.0  0.7447078536287322  0.8615242744804235  0.9716766682495788  1.0000
  C   C12       1.0  0.255287042284543  0.1384780420605694  0.028323782707552356  1.0000
  C   C13       1.0  0.5870426890775133  0.6398766030399232  0.6518462739795794  1.0000
  C   C14       1.0  0.4129594292432016  0.360125709750541  0.3481511366487879  1.0000
  C   C15       1.0  0.6951601649088344  0.7361293344843106  0.9947564991774056  1.0000
  C   C16       1.0  0.30483934519890715  0.26387060620309916  0.00524723109345617  1.0000
  C   C17       1.0  0.7889748494091079  0.622036589686367  0.9066542284137781  1.0000
  C   C18       1.0  0.21102206156157885  0.3779609983806295  0.09334889134497361  1.0000
  C   C19       1.0  0.6453234487089856  0.4778333648126535  0.6616646400112529  1.0000
  C   C20       1.0  0.3546805735326188  0.5221701293099984  0.3383309249701014  1.0000
  C   C21       1.0  0.9263936451632018  0.640312359929837  0.7953400842780809  1.0000
  C   C22       1.0  0.07360808117795872  0.3596852265645438  0.2046606785874658  1.0000
  Br  Br1       1.0  0.12138435454988887  0.22527743187166752  0.7108174826220973  1.0000
  Br  Br2       1.0  0.8786103479667343  0.7747225270877609  0.2891826644094523  1.0000
  Br  Br3       1.0  0.7611417691338005  0.20242226723166112  0.9978593059373609  1.0000
  Br  Br4       1.0  0.23885514443000483  0.7975753264017983  0.002141833777216077  1.0000
  Br  Br5       1.0  0.5757201389891551  0.9982703439720952  0.6577031872316821  1.0000
  Br  Br6       1.0  0.4242843041083901  0.0017236992526719  0.34229775048417826  1.0000
  N   N1        1.0  0.4190920494126829  0.7359517217298903  0.6553796431158216  1.0000
  N   N2        1.0  0.5809115808493673  0.26404704609668517  0.3446192741027261  1.0000
  N   N3        1.0  0.881046929885791  0.8752952463422475  0.8667267573530919  1.0000
  N   N4        1.0  0.11895379022323029  0.12470470717236988  0.1332716810895604  1.0000
  O   O1        1.0  0.10658523644951846  0.9509252267451065  0.6504309199653661  1.0000
  O   O2        1.0  0.8934159854790167  0.04907354047615801  0.3495696707108208  1.0000
  O   O3        1.0  0.10081392281600897  0.7834232756941831  0.5260988956884559  1.0000
  O   O4        1.0  0.8991914127840347  0.2165743047500755  0.47390183204584674  1.0000
