data_image0
_chemical_formula_structural       Al4H22C40I2O20
_chemical_formula_sum              "Al4 H22 C40 I2 O20"
_cell_length_a       6.651047041948767
_cell_length_b       14.584520174367364
_cell_length_c       18.45112413406526
_cell_angle_alpha    78.75881915819461
_cell_angle_beta     90.98483490705733
_cell_angle_gamma    90.02196712698465

_space_group_name_H-M_alt    "P 1"
_space_group_IT_number       1

loop_
  _space_group_symop_operation_xyz
  'x, y, z'

loop_
  _atom_site_type_symbol
  _atom_site_label
  _atom_site_symmetry_multiplicity
  _atom_site_fract_x
  _atom_site_fract_y
  _atom_site_fract_z
  _atom_site_occupancy
  Al  Al1       1.0  0.08681080777984822  0.49997785138126016  0.503225418155978  1.0000
  Al  Al2       1.0  0.5872717929556828  0.5006123214041054  0.49861271997370693  1.0000
  Al  Al3       1.0  0.6484355867737152  0.9999539323916623  0.9968143673153165  1.0000
  Al  Al4       1.0  0.14790512603089923  0.9992811711067375  0.0013818973481675913  1.0000
  H   H1        1.0  0.5369770662450648  0.7301193183829612  0.3127259289677724  1.0000
  H   H2        1.0  0.5706908988310178  0.8403382294501894  0.1907541797831982  1.0000
  H   H3        1.0  0.19779463850125717  0.770271036683262  0.18742569591233862  1.0000
  H   H4        1.0  0.1639149103633244  0.6601051523424745  0.3093554714225561  1.0000
  H   H5        1.0  0.1258253667942313  0.6982316778707015  0.6468496364775547  1.0000
  H   H6        1.0  0.5153911700553664  0.6023781087722427  0.6760829481775729  1.0000
  H   H7        1.0  0.26167184113322867  0.8099109312243369  0.7216930117197647  1.0000
  H   H8        1.0  0.4727715385953247  0.6907132686989357  0.7776954957301072  1.0000
  H   H9        1.0  0.21946371837809414  0.8981950233597897  0.823401179448375  1.0000
  H   H10       1.0  0.6091668008219387  0.8021854455556718  0.8528510728220128  1.0000
  H   H11       1.0  0.5859904397120205  0.2778553542188504  0.3747602444189937  1.0000
  H   H12       1.0  0.041970819854398704  0.4265503914833957  0.29766213309806494  1.0000
  H   H13       1.0  0.6932019214457057  0.0727770002582488  0.2027192675599281  1.0000
  H   H14       1.0  0.1493404273786894  0.2217108342610103  0.1256358251616376  1.0000
  H   H15       1.0  0.04621700730875491  0.27506853317448327  0.6775498890893064  1.0000
  H   H16       1.0  0.0628499191830088  0.16212150223726238  0.7995501661131783  1.0000
  H   H17       1.0  0.6895333268634121  0.22485759103118846  0.8224752645340487  1.0000
  H   H18       1.0  0.6727220326999942  0.33784748749307886  0.7004975460504497  1.0000
  H   H19       1.0  0.3317283043904666  0.6217185225771046  0.4684874921903486  1.0000
  H   H20       1.0  0.8384326715913134  0.3885984325617287  0.4794314736348042  1.0000
  H   H21       1.0  0.4034793082190191  0.878177591754998  0.031366878976086775  1.0000
  H   H22       1.0  0.8968540952725805  0.11125160767210929  0.020709381081133  1.0000
  C   C1        1.0  0.32490701704042374  0.40579253378903246  0.40551704640384406  1.0000
  C   C2        1.0  0.3501689894716905  0.38016319130206006  0.6104137302977364  1.0000
  C   C3        1.0  0.8422667901357458  0.5938717354240808  0.5945155741504138  1.0000
  C   C4        1.0  0.8326114780636757  0.6230396981313789  0.3905139393897628  1.0000
  C   C5        1.0  0.6805727960762342  0.7389644867030329  0.2846088196312451  1.0000
  C   C6        1.0  0.6993336580908435  0.8000937313413627  0.21709359578498783  1.0000
  C   C7        1.0  0.8860373362941872  0.8114809948078873  0.18209899447302288  1.0000
  C   C8        1.0  0.05410380533229642  0.7614003410137541  0.21544930498917136  1.0000
  C   C9        1.0  0.0352807789623171  0.7003038298548958  0.2829574537066151  1.0000
  C   C10       1.0  0.8486499711608886  0.688795703553815  0.31792277412834113  1.0000
  C   C11       1.0  0.8242039394575401  0.6459920376640086  0.6558884467078201  1.0000
  C   C12       1.0  0.9107030966232375  0.8544841069933682  0.8436974311812905  1.0000
  C   C13       1.0  0.12027053773382333  0.8072451944328948  0.7511322739874373  1.0000
  C   C14       1.0  0.09711865593903472  0.8565282165087068  0.8068516061823487  1.0000
  C   C15       1.0  0.7514147460623166  0.8027624589555347  0.8241405237116908  1.0000
  C   C16       1.0  0.773152173796561  0.7491746023750211  0.7684814308186958  1.0000
  C   C17       1.0  0.9614955620479294  0.7513550030095361  0.7310969792723441  1.0000
  C   C18       1.0  0.9834220350045798  0.6977116010728255  0.6754949378428421  1.0000
  C   C19       1.0  0.6376417517363747  0.6440765256890162  0.6926451052737761  1.0000
  C   C20       1.0  0.6143249495023967  0.6933722121211403  0.7483399306061074  1.0000
  C   C21       1.0  0.3163630931120593  0.35590829450011097  0.3421100122349614  1.0000
  C   C22       1.0  0.41903744261887976  0.1436034627550455  0.15820997174031962  1.0000
  C   C23       1.0  0.5916136515973848  0.16970275082078248  0.2686256299445446  1.0000
  C   C24       1.0  0.5806496828167839  0.12423381576076052  0.20995719501810578  1.0000
  C   C25       1.0  0.2737926964549545  0.20867751262509426  0.1654867880240332  1.0000
  C   C26       1.0  0.2863912306858651  0.25948565032490484  0.22317689886327938  1.0000
  C   C27       1.0  0.4490891760214808  0.23994603874653112  0.27721053129716466  1.0000
  C   C28       1.0  0.46164234393591397  0.2908138199873492  0.3348664044008061  1.0000
  C   C29       1.0  0.1545831037800554  0.37513727401579894  0.2903910887797565  1.0000
  C   C30       1.0  0.14368502809969644  0.32965842909358406  0.23175309123625706  1.0000
  C   C31       1.0  0.18578431436550602  0.2636617375095724  0.7099490138871545  1.0000
  C   C32       1.0  0.19514021360816264  0.20117387891269795  0.7772888067921713  1.0000
  C   C33       1.0  0.37718835349064517  0.18728207132891583  0.8176710390870241  1.0000
  C   C34       1.0  0.5498878747146635  0.23628463204392602  0.7901204226820937  1.0000
  C   C35       1.0  0.5404591913298732  0.29880305712040206  0.7227706447720408  1.0000
  C   C36       1.0  0.35841346083775966  0.31270440483764633  0.6824139531747662  1.0000
  C   C37       1.0  0.385319070307773  0.11983670015896311  0.8896873501789173  1.0000
  C   C38       1.0  0.4105410160262508  0.0938950331122257  0.09466464459935511  1.0000
  C   C39       1.0  0.902408577024616  0.8769986459904048  0.10943352396866853  1.0000
  C   C40       1.0  0.8928340713780045  0.9063272219722549  0.9052867863711213  1.0000
  I   I1        1.0  0.8298337758889646  0.1322275955045384  0.345904376686974  1.0000
  I   I2        1.0  0.9055947905512911  0.3670810679314727  0.15437699982435762  1.0000
  O   O1        1.0  0.5172085902502135  0.41303774778010194  0.584874781407656  1.0000
  O   O2        1.0  0.15652254100603366  0.432382605445973  0.4260506294863121  1.0000
  O   O3        1.0  0.9971294149022756  0.6021681331603405  0.42636192874347506  1.0000
  O   O4        1.0  0.17865402220698465  0.400031674223797  0.5793249768943909  1.0000
  O   O5        1.0  0.015607083072446001  0.5672529194797774  0.5785184370471654  1.0000
  O   O6        1.0  0.4966221124395532  0.4172401160092675  0.4342142323289552  1.0000
  O   O7        1.0  0.33676806964065525  0.5573672229790604  0.49464488335201656  1.0000
  O   O8        1.0  0.6783485118946189  0.5805550157146371  0.5615477874068731  1.0000
  O   O9        1.0  0.6586254400265689  0.5927761015260556  0.41115024251874394  1.0000
  O   O10       1.0  0.8370742735588197  0.44308906453615293  0.5022558755624047  1.0000
  O   O11       1.0  0.23888364769895531  0.08256397721242341  0.06588823611189551  1.0000
  O   O12       1.0  0.5567831125689935  0.0999689292618342  0.9207813445511662  1.0000
  O   O13       1.0  0.7195243772113784  0.9328241208878083  0.9214149727213297  1.0000
  O   O14       1.0  0.578971750826689  0.0673759546013812  0.0740967004049793  1.0000
  O   O15       1.0  0.737972640972764  0.8977624837225022  0.07350682767611973  1.0000
  O   O16       1.0  0.2182985836524907  0.0869514356000707  0.915212902136517  1.0000
  O   O17       1.0  0.3984158725623744  0.9425760440546044  0.00530742335932639  1.0000
  O   O18       1.0  0.0764294952408804  0.9071572563696295  0.08880786777317695  1.0000
  O   O19       1.0  0.0567876504774176  0.9194145670672498  0.9383300847080065  1.0000
  O   O20       1.0  0.8982209378624831  0.0568671983176614  0.9977633493900698  1.0000
