data_image0
_chemical_formula_structural       Cd6H88C150N16O36
_chemical_formula_sum              "Cd6 H88 C150 N16 O36"
_cell_length_a       10.215394452464341
_cell_length_b       16.02193019543573
_cell_length_c       23.71146025821572
_cell_angle_alpha    105.06536653193311
_cell_angle_beta     91.6652724499603
_cell_angle_gamma    90.59821321523451

_space_group_name_H-M_alt    "P 1"
_space_group_IT_number       1

loop_
  _space_group_symop_operation_xyz
  'x, y, z'

loop_
  _atom_site_type_symbol
  _atom_site_label
  _atom_site_symmetry_multiplicity
  _atom_site_fract_x
  _atom_site_fract_y
  _atom_site_fract_z
  _atom_site_occupancy
  Cd  Cd1       1.0  0.8583601383242155  6.85185165493995e-05  0.1263143507908353  1.0000
  Cd  Cd2       1.0  0.1416427638620874  0.9999313157644067  0.8736839917723175  1.0000
  Cd  Cd3       1.0  0.8232693871865564  0.6774927447187268  0.40393412138011103  1.0000
  Cd  Cd4       1.0  0.17672560180472627  0.32250516995384265  0.5960650349435284  1.0000
  Cd  Cd5       1.0  0.5325527060422672  0.5482138247287338  0.2984536727124976  1.0000
  Cd  Cd6       1.0  0.46744918552273157  0.451785367271448  0.7015453863790668  1.0000
  H   H1        1.0  0.7659510487484269  0.5517359928234741  0.7418705954454837  1.0000
  H   H2        1.0  0.23404896998485472  0.4482657892075892  0.2581288880462509  1.0000
  H   H3        1.0  0.9795104455961265  0.9116298779990685  0.22723138065637016  1.0000
  H   H4        1.0  0.0204924202447643  0.08836931297594221  0.7727681143416449  1.0000
  H   H5        1.0  0.9031630189763362  0.8196942800104949  0.2929347711600628  1.0000
  H   H6        1.0  0.09683787689483841  0.1803042665467416  0.7070637388986611  1.0000
  H   H7        1.0  0.6716777247360426  0.7664540145787055  0.28231523050642693  1.0000
  H   H8        1.0  0.32832223471928057  0.23354582699397505  0.717683491752382  1.0000
  H   H9        1.0  0.2976029354619953  0.8148573301391836  0.16732429968006815  1.0000
  H   H10       1.0  0.7023970947375702  0.18514510046809826  0.8326761406455604  1.0000
  H   H11       1.0  0.45068280763823054  0.7587547021225162  0.23205291755525081  1.0000
  H   H12       1.0  0.5493182018130583  0.24124772640553968  0.7679475368230797  1.0000
  H   H13       1.0  0.2568005198192296  0.9134742240115798  0.10383311337685804  1.0000
  H   H14       1.0  0.7432014903017006  0.0865288489053668  0.8961674681805576  1.0000
  H   H15       1.0  0.34928050777435976  0.0135923774695925  0.04781206034724761  1.0000
  H   H16       1.0  0.6507204902106453  0.9864094024822522  0.9521874371971892  1.0000
  H   H17       1.0  0.5901202031046324  0.0473576628586514  0.05716780348900131  1.0000
  H   H18       1.0  0.4098837276597038  0.9526441119095707  0.9428321580672832  1.0000
  H   H19       1.0  0.8090710161559971  0.6991826778155001  0.9370190433858882  1.0000
  H   H20       1.0  0.19092706549178473  0.3008197548421236  0.06298052512684651  1.0000
  H   H21       1.0  0.8882358715882432  0.9616223984530237  0.9329506486807873  1.0000
  H   H22       1.0  0.11175829305265951  0.0383800425214957  0.06704886362114591  1.0000
  H   H23       1.0  0.8098038076575169  0.7669814461371586  0.7726634644541406  1.0000
  H   H24       1.0  0.19019912243717133  0.2330196842421799  0.22733636992305153  1.0000
  H   H25       1.0  0.8437873322080449  0.0640108262337478  0.27167299389178373  1.0000
  H   H26       1.0  0.1562213663072995  0.9359870593296976  0.7283263591696425  1.0000
  H   H27       1.0  0.863558557944785  0.19799425283747502  0.35436084772612736  1.0000
  H   H28       1.0  0.1364491613188434  0.802003634805196  0.6456384912825968  1.0000
  H   H29       1.0  0.8802756710242148  0.34207572315003176  0.3306398232009471  1.0000
  H   H30       1.0  0.11972420427401431  0.6579221832345326  0.6693602470936924  1.0000
  H   H31       1.0  0.8846668868681178  0.42537469376355125  0.25581404811199354  1.0000
  H   H32       1.0  0.1153320569900771  0.5746245065824028  0.7441858125289756  1.0000
  H   H33       1.0  0.8765303066628151  0.427649227596504  0.1516840495788045  1.0000
  H   H34       1.0  0.12347061214092042  0.5723506161131626  0.8483163741477073  1.0000
  H   H35       1.0  0.8555517592849355  0.3470054084657123  0.045753123473268424  1.0000
  H   H36       1.0  0.1444462217636442  0.6529944414816242  0.9542472580951442  1.0000
  H   H37       1.0  0.8369977828084672  0.20617498930707973  0.970336340122124  1.0000
  H   H38       1.0  0.1629953761869629  0.7938268083325968  0.029663466854465526  1.0000
  H   H39       1.0  0.8294361799314061  0.06839272545727232  0.004291332815689899  1.0000
  H   H40       1.0  0.17055598834603097  0.9316084256854181  0.9957075032743107  1.0000
  H   H41       1.0  0.2098667049381504  0.0144434945309584  0.26660431472351587  1.0000
  H   H42       1.0  0.7901321911083555  0.9855544139328245  0.7333957415184217  1.0000
  H   H43       1.0  0.8796791495723327  0.760432795390379  0.07914089473118932  1.0000
  H   H44       1.0  0.1203198420975511  0.2395676968377387  0.9208587703088114  1.0000
  H   H45       1.0  0.10885870223155082  0.8716541601279959  0.3404011484004173  1.0000
  H   H46       1.0  0.8911373940871031  0.1283495843810272  0.6596045242122202  1.0000
  H   H47       1.0  0.81294899831979  0.8675517499885005  0.5044612529896852  1.0000
  H   H48       1.0  0.187052881778925  0.1324467934354558  0.4955368492679781  1.0000
  H   H49       1.0  0.8201629974937104  0.9260643290972652  0.6141989801863518  1.0000
  H   H50       1.0  0.17983794618915283  0.0739355093421423  0.3857993342713968  1.0000
  H   H51       1.0  0.8239440617696304  0.8226514675736779  0.6766254129640501  1.0000
  H   H52       1.0  0.17605789902498256  0.17734966277677697  0.32337356365293607  1.0000
  H   H53       1.0  0.8268473287414082  0.5107781816422374  0.6321914872917206  1.0000
  H   H54       1.0  0.1731526421801917  0.4892223085066619  0.36780819180098234  1.0000
  H   H55       1.0  0.8258628120434324  0.6665267610110348  0.6823795003511108  1.0000
  H   H56       1.0  0.1741351839326271  0.3334730857741448  0.3176196156560493  1.0000
  H   H57       1.0  0.84182074071083  0.39347267660773605  0.5398122105591057  1.0000
  H   H58       1.0  0.1581772189198247  0.6065265268714841  0.4601880578829168  1.0000
  H   H59       1.0  0.8418479777389934  0.3510074779126455  0.430157839340879  1.0000
  H   H60       1.0  0.1581538774806006  0.6489910707815766  0.5698423721855477  1.0000
  H   H61       1.0  0.8289998512871152  0.4689809464824534  0.3766598022215462  1.0000
  H   H62       1.0  0.1709980869256  0.5310176105286646  0.6233403530940864  1.0000
  H   H63       1.0  0.5304754107734979  0.8777462211960485  0.3517512050873038  1.0000
  H   H64       1.0  0.4695214246557384  0.12224845803157791  0.6482478355635308  1.0000
  H   H65       1.0  0.31263466733725653  0.6806418771222482  0.4047848934534671  1.0000
  H   H66       1.0  0.6873592666822362  0.3193534516490004  0.595212952604399  1.0000
  H   H67       1.0  0.5236691711557881  0.5223455765731587  0.4309668068994697  1.0000
  H   H68       1.0  0.4763288098927916  0.4776542733741779  0.5690335746689499  1.0000
  H   H69       1.0  0.5019328321144984  0.40319465901355045  0.4827545226649478  1.0000
  H   H70       1.0  0.4980631804790009  0.5968051972003394  0.5172466745055787  1.0000
  H   H71       1.0  0.4900708509726073  0.2497656281108078  0.4227455251639898  1.0000
  H   H72       1.0  0.5099271151485  0.7502342249986854  0.5772561219656823  1.0000
  H   H73       1.0  0.5049882738597448  0.1770291233454202  0.12786727175276982  1.0000
  H   H74       1.0  0.4950116392985181  0.8229700770294104  0.8721334466483984  1.0000
  H   H75       1.0  0.5258079480957463  0.3058903906858887  0.08678838613852241  1.0000
  H   H76       1.0  0.4741890058894286  0.6941081694585023  0.9132121769781636  1.0000
  H   H77       1.0  0.5435948402607594  0.454022233239428  0.15640975282010325  1.0000
  H   H78       1.0  0.456404077203679  0.5459763216924644  0.8435904165482314  1.0000
  H   H79       1.0  0.0477077830138626  0.559979642136213  0.30004439376311615  1.0000
  H   H80       1.0  0.9522961806346829  0.44002342767634434  0.6999566377534523  1.0000
  H   H81       1.0  0.23573619732129458  0.6735397897702244  0.1769749950935947  1.0000
  H   H82       1.0  0.7642658292417438  0.3264639306688863  0.8230261214439666  1.0000
  H   H83       1.0  0.8146316033124066  0.6531055149658442  0.17626871489485307  1.0000
  H   H84       1.0  0.1853712675043155  0.346893674955112  0.8237303582494067  1.0000
  H   H85       1.0  0.48804149746498376  0.11835028396846069  0.21624987938213994  1.0000
  H   H86       1.0  0.5119574264899143  0.8816489205936976  0.7837516686738368  1.0000
  H   H87       1.0  0.481526477827913  0.1438049518930384  0.32245360464340683  1.0000
  H   H88       1.0  0.5184705090414781  0.8561949032956805  0.6775480284335701  1.0000
  C   C1        1.0  0.8776926820687692  0.889541505107502  0.22612286524007896  1.0000
  C   C2        1.0  0.12231020519005403  0.11045833233561103  0.7738767428843262  1.0000
  C   C3        1.0  0.8354255019577864  0.837537525848454  0.26179266443202925  1.0000
  C   C4        1.0  0.16457734246517222  0.16246101865844048  0.7382067174395885  1.0000
  C   C5        1.0  0.7065790886703595  0.8083819983176282  0.2561931765907702  1.0000
  C   C6        1.0  0.2934208872270645  0.19161849077721627  0.7438060806481773  1.0000
  C   C7        1.0  0.6191240790018641  0.8331147871946172  0.21647763704599757  1.0000
  C   C8        1.0  0.38087789325903293  0.1668869917320492  0.7835222964048826  1.0000
  C   C9        1.0  0.6690136120042354  0.8890571484383187  0.1841567454398003  1.0000
  C   C10       1.0  0.33098835030501306  0.11094463259645693  0.8158440317185836  1.0000
  C   C11       1.0  0.5803353486638868  0.920229824941984  0.14578990686389662  1.0000
  C   C12       1.0  0.41966666145705034  0.07977324797496269  0.8542106746935261  1.0000
  C   C13       1.0  0.4456221722332361  0.8946496746098235  0.14176672444436633  1.0000
  C   C14       1.0  0.5543778958263702  0.1053540499877386  0.8582343639877977  1.0000
  C   C15       1.0  0.4004204534105114  0.8354141515648265  0.1732348616284654  1.0000
  C   C16       1.0  0.5995805824345268  0.16458892237728412  0.826765284022507  1.0000
  C   C17       1.0  0.4845028763284986  0.805080740782863  0.20881855155968765  1.0000
  C   C18       1.0  0.5155001180199789  0.19492232900081063  0.7911816221966816  1.0000
  C   C19       1.0  0.3612023654894614  0.929547460061933  0.10589659304822872  1.0000
  C   C20       1.0  0.6387996446314687  0.07045561285501378  0.8941039885091939  1.0000
  C   C21       1.0  0.4117061243386857  0.9847199283151371  0.07532630739005707  1.0000
  C   C22       1.0  0.5882978178919275  0.015282495029303806  0.9246746110001213  1.0000
  C   C23       1.0  0.5463533575131335  0.0046525952710468  0.0809133426231341  1.0000
  C   C24       1.0  0.4536486361656955  0.995349830123736  0.9190867039541433  1.0000
  C   C25       1.0  0.8537734823916452  0.8613291922675187  0.007843310505521133  1.0000
  C   C26       1.0  0.1462235886348324  0.13867259810932353  0.9921569745356184  1.0000
  C   C27       1.0  0.844782799885742  0.834016784236539  0.9420000585571273  1.0000
  C   C28       1.0  0.15521325402898606  0.1659837142292488  0.05799956432478131  1.0000
  C   C29       1.0  0.8205171573522849  0.7474374704807473  0.9124423085387791  1.0000
  C   C30       1.0  0.17947991367419286  0.252564319896095  0.08755797650236022  1.0000
  C   C31       1.0  0.8121469570598095  0.7224138922166291  0.8512747545217821  1.0000
  C   C32       1.0  0.1878510767762833  0.2775872485588237  0.1487250095919137  1.0000
  C   C33       1.0  0.7897191630643192  0.6294368765513596  0.820455143621551  1.0000
  C   C34       1.0  0.2102798565139494  0.37056491177514067  0.17954601323248914  1.0000
  C   C35       1.0  0.8598787620145744  0.9374914695357223  0.8147000466071647  1.0000
  C   C36       1.0  0.1401211874890933  0.06250837414506089  0.1852995193591411  1.0000
  C   C37       1.0  0.862257847116041  0.8951337288234457  0.9099409204801603  1.0000
  C   C38       1.0  0.1377372390132408  0.10486742029777932  0.09005964518294722  1.0000
  C   C39       1.0  0.8218023486139716  0.7849771601082766  0.8199880374345413  1.0000
  C   C40       1.0  0.178197595913872  0.215022684626561  0.18001195038552006  1.0000
  C   C41       1.0  0.8475256024676695  0.8714087541422659  0.8490973718089238  1.0000
  C   C42       1.0  0.15247340066849094  0.1285923866620706  0.15090325006497812  1.0000
  C   C43       1.0  0.8492205201329953  0.1276871450006993  0.26318704315602304  1.0000
  C   C44       1.0  0.1507891576340654  0.8723107384835203  0.7368123239580981  1.0000
  C   C45       1.0  0.8603938503860461  0.20310568378901186  0.3094142054742832  1.0000
  C   C46       1.0  0.13961386887757496  0.7968922038536591  0.690585133534441  1.0000
  C   C47       1.0  0.8689384564947389  0.28206928396036796  0.2963101640722883  1.0000
  C   C48       1.0  0.13106634145583482  0.7179292574421297  0.7036896677584821  1.0000
  C   C49       1.0  0.8647597226768938  0.2858250711582997  0.23747665444962254  1.0000
  C   C50       1.0  0.13524604954957908  0.7141734692190341  0.7625236132876055  1.0000
  C   C51       1.0  0.8519287466687405  0.20619306109501426  0.19371320575752551  1.0000
  C   C52       1.0  0.1480799946824618  0.7938061174046495  0.8062863735566808  1.0000
  C   C53       1.0  0.8739698147718614  0.3655426266198917  0.22121425991873173  1.0000
  C   C54       1.0  0.12603308395323862  0.6344578593994399  0.7787863050395673  1.0000
  C   C55       1.0  0.8689825644790687  0.3666309117598204  0.16382777268712803  1.0000
  C   C56       1.0  0.1310193121584575  0.6333682834025182  0.8361725519656958  1.0000
  C   C57       1.0  0.8545125599788295  0.2880736934222696  0.11841425590381503  1.0000
  C   C58       1.0  0.1454913065317172  0.7119261419416247  0.881585366273292  1.0000
  C   C59       1.0  0.8467212738264395  0.2073773615727319  0.1328882646870042  1.0000
  C   C60       1.0  0.1532845133274989  0.7926211756424453  0.8671107374889646  1.0000
  C   C61       1.0  0.8487312417481759  0.28644143228842023  0.05854648904487192  1.0000
  C   C62       1.0  0.1512687505913561  0.7135597043285885  0.9414533031742213  1.0000
  C   C63       1.0  0.8370113738697073  0.2083271704736802  0.016694286619937812  1.0000
  C   C64       1.0  0.1629847014629462  0.7916739744602168  0.983305449388368  1.0000
  C   C65       1.0  0.8321588776185607  0.1319031188095253  0.03531078692591901  1.0000
  C   C66       1.0  0.1678381819416401  0.8680980229910986  0.9646885412813262  1.0000
  C   C67       1.0  0.06898681912576879  0.737043289371961  0.38703817757390624  1.0000
  C   C68       1.0  0.9310062193671628  0.2629559297736392  0.612964129873383  1.0000
  C   C69       1.0  0.1974088538700727  0.7752580628351994  0.3767226055010227  1.0000
  C   C70       1.0  0.8025861794717034  0.22474179545791628  0.6232785776168016  1.0000
  C   C71       1.0  0.20055559748664115  0.8458243755114409  0.3523276838404997  1.0000
  C   C72       1.0  0.7994384317242905  0.15417549013115922  0.6476755944933856  1.0000
  C   C73       1.0  0.3200975972625102  0.882594910270683  0.34292242826657576  1.0000
  C   C74       1.0  0.6798983510771918  0.11740300653887203  0.6570784295247734  1.0000
  C   C75       1.0  0.32387601321029535  0.9555454576625666  0.3142255452807846  1.0000
  C   C76       1.0  0.676120930823231  0.04445310458992681  0.6857758615434051  1.0000
  C   C77       1.0  0.7950133840765191  0.5842522260810626  0.2677531975219481  1.0000
  C   C78       1.0  0.2049895131339596  0.4157476092539555  0.7322455668949531  1.0000
  C   C79       1.0  0.9181959962880271  0.6042109080214003  0.2408586244182871  1.0000
  C   C80       1.0  0.08180599241497791  0.3957915184274371  0.7591418440127385  1.0000
  C   C81       1.0  0.8175266694785535  0.8244247521821394  0.533325861764098  1.0000
  C   C82       1.0  0.18247429562223516  0.17557573272537752  0.46667256582004774  1.0000
  C   C83       1.0  0.8207066708282867  0.856683132745296  0.5944885086429252  1.0000
  C   C84       1.0  0.17929428929667776  0.1433173532162755  0.40551034079497583  1.0000
  C   C85       1.0  0.8240295316102929  0.7990888590985392  0.6290424763629333  1.0000
  C   C86       1.0  0.17597045423877938  0.2009116278882033  0.3709559371685103  1.0000
  C   C87       1.0  0.8255003929471272  0.7092702933896929  0.602221010413814  1.0000
  C   C88       1.0  0.174500562202013  0.29073019362592595  0.3977782608778356  1.0000
  C   C89       1.0  0.8232309927618785  0.6827713421805228  0.5400996789052074  1.0000
  C   C90       1.0  0.1767689617176202  0.3172285004462125  0.4598994652073501  1.0000
  C   C91       1.0  0.8249058521533214  0.5914768204279142  0.5108609577270188  1.0000
  C   C92       1.0  0.17509603941167737  0.4085223715722607  0.4891381013645457  1.0000
  C   C93       1.0  0.8286023604698088  0.5302256679590798  0.5447616214792819  1.0000
  C   C94       1.0  0.1713995261193659  0.4697735250951495  0.4552378594660312  1.0000
  C   C95       1.0  0.828025576129285  0.5592131671024275  0.6072318757746231  1.0000
  C   C96       1.0  0.1719753740440311  0.4407873209672459  0.39276781737077476  1.0000
  C   C97       1.0  0.8270199762679981  0.6454822323588374  0.6348283244214984  1.0000
  C   C98       1.0  0.172979999629419  0.3545182567360073  0.3651709328174492  1.0000
  C   C99       1.0  0.8345571636365176  0.4417943952772064  0.5147292271654039  1.0000
  C   C100      1.0  0.1654447608126972  0.5582060917672963  0.4852709018864516  1.0000
  C   C101      1.0  0.8361812539297518  0.4186421059048512  0.4543630400186984  1.0000
  C   C102      1.0  0.1638206062656664  0.5813564417353162  0.5456367496539799  1.0000
  C   C103      1.0  0.8300313137596262  0.4833154904245377  0.42423924252145895  1.0000
  C   C104      1.0  0.16996959357783234  0.5166837047089174  0.5757602243711589  1.0000
  C   C105      1.0  0.5595907476717484  0.7314007289029903  0.3884585440482127  1.0000
  C   C106      1.0  0.4404002765009737  0.2685959022043037  0.6115407516656007  1.0000
  C   C107      1.0  0.4347638818767194  0.7747352662622261  0.3795717221424937  1.0000
  C   C108      1.0  0.5652320171366654  0.2252607079808442  0.6204275307084259  1.0000
  C   C109      1.0  0.4373200158965957  0.84850887015493  0.35833121037133964  1.0000
  C   C110      1.0  0.5626758995588902  0.15148775161030412  0.6416685774597185  1.0000
  C   C111      1.0  0.3148034308583476  0.7386404059134364  0.38901829432594337  1.0000
  C   C112      1.0  0.685190526093706  0.2613562200102423  0.6109814653997176  1.0000
  C   C113      1.0  0.5179856180317942  0.45427014338823574  0.40701525384781695  1.0000
  C   C114      1.0  0.482011357371313  0.5457290632242648  0.592985422395259  1.0000
  C   C115      1.0  0.5059429887903448  0.3877330080605504  0.43536512709659553  1.0000
  C   C116      1.0  0.4940540244727958  0.6122674925422231  0.564636197253016  1.0000
  C   C117      1.0  0.49985243343095226  0.30294787682632307  0.4021697493300991  1.0000
  C   C118      1.0  0.5001455426418105  0.6970519741750679  0.5978310540920689  1.0000
  C   C119      1.0  0.5048380866320558  0.2845165108051475  0.34062972555322807  1.0000
  C   C120      1.0  0.4951598466048424  0.7154820472600251  0.6593708516161528  1.0000
  C   C121      1.0  0.517915794113229  0.3561157148301247  0.3158421687436572  1.0000
  C   C122      1.0  0.4820830969574531  0.6438821946877057  0.6841583093520287  1.0000
  C   C123      1.0  0.5221689228615317  0.3405697210140062  0.2531138018676202  1.0000
  C   C124      1.0  0.4778309688787985  0.6594288328927221  0.7468868034071576  1.0000
  C   C125      1.0  0.5126066690836524  0.2541823797852416  0.2175933027671135  1.0000
  C   C126      1.0  0.4873932127050296  0.7458161762295887  0.7824081462151754  1.0000
  C   C127      1.0  0.5142664224872745  0.2423707362380227  0.15642396491958274  1.0000
  C   C128      1.0  0.4857334906709879  0.7576284641368147  0.8435767534815924  1.0000
  C   C129      1.0  0.5256455464966123  0.3131490686477676  0.1337497881391982  1.0000
  C   C130      1.0  0.4743533659920018  0.6868494873381721  0.8662508030828845  1.0000
  C   C131      1.0  0.5350693283372153  0.39627257889712564  0.17240624138776892  1.0000
  C   C132      1.0  0.4649295791755677  0.6037259781428687  0.8275947716880624  1.0000
  C   C133      1.0  0.28588010664646646  0.5934212808124144  0.2629594694109302  1.0000
  C   C134      1.0  0.714122854817802  0.40658049392693135  0.7370396343851484  1.0000
  C   C135      1.0  0.155402781480646  0.6124904479632677  0.23977072425631726  1.0000
  C   C136      1.0  0.8446001914498993  0.3875119753522895  0.7602293363736621  1.0000
  C   C137      1.0  0.041066836241874696  0.5888343837204887  0.26330186916326437  1.0000
  C   C138      1.0  0.958937063152881  0.41116674668772646  0.7366988229741267  1.0000
  C   C139      1.0  0.14670240722132627  0.6538114428496656  0.19459386586797225  1.0000
  C   C140      1.0  0.8532996078754352  0.3461916290132336  0.8054062938356951  1.0000
  C   C141      1.0  0.024112529160326798  0.6686176171292928  0.17158369611689753  1.0000
  C   C142      1.0  0.9758894759847864  0.3313854568417085  0.8284173072942739  1.0000
  C   C143      1.0  0.910272118353312  0.642102391445434  0.19403025475341457  1.0000
  C   C144      1.0  0.0897318238773082  0.3579000318990069  0.8059706636367636  1.0000
  C   C145      1.0  0.014535355993856998  0.7165635562434433  0.12527807801875213  1.0000
  C   C146      1.0  0.9854656370153236  0.283438224762449  0.8747218413794328  1.0000
  C   C147      1.0  0.49856481032858113  0.18405785417063214  0.24414059128919527  1.0000
  C   C148      1.0  0.5014341086504928  0.8159413514455807  0.755861378620537  1.0000
  C   C149      1.0  0.4949229370095836  0.19842829971646136  0.30346377589255275  1.0000
  C   C150      1.0  0.5050750176452397  0.8015709048168208  0.6965369144032252  1.0000
  N   N1        1.0  0.8454351011058774  0.12925562317975192  0.20738868782319034  1.0000
  N   N2        1.0  0.15457361882739207  0.8707429088518025  0.7926107783646259  1.0000
  N   N3        1.0  0.8363058756421964  0.13124643644141545  0.09140811286232522  1.0000
  N   N4        1.0  0.16369601592280247  0.8687527555587594  0.9085909462292392  1.0000
  N   N5        1.0  0.7967333724938542  0.9146893066904482  0.18873300746036395  1.0000
  N   N6        1.0  0.20326855693117807  0.08531117929999973  0.8112666997377362  1.0000
  N   N7        1.0  0.6275001651737498  0.9739995039700844  0.11525463638228223  1.0000
  N   N8        1.0  0.3725028077567957  0.0260029193454727  0.8847454242476972  1.0000
  N   N9        1.0  0.8189569527540996  0.7402656622080812  0.5071531601783548  1.0000
  N   N10       1.0  0.18104397600128413  0.2597341793934831  0.4928464198406532  1.0000
  N   N11       1.0  0.8241787773901379  0.5667673654430628  0.45168308536741364  1.0000
  N   N12       1.0  0.17582210852938832  0.43323118322227583  0.548316268398807  1.0000
  N   N13       1.0  0.5248188440175028  0.4388578169494081  0.3493715755960451  1.0000
  N   N14       1.0  0.4751791534731852  0.5611426805200922  0.6506293409525129  1.0000
  N   N15       1.0  0.5330483011047137  0.4092278157912619  0.2300268525451302  1.0000
  N   N16       1.0  0.4669516120535491  0.5907713845835685  0.7699738658560449  1.0000
  O   O1        1.0  0.8214674366072783  0.8069888482180829  0.035131801864892495  1.0000
  O   O2        1.0  0.17853157150470617  0.1930122915321988  0.9648683981552537  1.0000
  O   O3        1.0  0.8919286355241879  0.9397451108509287  0.030907931053050747  1.0000
  O   O4        1.0  0.10807134037323611  0.060255378243915914  0.9690913261858968  1.0000
  O   O5        1.0  0.7697677660623442  0.5728633291952364  0.8457982235993313  1.0000
  O   O6        1.0  0.230230252846269  0.4271378147423733  0.1542028060756238  1.0000
  O   O7        1.0  0.792203600370094  0.6148961543592648  0.7620838941090684  1.0000
  O   O8        1.0  0.2077954127177222  0.3851049843369622  0.2379158840573227  1.0000
  O   O9        1.0  0.92811571411702  0.0059909555158626  0.8364091953216146  1.0000
  O   O10       1.0  0.07188520814791131  0.9940082364554357  0.1635890060097509  1.0000
  O   O11       1.0  0.7984039488157748  0.9199692970559354  0.7654139315136704  1.0000
  O   O12       1.0  0.20159399437277156  0.08002925890113488  0.23458580194821374  1.0000
  O   O13       1.0  0.06775559282957738  0.6740710378553062  0.41055631220314137  1.0000
  O   O14       1.0  0.9322374277066173  0.3259268830838096  0.5894436597226047  1.0000
  O   O15       1.0  0.9638616275735642  0.7690003599930864  0.371504733408969  1.0000
  O   O16       1.0  0.036132444473231794  0.23100079858573253  0.6284987711777036  1.0000
  O   O17       1.0  0.20779618264545258  0.9672360933638872  0.2906098046936593  1.0000
  O   O18       1.0  0.7922007499217897  0.0327618203123947  0.7093906452966365  1.0000
  O   O19       1.0  0.4240664276610247  0.9987318074739447  0.3130127288750444  1.0000
  O   O20       1.0  0.5759304899787452  0.0012661093644937003  0.6869889866765109  1.0000
  O   O21       1.0  0.8023083571263855  0.5636690919791006  0.3167462423588248  1.0000
  O   O22       1.0  0.197691570959357  0.43633010523357296  0.683253210481091  1.0000
  O   O23       1.0  0.6864886741506878  0.5888521555402024  0.24123620432966678  1.0000
  O   O24       1.0  0.31351414733971694  0.41114509181426234  0.7587612638741706  1.0000
  O   O25       1.0  0.5558526539174337  0.6512087405062558  0.3893381535306943  1.0000
  O   O26       1.0  0.4441403237828964  0.3487878874966483  0.6106615921422716  1.0000
  O   O27       1.0  0.6660357320318014  0.7747053359724846  0.3934876292456481  1.0000
  O   O28       1.0  0.33395720629386727  0.22528934735582606  0.6065096677793775  1.0000
  O   O29       1.0  0.29045918733125115  0.5364864973550567  0.2929951873972456  1.0000
  O   O30       1.0  0.7095437362729768  0.4635139833940159  0.7070032682922973  1.0000
  O   O31       1.0  0.3884174237322284  0.6314158736238155  0.2531189439902022  1.0000
  O   O32       1.0  0.6115855327562159  0.368585902169585  0.7468805816596317  1.0000
  O   O33       1.0  0.8910444496006563  0.7228964599438683  0.10769432421943753  1.0000
  O   O34       1.0  0.10895650057265979  0.27710402812580537  0.8923053689259604  1.0000
  O   O35       1.0  0.11076937201401901  0.7475866295494813  0.10708509654986642  1.0000
  O   O36       1.0  0.8892306302771615  0.2524145049594182  0.8929138519617227  1.0000
