data_image0
_chemical_formula_structural       Zn6P4H44C56N8O20
_chemical_formula_sum              "Zn6 P4 H44 C56 N8 O20"
_cell_length_a       10.334203406265674
_cell_length_b       12.338427746871469
_cell_length_c       12.889508352295586
_cell_angle_alpha    72.20035891566818
_cell_angle_beta     77.3598800776402
_cell_angle_gamma    82.6580271930038

_space_group_name_H-M_alt    "P 1"
_space_group_IT_number       1

loop_
  _space_group_symop_operation_xyz
  'x, y, z'

loop_
  _atom_site_type_symbol
  _atom_site_label
  _atom_site_symmetry_multiplicity
  _atom_site_fract_x
  _atom_site_fract_y
  _atom_site_fract_z
  _atom_site_occupancy
  Zn  Zn1       1.0  0.021961046261829206  0.8399971717387301  0.9871284493581456  1.0000
  Zn  Zn2       1.0  0.9780392252841567  0.1600034072473946  0.012871939238642896  1.0000
  Zn  Zn3       1.0  0.9471874111598523  0.0485280842391731  0.34771535811247395  1.0000
  Zn  Zn4       1.0  0.05281198927974632  0.9514707910925752  0.6522864546532573  1.0000
  Zn  Zn5       1.0  0.8646793376651516  0.7915033244889925  0.36347124033392925  1.0000
  Zn  Zn6       1.0  0.13531900741988784  0.2084964135170893  0.6365289570376406  1.0000
  P   P1        1.0  0.8250336113667629  0.8790941035347829  0.5766567758838689  1.0000
  P   P2        1.0  0.1749668349688847  0.12090392113456258  0.42334277131778464  1.0000
  P   P3        1.0  0.0884193313272945  0.9163045541017567  0.17360864209695143  1.0000
  P   P4        1.0  0.9115788947090308  0.08369688998535448  0.8263910812825017  1.0000
  H   H1        1.0  0.5825920803902349  0.8833020978942443  0.49730087149136176  1.0000
  H   H2        1.0  0.4174052707563122  0.11669764734325841  0.5026987236737455  1.0000
  H   H3        1.0  0.3450257908545994  0.8773637368101604  0.5896427599480701  1.0000
  H   H4        1.0  0.6549713259779253  0.12263941578464  0.41035743961612065  1.0000
  H   H5        1.0  0.4552565368238958  0.8422192208908258  0.9018295439017762  1.0000
  H   H6        1.0  0.5447457745566312  0.15778050020147558  0.09816918133738282  1.0000
  H   H7        1.0  0.6926546928609056  0.8576699081724968  0.8084400424996119  1.0000
  H   H8        1.0  0.30734562875093013  0.1423298297850408  0.19155670213497442  1.0000
  H   H9        1.0  0.5744890678080808  0.8777321474320061  0.05913875406256608  1.0000
  H   H10       1.0  0.42550822003070726  0.12226845565079  0.9408590517231873  1.0000
  H   H11       1.0  0.3389960774240564  0.9145533028665015  0.028162161407841814  1.0000
  H   H12       1.0  0.6609994124610025  0.0854447411432773  0.9718398081030628  1.0000
  H   H13       1.0  0.20021100272293063  0.8643152113228111  0.3791664955741325  1.0000
  H   H14       1.0  0.799788278667954  0.13568537008996626  0.6208348431994963  1.0000
  H   H15       1.0  0.4343364891232682  0.8312416098527037  0.4074013306563486  1.0000
  H   H16       1.0  0.5656637210066576  0.1687598245763269  0.5925980447527266  1.0000
  H   H17       1.0  0.9501695602475594  0.5987243774770689  0.15995853249225436  1.0000
  H   H18       1.0  0.04983572538166213  0.4012753315304991  0.8400388945996866  1.0000
  H   H19       1.0  0.8724209934170659  0.7480901750762498  0.8364635145720527  1.0000
  H   H20       1.0  0.12757822844946526  0.2519112593770458  0.1635375872055178  1.0000
  H   H21       1.0  0.7587622630061049  0.5375753559642861  0.9260407164050335  1.0000
  H   H22       1.0  0.24123707980083253  0.4624243700055858  0.0739616355563015  1.0000
  H   H23       1.0  0.8942180311672274  0.38568396818833145  0.17932748810920873  1.0000
  H   H24       1.0  0.10578329384160416  0.6143157505258472  0.8206737396900933  1.0000
  H   H25       1.0  0.7969463528404859  0.37145047743027976  0.08939043249932148  1.0000
  H   H26       1.0  0.20305689673758556  0.6285500846663368  0.9106102103335445  1.0000
  H   H27       1.0  0.5591993497534632  0.48111559676624444  0.10444599074715191  1.0000
  H   H28       1.0  0.4408001045353842  0.5188824327321412  0.895553730439687  1.0000
  H   H29       1.0  0.3475103186641775  0.4762560934688125  0.2403155413991271  1.0000
  H   H30       1.0  0.6524891412997748  0.5237419288224104  0.7596865083626623  1.0000
  H   H31       1.0  0.3506498228020902  0.4141627135028114  0.4428508430382152  1.0000
  H   H32       1.0  0.6493515022067414  0.585837005211367  0.5571503847610869  1.0000
  H   H33       1.0  0.5656602646288604  0.364073479519881  0.5070280745696393  1.0000
  H   H34       1.0  0.43434006644147877  0.6359262464257257  0.49297255102320037  1.0000
  H   H35       1.0  0.8784990078182703  0.2985857713875077  0.34578460368530967  1.0000
  H   H36       1.0  0.12150126372770843  0.7014148075986172  0.6542157849114787  1.0000
  H   H37       1.0  0.7903744944745271  0.31167511906993883  0.47574293042130483  1.0000
  H   H38       1.0  0.20962676911825182  0.6883254550871526  0.5242572841902913  1.0000
  H   H39       1.0  0.7266128432215666  0.5867655116380703  0.37075495687849974  1.0000
  H   H40       1.0  0.2733864324942203  0.4132350769818702  0.6292440533201712  1.0000
  H   H41       1.0  0.0875214287958954  0.38092107263280184  0.3687187998585628  1.0000
  H   H42       1.0  0.9124788427500833  0.6190795063533301  0.6312815887382186  1.0000
  H   H43       1.0  0.1375551563174966  0.6078100793021548  0.3410889108353885  1.0000
  H   H44       1.0  0.8624430697188358  0.39219136478495653  0.6589108125440645  1.0000
  C   C1        1.0  0.653403368758255  0.8701684719345766  0.6470722098346754  1.0000
  C   C2        1.0  0.34660012080894376  0.1298286755975866  0.3529301571740646  1.0000
  C   C3        1.0  0.5548018938311756  0.8758937842459104  0.5856898501144556  1.0000
  C   C4        1.0  0.44519650321142024  0.12410511032919662  0.4143074794865669  1.0000
  C   C5        1.0  0.42186622536777935  0.8706379253083442  0.6376025000394064  1.0000
  C   C6        1.0  0.5781321197172602  0.12936181269773783  0.36239769733216315  1.0000
  C   C7        1.0  0.38562261092216227  0.8578330756257913  0.751897684752251  1.0000
  C   C8        1.0  0.6143796428257176  0.1421674961046406  0.24810157968250476  1.0000
  C   C9        1.0  0.4841749764639474  0.8521269926288966  0.813208667449885  1.0000
  C   C10       1.0  0.515824485391704  0.1478710272599457  0.18679415850355946  1.0000
  C   C11       1.0  0.6169910431723339  0.8590899348080114  0.761050701943553  1.0000
  C   C12       1.0  0.3830113796901102  0.14090808981279676  0.23894539252111002  1.0000
  C   C13       1.0  0.24397066722194446  0.8478006740988419  0.8084208240922591  1.0000
  C   C14       1.0  0.7560286141689403  0.15219990731394262  0.19158051468136966  1.0000
  C   C15       1.0  0.6598897768956392  0.8327993902847198  0.2503303325207611  1.0000
  C   C16       1.0  0.3401104870835354  0.1672011983109485  0.7496669513094218  1.0000
  C   C17       1.0  0.5179337336761165  0.8500099826418791  0.23529283993945432  1.0000
  C   C18       1.0  0.4820665359781629  0.1499905987466335  0.7647067724656793  1.0000
  C   C19       1.0  0.4908861847031504  0.8737506361947358  0.1282217849337711  1.0000
  C   C20       1.0  0.5091090651927956  0.1262508223794967  0.8717784604012593  1.0000
  C   C21       1.0  0.360515833412336  0.8937895859085075  0.1114542659844844  1.0000
  C   C22       1.0  0.6394784263285019  0.1062118750923844  0.8885469295273865  1.0000
  C   C23       1.0  0.2545553668233466  0.8886732343739964  0.2020760005954116  1.0000
  C   C24       1.0  0.7454437397778692  0.1113299013555604  0.797926179573352  1.0000
  C   C25       1.0  0.28136076872235793  0.8643420885258877  0.30904001029552564  1.0000
  C   C26       1.0  0.7186374034647117  0.1356602013945789  0.6909618046628337  1.0000
  C   C27       1.0  0.4124918552724067  0.8459785307192362  0.3251775928182568  1.0000
  C   C28       1.0  0.5875074856428314  0.1540211976530301  0.6748239829514233  1.0000
  C   C29       1.0  0.9133063172638815  0.6114679769276918  0.08435485022366852  1.0000
  C   C30       1.0  0.0866980415179981  0.3885308766612424  0.9156453164244667  1.0000
  C   C31       1.0  0.8696552178378384  0.6861415642908784  0.9175183655476074  1.0000
  C   C32       1.0  0.13034499607548614  0.3138598653333773  0.08248256224477049  1.0000
  C   C33       1.0  0.8136054855224374  0.582752066712665  0.9605475710493181  1.0000
  C   C34       1.0  0.1863957204376803  0.41724935808255037  0.03945318275786749  1.0000
  C   C35       1.0  0.8079589381260848  0.4238776317669917  0.14164534620758212  1.0000
  C   C36       1.0  0.1920413315281948  0.5761229496215209  0.8583542661975585  1.0000
  C   C37       1.0  0.6828172131649382  0.4251955207166631  0.2280454241440992  1.0000
  C   C38       1.0  0.3171831160137017  0.5748042076313311  0.7719544252570926  1.0000
  C   C39       1.0  0.5607446565724602  0.4559848732723212  0.193117660362816  1.0000
  C   C40       1.0  0.4392569027503939  0.5440114380845602  0.8068829630374097  1.0000
  C   C41       1.0  0.44162848309698416  0.45352316973107076  0.2692764065462327  1.0000
  C   C42       1.0  0.5583720284381145  0.5464739946906009  0.7307257062264226  1.0000
  C   C43       1.0  0.44336936776187497  0.42004284654186097  0.38252261398298504  1.0000
  C   C44       1.0  0.5566321358200313  0.579954313050763  0.617479324804478  1.0000
  C   C45       1.0  0.5644386300631794  0.3906628494429044  0.4183274715939546  1.0000
  C   C46       1.0  0.43556275257830646  0.6093360186331508  0.5816732170097509  1.0000
  C   C47       1.0  0.684809354590122  0.39178067241613224  0.34255100144933703  1.0000
  C   C48       1.0  0.31519097648020994  0.6082190535294741  0.6574496241435028  1.0000
  C   C49       1.0  0.8126117878594528  0.3566296708561225  0.38660295356829266  1.0000
  C   C50       1.0  0.18739151935127302  0.6433700406023704  0.6133971500689769  1.0000
  C   C51       1.0  0.8315016304414585  0.5624923735138339  0.3680400281615804  1.0000
  C   C52       1.0  0.1684995679518622  0.43750906089093183  0.6319576208790068  1.0000
  C   C53       1.0  0.02305652919260129  0.45865125267816614  0.36134899979191465  1.0000
  C   C54       1.0  0.976943803769437  0.54134847086506  0.6386524019925801  1.0000
  C   C55       1.0  0.04499813905695051  0.5693575409630826  0.35193872570838636  1.0000
  C   C56       1.0  0.9550020115486219  0.43064474650646645  0.6480604127046378  1.0000
  N   N1        1.0  0.9316170205170096  0.7023727791055733  0.9959445273133056  1.0000
  N   N2        1.0  0.0683852332308703  0.2976277926248585  0.004054737121442985  1.0000
  N   N3        1.0  0.8422944700504684  0.5364335456216551  0.06599088492183817  1.0000
  N   N4        1.0  0.1577078432217647  0.4635661730682584  0.9340086165089758  1.0000
  N   N5        1.0  0.9247799246403475  0.6327369728747883  0.35643792954192577  1.0000
  N   N6        1.0  0.07521829761257949  0.36726447601709106  0.6435602414542316  1.0000
  N   N7        1.0  0.8872060970641372  0.45636886495999823  0.37114544237317654  1.0000
  N   N8        1.0  0.11279411495748803  0.543632567066645  0.6288547092275536  1.0000
  O   O1        1.0  0.8364156524392784  0.9994011085878963  0.493000116794697  1.0000
  O   O2        1.0  0.1635828135861743  0.0005969209347612003  0.5070013307606374  1.0000
  O   O3        1.0  0.9073267354367192  0.8608964268765651  0.6680753260914896  1.0000
  O   O4        1.0  0.092671669172681  0.13910245808899188  0.3319251082761312  1.0000
  O   O5        1.0  0.8616386253554397  0.7831124947579013  0.520170150031184  1.0000
  O   O6        1.0  0.1383627553943541  0.21688637572054154  0.4798297623808736  1.0000
  O   O7        1.0  0.15650657533479523  0.8404623347129178  0.7543474663520868  1.0000
  O   O8        1.0  0.8434927617970444  0.15953739846411708  0.24565255703429761  1.0000
  O   O9        1.0  0.21510193985982803  0.8405963499367531  0.9115773049548679  1.0000
  O   O10       1.0  0.7848982721617972  0.15940508208988996  0.0884228466458623  1.0000
  O   O11       1.0  0.08415470658879802  0.0341093311637621  0.0909017490978883  1.0000
  O   O12       1.0  0.9158445710186883  0.9658912550537908  0.9090980372924375  1.0000
  O   O13       1.0  0.05838506180842984  0.8185822694306066  0.1348392191451921  1.0000
  O   O14       1.0  0.9416142753234099  0.18141746374643472  0.865160804241185  1.0000
  O   O15       1.0  0.9915270112547817  0.9136774857258275  0.287974662500133  1.0000
  O   O16       1.0  0.0084692306879504  0.0863239680193715  0.7120254088497048  1.0000
  O   O17       1.0  0.6763818386175374  0.8136187523144612  0.3526462408148133  1.0000
  O   O18       1.0  0.32361749473090384  0.1863809856673412  0.6473522301882609  1.0000
  O   O19       1.0  0.7529475800935472  0.8363260585352279  0.16986943334663346  1.0000
  O   O20       1.0  0.2470506997920339  0.16367453971852802  0.8301281984539273  1.0000
