data_image0
_chemical_formula_structural       Zn2H16C36N6O8
_chemical_formula_sum              "Zn2 H16 C36 N6 O8"
_cell_length_a       9.779495322800813
_cell_length_b       11.072680432496083
_cell_length_c       13.30499142510671
_cell_angle_alpha    90.24732826675823
_cell_angle_beta     70.55939770393927
_cell_angle_gamma    91.42039749138412

_space_group_name_H-M_alt    "P 1"
_space_group_IT_number       1

loop_
  _space_group_symop_operation_xyz
  'x, y, z'

loop_
  _atom_site_type_symbol
  _atom_site_label
  _atom_site_symmetry_multiplicity
  _atom_site_fract_x
  _atom_site_fract_y
  _atom_site_fract_z
  _atom_site_occupancy
  Zn  Zn1       1.0  0.35142110267066334  0.5017508420131663  0.49763336728094737  1.0000
  Zn  Zn2       1.0  0.647213755340971  0.5084493256485487  0.4883728705648238  1.0000
  H   H1        1.0  0.22517261779362488  0.11837136477984701  0.6748506964755306  1.0000
  H   H2        1.0  0.19114198904354407  0.8966793186916961  0.6758003669725452  1.0000
  H   H3        1.0  0.14806151378566312  0.9020845929718462  0.5546043351661465  1.0000
  H   H4        1.0  0.93216660209049  0.39638023209396783  0.3555112061200488  1.0000
  H   H5        1.0  0.18501849969037212  0.3920563196310881  0.3613253167952877  1.0000
  H   H6        1.0  0.007769823311512902  0.5925349891795194  0.7355802226319168  1.0000
  H   H7        1.0  0.0674193957818545  0.7240321872648396  0.6538904987454828  1.0000
  H   H8        1.0  0.7564636859756818  0.612053843802606  0.7244755600860557  1.0000
  H   H9        1.0  0.8611438794340958  0.38330918515520557  0.7943454175421535  1.0000
  H   H10       1.0  0.818131620418349  0.7399145415822661  0.6372642253746861  1.0000
  H   H11       1.0  0.9285455330337486  0.4458202931820807  0.9512929394732339  1.0000
  H   H12       1.0  0.40940746755045154  0.45360372305801633  0.17591350824756793  1.0000
  H   H13       1.0  0.2675399166277188  0.36312101547211734  0.11225124339111398  1.0000
  H   H14       1.0  0.0878359572262255  0.3347286665920494  0.022428986209419598  1.0000
  H   H15       1.0  0.15710900151052704  0.3832105399769858  0.8264137498679529  1.0000
  H   H16       1.0  0.6753127704849078  0.3765447481715043  0.7071822449652033  1.0000
  C   C1        1.0  0.49514968547462973  0.7391305850526277  0.501341326589518  1.0000
  C   C2        1.0  0.44917917588990963  0.39597975606704944  0.9665623508985985  1.0000
  C   C3        1.0  0.4925156511779534  0.400007158358676  0.8528652244262601  1.0000
  C   C4        1.0  0.5584979480173616  0.41834746930047123  0.016642953062039074  1.0000
  C   C5        1.0  0.7082524138401142  0.418739594708555  0.9528296050806231  1.0000
  C   C6        1.0  0.7470465447330313  0.3952971618736002  0.8411404229288661  1.0000
  C   C7        1.0  0.6439379501539977  0.3909060589846193  0.7926314699077253  1.0000
  C   C8        1.0  0.522333282638357  0.4476550955025047  0.12532095739630483  1.0000
  C   C9        1.0  0.7763793864081877  0.47227246328412786  0.10850069343980812  1.0000
  C   C10       1.0  0.38232413584005803  0.40685738750358535  0.8046583645428809  1.0000
  C   C11       1.0  0.37841892228590274  0.9437508354141073  0.5298211796722113  1.0000
  C   C12       1.0  0.4151379452661033  0.4531154546319485  0.6932484691139251  1.0000
  C   C13       1.0  0.5005369557731285  0.8738463314647902  0.4885249381511442  1.0000
  C   C14       1.0  0.6314527445770324  0.9388645654172977  0.43388824137979737  1.0000
  C   C15       1.0  0.6348276823035166  0.06721520804351401  0.4232085157480368  1.0000
  C   C16       1.0  0.5091706405216742  0.1357052045932008  0.47033297377056726  1.0000
  C   C17       1.0  0.38407241489363037  0.06922031599255972  0.5221995093298659  1.0000
  C   C18       1.0  0.2282194426245852  0.0825875095986959  0.5967213503205001  1.0000
  C   C19       1.0  0.21924949848229155  0.9385017128638681  0.5966732549754423  1.0000
  C   C20       1.0  0.8977731528405574  0.5669321102304395  0.5610992411186118  1.0000
  C   C21       1.0  0.9612172738078258  0.4461455031727937  0.41649534042413444  1.0000
  C   C22       1.0  0.10235360499311241  0.4431420263552113  0.42009093408519493  1.0000
  C   C23       1.0  0.5102684602288222  0.2708624042130765  0.4726718613968685  1.0000
  C   C24       1.0  0.0371929860237756  0.5613594512799054  0.565848764743471  1.0000
  C   C25       1.0  0.0036567058010987964  0.6394810258886992  0.6641442359128362  1.0000
  C   C26       1.0  0.8452418888277081  0.6492183995267311  0.6565873505284896  1.0000
  C   C27       1.0  0.5805987522751153  0.5033537481783625  0.2881287278156535  1.0000
  C   C28       1.0  0.8143343191063509  0.4446405249087277  0.0005348271859943363  1.0000
  C   C29       1.0  0.6268765241516335  0.4749648363224639  0.17180135006082506  1.0000
  C   C30       1.0  0.2386028917236801  0.3815919136472914  0.8658946478189903  1.0000
  C   C31       1.0  0.19955951615647652  0.3580896538611428  0.9754025757482268  1.0000
  C   C32       1.0  0.30199488412596054  0.37209873242458974  0.025878184113579995  1.0000
  C   C33       1.0  0.8915140653032056  0.4997495383559852  0.14939257773542639  1.0000
  C   C34       1.0  0.7670036370801726  0.1278610426606832  0.36232490502404596  1.0000
  C   C35       1.0  0.12336573616934741  0.1472460910185092  0.5633355700980757  1.0000
  C   C36       1.0  0.767147466302312  0.8802828799444314  0.389473778626673  1.0000
  N   N1        1.0  0.8555962930489686  0.5093803382602433  0.48802284770438564  1.0000
  N   N2        1.0  0.1430281279338672  0.5011675019687518  0.49589506709731507  1.0000
  N   N3        1.0  0.9953066133323464  0.5195249933117766  0.17235738975340806  1.0000
  N   N4        1.0  0.873129723445473  0.17750833265075272  0.3094001545105129  1.0000
  N   N5        1.0  0.03349779978019281  0.19775162474257263  0.5419004667578519  1.0000
  N   N6        1.0  0.8846878431371368  0.8442757280903876  0.3527852466810444  1.0000
  O   O1        1.0  0.37091707528822593  0.686703109764153  0.5258348398463895  1.0000
  O   O2        1.0  0.6159839208114236  0.6899968152186134  0.485866199837254  1.0000
  O   O3        1.0  0.3152551263309321  0.44375991675872933  0.6512284428615015  1.0000
  O   O4        1.0  0.5386991745223855  0.5044176447526071  0.6488597836862409  1.0000
  O   O5        1.0  0.4033510279480553  0.32004954587880263  0.4569438883597385  1.0000
  O   O6        1.0  0.6142632679285996  0.3213276548002284  0.49482781993809505  1.0000
  O   O7        1.0  0.4493294050474362  0.5313386714719214  0.33546550021213045  1.0000
  O   O8        1.0  0.6780555891158997  0.4941794231739464  0.3312719811776573  1.0000
