data_image0
_chemical_formula_structural       CdH30C28N4O12
_chemical_formula_sum              "Cd1 H30 C28 N4 O12"
_cell_length_a       7.2174265325056
_cell_length_b       9.114656584401825
_cell_length_c       12.048121067764814
_cell_angle_alpha    89.96974709325961
_cell_angle_beta     95.08181637060602
_cell_angle_gamma    68.44806716153695

_space_group_name_H-M_alt    "P 1"
_space_group_IT_number       1

loop_
  _space_group_symop_operation_xyz
  'x, y, z'

loop_
  _atom_site_type_symbol
  _atom_site_label
  _atom_site_symmetry_multiplicity
  _atom_site_fract_x
  _atom_site_fract_y
  _atom_site_fract_z
  _atom_site_occupancy
  Cd  Cd1       1.0  0.5000039890553936  5.87461906320013e-06  0.9999950095970433  1.0000
  H   H1        1.0  0.11530135847947776  0.9004162738807793  0.6887513841617193  1.0000
  H   H2        1.0  0.8847065170794721  0.0995878786482081  0.311244185177209  1.0000
  H   H3        1.0  0.922432806348354  0.9298055669072482  0.07315378094310179  1.0000
  H   H4        1.0  0.07756770658627234  0.07019755107710071  0.9268458995429186  1.0000
  H   H5        1.0  0.765837361275473  0.07300575116574491  0.1275617188943698  1.0000
  H   H6        1.0  0.2341690301018957  0.9269996765946119  0.8724379563642302  1.0000
  H   H7        1.0  0.15454420949505726  0.42911604187970914  0.2539682075057783  1.0000
  H   H8        1.0  0.8454746367194517  0.5708821319708833  0.7460268308706618  1.0000
  H   H9        1.0  0.4468305781952183  0.27268821368094354  0.8157668215286408  1.0000
  H   H10       1.0  0.5531983758153274  0.7273298477729782  0.1842260625686976  1.0000
  H   H11       1.0  0.3157300429062033  0.57052087981522  0.7937001027233067  1.0000
  H   H12       1.0  0.684291406403176  0.4294996945337317  0.2062976159080776  1.0000
  H   H13       1.0  0.17266665208605045  0.7305784264475292  0.9574184406148873  1.0000
  H   H14       1.0  0.8273402682668446  0.2694316848566416  0.0425802667643183  1.0000
  H   H15       1.0  0.27329467205035474  0.2917996691071211  0.13415188262290914  1.0000
  H   H16       1.0  0.7267070971616079  0.7082031399165131  0.8658336744120448  1.0000
  H   H17       1.0  0.0018922426167619758  0.565753928687549  0.4002187773680035  1.0000
  H   H18       1.0  0.9980652860077087  0.43425027240742514  0.599761258702415  1.0000
  H   H19       1.0  0.9605384116420981  0.7485289536985463  0.3291481294657785  1.0000
  H   H20       1.0  0.039468305671704236  0.25147039640317803  0.6708425793670045  1.0000
  H   H21       1.0  0.3135559350988614  0.7169494399269497  0.37559072662315174  1.0000
  H   H22       1.0  0.6864473368684827  0.28302486887509554  0.6244389801204449  1.0000
  H   H23       1.0  0.1927227191146983  0.7190214204234024  0.4964455882851553  1.0000
  H   H24       1.0  0.807227434263915  0.2809682660678875  0.5035689236454175  1.0000
  H   H25       1.0  0.4682392491178007  0.41823820274420614  0.3925507060742532  1.0000
  H   H26       1.0  0.5317194414421705  0.5817295490011604  0.6074870306215558  1.0000
  H   H27       1.0  0.346800372158576  0.4220162213865919  0.5136610790290207  1.0000
  H   H28       1.0  0.653136843486166  0.577976317326126  0.4863723440874211  1.0000
  H   H29       1.0  0.8354469434048183  0.9630662554708423  0.44548102794026795  1.0000
  H   H30       1.0  0.16455889574926633  0.03692376150995361  0.554513281904299  1.0000
  C   C1        1.0  0.3754291188564025  0.3489742136030004  0.8816941370120263  1.0000
  C   C2        1.0  0.6245920354840847  0.651036864652987  0.11829970459235993  1.0000
  C   C3        1.0  0.3050601334590938  0.5129005946134128  0.8707413198376132  1.0000
  C   C4        1.0  0.6949539552600896  0.48711766309807564  0.1292555557949413  1.0000
  C   C5        1.0  0.22389785243599641  0.6020619008107674  0.9605735178796736  1.0000
  C   C6        1.0  0.7761105500643379  0.39794821735485914  0.03942603772579639  1.0000
  C   C7        1.0  0.212631418190618  0.5249739872692416  0.05880157354043549  1.0000
  C   C8        1.0  0.787371597128022  0.4750349232578301  0.9411946307730973  1.0000
  C   C9        1.0  0.2809669098569215  0.36027284263167303  0.06163948554461031  1.0000
  C   C10       1.0  0.7190381708000045  0.6397359117848185  0.9383500889563906  1.0000
  C   C11       1.0  0.13827809144559908  0.6228067962501883  0.15722655106899455  1.0000
  C   C12       1.0  0.8617230925413892  0.37719745783830655  0.8427714381506703  1.0000
  C   C13       1.0  0.07251075289814672  0.6311701633469511  0.3531419038712187  1.0000
  C   C14       1.0  0.9274737907152897  0.36882350195186575  0.6468503974844779  1.0000
  C   C15       1.0  0.24990564476559002  0.6478146294697356  0.42433858542067066  1.0000
  C   C16       1.0  0.7500648236657171  0.3521679223358021  0.5756796938915798  1.0000
  C   C17       1.0  0.4121781825855138  0.49022098289442806  0.464682364494685  1.0000
  C   C18       1.0  0.5877765780750578  0.5097572955469404  0.535350850150472  1.0000
  C   C19       1.0  0.5528442012021557  0.0645316646322414  0.2697333364850323  1.0000
  C   C20       1.0  0.44715895619332685  0.9354736984551623  0.7302621444415324  1.0000
  C   C21       1.0  0.5219224738084094  0.03799982761462669  0.3891133450093065  1.0000
  C   C22       1.0  0.47809813870723855  0.9619912582180845  0.6108810948194687  1.0000
  C   C23       1.0  0.6869095314052412  0.9806371817006155  0.46867735572506325  1.0000
  C   C24       1.0  0.3131078073799217  0.019351540145599696  0.5313154552776354  1.0000
  C   C25       1.0  0.667732517381118  0.9419252207984815  0.5783206580622959  1.0000
  C   C26       1.0  0.3322859816833202  0.0580670213821577  0.42167205930061874  1.0000
  C   C27       1.0  0.8560510605946302  0.8722199140434058  0.6546808941057947  1.0000
  C   C28       1.0  0.14395713886662517  0.12777944291978116  0.34531066295324564  1.0000
  N   N1        1.0  0.361654139855318  0.27450476586268735  0.9754390641790281  1.0000
  N   N2        1.0  0.6383581717475335  0.7255039888943886  0.024553086200263897  1.0000
  N   N3        1.0  0.13062227085463007  0.5468799490253531  0.2516269676809557  1.0000
  N   N4        1.0  0.86939118614405  0.45311829927950953  0.7483696735494831  1.0000
  O   O1        1.0  0.4573839562269271  0.015038851359953798  0.1956145588893321  1.0000
  O   O2        1.0  0.5426227739361948  0.9849758076212467  0.8043765195984492  1.0000
  O   O3        1.0  0.6742920957759111  0.13316611929360536  0.2507641616635752  1.0000
  O   O4        1.0  0.3257162292613458  0.8668381181521169  0.7492355708078833  1.0000
  O   O5        1.0  0.8982975603800508  0.7521132044778086  0.7143199580457775  1.0000
  O   O6        1.0  0.10172320706176656  0.2478896427946964  0.285674128051035  1.0000
  O   O7        1.0  0.9770448732086408  0.9499997475717663  0.6446530987403278  1.0000
  O   O8        1.0  0.022964329571586  0.04999265037886861  0.3553436725568275  1.0000
  O   O9        1.0  0.09270345784705106  0.7690131120243535  0.1516576097929843  1.0000
  O   O10       1.0  0.9072858793588029  0.23098650552876887  0.8483395572550166  1.0000
  O   O11       1.0  0.8050981631302322  0.028582362307524495  0.0536304345612564  1.0000
  O   O12       1.0  0.1949076868390375  0.9714242456455725  0.9463691990842449  1.0000
