data_image0
_chemical_formula_structural       Ba2H8C12N4O10
_chemical_formula_sum              "Ba2 H8 C12 N4 O10"
_cell_length_a       5.6515694967897
_cell_length_b       8.061479429456396
_cell_length_c       9.827922072748068
_cell_angle_alpha    93.98963966552553
_cell_angle_beta     105.49511026451879
_cell_angle_gamma    96.82970583116709

_space_group_name_H-M_alt    "P 1"
_space_group_IT_number       1

loop_
  _space_group_symop_operation_xyz
  'x, y, z'

loop_
  _atom_site_type_symbol
  _atom_site_label
  _atom_site_symmetry_multiplicity
  _atom_site_fract_x
  _atom_site_fract_y
  _atom_site_fract_z
  _atom_site_occupancy
  Ba  Ba1       1.0  0.3165894376619889  0.2165389204408896  0.05284611121733462  1.0000
  Ba  Ba2       1.0  0.6834137833105983  0.7834608413153745  0.9471549212536632  1.0000
  H   H1        1.0  0.3251522635862544  0.3011179788169614  0.6629623441474168  1.0000
  H   H2        1.0  0.6748509405372758  0.6988817911679991  0.3370407211858933  1.0000
  H   H3        1.0  0.8248292676120315  0.14731594517064647  0.34694151737812723  1.0000
  H   H4        1.0  0.17515560250633647  0.8526837328754127  0.6530535873142684  1.0000
  H   H5        1.0  0.949668682652259  0.0804300877331912  0.6008304039497078  1.0000
  H   H6        1.0  0.05032462747834638  0.9195658486485314  0.39916378458961094  1.0000
  H   H7        1.0  0.23255431061339488  0.36753932611977547  0.41016241109049656  1.0000
  H   H8        1.0  0.7674501346465519  0.632466742187937  0.5898452575229884  1.0000
  C   C1        1.0  0.6911182911487685  0.1177487951571763  0.793351568076176  1.0000
  C   C2        1.0  0.3088767363539517  0.8822559687508332  0.20665150449016786  1.0000
  C   C3        1.0  0.6419603237966243  0.1810578806162795  0.6492823740197481  1.0000
  C   C4        1.0  0.35803454370627463  0.8189368188721319  0.3507150441504337  1.0000
  C   C5        1.0  0.44015048032831317  0.2656368739805402  0.5958958691006516  1.0000
  C   C6        1.0  0.5598432470662971  0.7343616204051672  0.40410971520359606  1.0000
  C   C7        1.0  0.7210674290446518  0.18207006114939622  0.421006559027326  1.0000
  C   C8        1.0  0.2789255924209328  0.8179246353166504  0.5789915877255043  1.0000
  C   C9        1.0  0.78916222659268  0.14362639363343277  0.5608923742356355  1.0000
  C   C10       1.0  0.21083077802385466  0.85636831106131  0.4391078053795  1.0000
  C   C11       1.0  0.3889083923783758  0.3020283568606246  0.4555036904638286  1.0000
  C   C12       1.0  0.6110921732362798  0.6979764161145  0.5444971963545913  1.0000
  N   N1        1.0  0.5217666947471287  0.2577285256227668  0.3670439921335601  1.0000
  N   N2        1.0  0.47822654568998496  0.7422762064624351  0.6329526939973321  1.0000
  N   N3        1.0  0.9004146867848277  0.43304830463223  0.14033189702464452  1.0000
  N   N4        1.0  0.09959483720039937  0.5669552353103526  0.8596672722317679  1.0000
  O   O1        1.0  0.5126144601564917  0.09977541951807468  0.8498368033074686  1.0000
  O   O2        1.0  0.4873825083506275  0.900220539365776  0.15015999379118483  1.0000
  O   O3        1.0  0.9015880005909408  0.07198890226328562  0.8459717204846414  1.0000
  O   O4        1.0  0.09841657333419816  0.9280083415405045  0.15402633551918404  1.0000
  O   O5        1.0  0.7175327797641059  0.513790296863796  0.1303602281417326  1.0000
  O   O6        1.0  0.2824806491400055  0.4862145260683377  0.8696426736162837  1.0000
  O   O7        1.0  0.8650874684269141  0.2736111141023586  0.13775833610984028  1.0000
  O   O8        1.0  0.13492385947298394  0.7263924494343355  0.8622451867197044  1.0000
  O   O9        1.0  0.11448457549172278  0.5079049683232739  0.15107066924499435  1.0000
  O   O10       1.0  0.8855231445788334  0.49209854802519704  0.848924146438279  1.0000
