data_image0
_chemical_formula_structural       Zn4H24C32Br4N28
_chemical_formula_sum              "Zn4 H24 C32 Br4 N28"
_cell_length_a       7.2965740712516585
_cell_length_b       8.514379442005891
_cell_length_c       17.084287608347683
_cell_angle_alpha    89.99997918770651
_cell_angle_beta     93.72091021008741
_cell_angle_gamma    90.00013556760373

_space_group_name_H-M_alt    "P 1"
_space_group_IT_number       1

loop_
  _space_group_symop_operation_xyz
  'x, y, z'

loop_
  _atom_site_type_symbol
  _atom_site_label
  _atom_site_symmetry_multiplicity
  _atom_site_fract_x
  _atom_site_fract_y
  _atom_site_fract_z
  _atom_site_occupancy
  Zn  Zn1       1.0  0.23871365046970547  0.8037463560836711  0.19674910929438744  1.0000
  Zn  Zn2       1.0  0.7612874821069796  0.30374681799231235  0.3032515098176773  1.0000
  Zn  Zn3       1.0  0.7612870751094649  0.1962531828145657  0.8032514181186841  1.0000
  Zn  Zn4       1.0  0.2387132374464684  0.6962538953898515  0.6967484321007547  1.0000
  H   H1        1.0  0.4344007154072074  0.7608529870886754  0.8614749613565778  1.0000
  H   H2        1.0  0.5655984115630588  0.2608531722090388  0.6385260178787178  1.0000
  H   H3        1.0  0.5656000101735615  0.23914772629327524  0.1385255660564297  1.0000
  H   H4        1.0  0.43439956121578405  0.7391487156540604  0.3614738530453536  1.0000
  H   H5        1.0  0.42829363655817326  0.9374565529339377  0.9166813700436834  1.0000
  H   H6        1.0  0.5717059648494357  0.43745796646707896  0.5833190059923439  1.0000
  H   H7        1.0  0.5717029688550925  0.06254181147641448  0.0833190508779893  1.0000
  H   H8        1.0  0.42829750750913576  0.562543921401371  0.41668159241490343  1.0000
  H   H9        1.0  0.25891842715171987  0.21233600701017244  0.9147275788801323  1.0000
  H   H10       1.0  0.7410791823840343  0.7123378311844913  0.5852721987326248  1.0000
  H   H11       1.0  0.7410767928188096  0.7876623573992062  0.0852716355552303  1.0000
  H   H12       1.0  0.25891739892475846  0.28766405667785466  0.414725880210554  1.0000
  H   H13       1.0  0.3303988301809683  0.47554729629779025  0.8622246051540685  1.0000
  H   H14       1.0  0.6695953813016049  0.9755477603193511  0.6377756250747809  1.0000
  H   H15       1.0  0.6695963897911527  0.5244522425953091  0.1377746092812373  1.0000
  H   H16       1.0  0.330399838670516  0.024451778573741496  0.362223589360525  1.0000
  H   H17       1.0  0.15224523667571796  0.4043431346125173  0.1418934584815972  1.0000
  H   H18       1.0  0.8477548022229868  0.9043449723012669  0.35810770054293073  1.0000
  H   H19       1.0  0.8477541155153505  0.5956564042843269  0.8581070334343224  1.0000
  H   H20       1.0  0.15224867013718327  0.09565809005089679  0.6418928978642597  1.0000
  H   H21       1.0  0.17033037052076594  0.17561718204130725  0.049863336212411  1.0000
  H   H22       1.0  0.8296690461120236  0.675618913655718  0.4501378457420486  1.0000
  H   H23       1.0  0.8296676082822004  0.8243823568541441  0.9501371202063497  1.0000
  H   H24       1.0  0.1703302940276075  0.3243829742089801  0.549861475184592  1.0000
  C   C1        1.0  0.3480293080289486  0.8341512395492428  0.8970724252790987  1.0000
  C   C2        1.0  0.6519686389378663  0.3341504536325671  0.6029279256163207  1.0000
  C   C3        1.0  0.6519686647466971  0.16584829934642184  0.1029274456450935  1.0000
  C   C4        1.0  0.3480320866429095  0.6658502597493906  0.3970726017966868  1.0000
  C   C5        1.0  0.23145113409164964  0.5686253333289312  0.0525429065468614  1.0000
  C   C6        1.0  0.7685466180735859  0.06862687635204169  0.4474582506364584  1.0000
  C   C7        1.0  0.7685482180978197  0.43137303108419883  0.9474575853691081  1.0000
  C   C8        1.0  0.23145410148305962  0.931376185997557  0.5525416912818528  1.0000
  C   C9        1.0  0.27796364697030634  0.5875095587862516  0.9740322980669448  1.0000
  C   C10       1.0  0.7220377551847721  0.08751132296561788  0.5259687695403628  1.0000
  C   C11       1.0  0.7220384519937753  0.41248763114595016  0.0259682648433852  1.0000
  C   C12       1.0  0.27796296437027485  0.9124905649002669  0.47403117237800535  1.0000
  C   C13       1.0  0.2531985238637234  0.3146605316682169  0.952603339235175  1.0000
  C   C14       1.0  0.7468048696589239  0.8146612214938  0.5473977410973062  1.0000
  C   C15       1.0  0.746803575101957  0.6853378327476985  0.0473972236751052  1.0000
  C   C16       1.0  0.2531972172553125  0.18533949188996957  0.452601650823695  1.0000
  C   C17       1.0  0.2917656856196019  0.46108699071248777  0.9223395457680255  1.0000
  C   C18       1.0  0.7082298538836015  0.9610875789021588  0.5776601359130424  1.0000
  C   C19       1.0  0.708232287154452  0.5389113736994628  0.0776603251562165  1.0000
  C   C20       1.0  0.29176673345089915  0.038913134476253185  0.4223385285247758  1.0000
  C   C21       1.0  0.19089938754254385  0.4194012523653683  0.0819517356983752  1.0000
  C   C22       1.0  0.8091006862969934  0.9194041404585606  0.41804883632193673  1.0000
  C   C23       1.0  0.8091013320061152  0.5805959375656471  0.9180482062202345  1.0000
  C   C24       1.0  0.1909014006204401  0.08059892189264418  0.5819505555989509  1.0000
  C   C25       1.0  0.20235826726194261  0.29400048260501405  0.030582988655574204  1.0000
  C   C26       1.0  0.7976428327762832  0.7940033087004675  0.46941704593882605  1.0000
  C   C27       1.0  0.7976410728728995  0.7059978818085424  0.9694163322712441  1.0000
  C   C28       1.0  0.2023592481138365  0.20599975365094983  0.5305817604874861  1.0000
  C   C29       1.0  0.17976876375365697  0.8862817194845077  0.84937915229753  1.0000
  C   C30       1.0  0.8202306924007631  0.3862824165520208  0.6506206433742676  1.0000
  C   C31       1.0  0.8202305824084989  0.11371664492883579  0.1506207541238638  1.0000
  C   C32       1.0  0.17977003920891826  0.6137194713134305  0.3493804695332656  1.0000
  Br  Br1       1.0  0.5415817999683485  0.8731093097409753  0.2379473220982931  1.0000
  Br  Br2       1.0  0.45841950926151753  0.3731103573285921  0.26205211907090126  1.0000
  Br  Br3       1.0  0.4584189256140192  0.12689257812469623  0.7620532053146576  1.0000
  Br  Br4       1.0  0.5415812042662156  0.6268915305375058  0.7379472373528912  1.0000
  N   N1        1.0  0.2821972964588042  0.8213179124950326  0.0340302368011294  1.0000
  N   N2        1.0  0.7178011371477027  0.3213193377893333  0.46597030955502566  1.0000
  N   N3        1.0  0.7178034291187744  0.1786804519194902  0.9659702906119989  1.0000
  N   N4        1.0  0.28220096182436555  0.6786837245614379  0.534030253355013  1.0000
  N   N5        1.0  0.23804700052543384  0.7161240393390996  0.0861209997440753  1.0000
  N   N6        1.0  0.7619525142543608  0.21612559406827359  0.41387900716039644  1.0000
  N   N7        1.0  0.7619564718283487  0.28387432507820864  0.9138795986633497  1.0000
  N   N8        1.0  0.23804820530228452  0.7838774682813251  0.5861209347579148  1.0000
  N   N9        1.0  0.30554766118468996  0.7459638857260557  0.9666745809804665  1.0000
  N   N10       1.0  0.6944500398364112  0.245964413454466  0.5333251932611418  1.0000
  N   N11       1.0  0.6944544317536697  0.254034478690066  0.03332539643523091  1.0000
  N   N12       1.0  0.3055479329408328  0.7540362999249125  0.4666746776629864  1.0000
  N   N13       1.0  0.1286492252158453  0.8409748112797287  0.7750433238632651  1.0000
  N   N14       1.0  0.8713514810643659  0.3409743826761796  0.7249565118477861  1.0000
  N   N15       1.0  0.871348759612836  0.15902355313179573  0.2249577180501419  1.0000
  N   N16       1.0  0.12865198526369434  0.6590251562250556  0.2750435010649994  1.0000
  N   N17       1.0  0.0638592818577024  0.994386945424317  0.8734786319557415  1.0000
  N   N18       1.0  0.9361404744309993  0.49438672326704836  0.6265217383730645  1.0000
  N   N19       1.0  0.9361386969420666  0.005610244503706999  0.126521824463147  1.0000
  N   N20       1.0  0.06386162453467392  0.50561164114886  0.37347882453721587  1.0000
  N   N21       1.0  0.979045047882636  0.9242277935790779  0.7521398017058729  1.0000
  N   N22       1.0  0.020957258282344106  0.4242279566879787  0.7478600611561391  1.0000
  N   N23       1.0  0.0209556837222564  0.07577057083522477  0.24786131120183802  1.0000
  N   N24       1.0  0.9790462080457091  0.5757715822132565  0.2521399517566536  1.0000
  N   N25       1.0  0.9427964567899069  0.014951837636544996  0.8118019379778687  1.0000
  N   N26       1.0  0.0572047359099983  0.5149521852279618  0.6881979659143127  1.0000
  N   N27       1.0  0.0572042687876717  0.9850465267779781  0.1881985894352596  1.0000
  N   N28       1.0  0.9427959896691789  0.4850473536702749  0.31180256149875163  1.0000
