data_image0
_chemical_formula_structural       Cd2H24C30N10O10
_chemical_formula_sum              "Cd2 H24 C30 N10 O10"
_cell_length_a       10.123429493269356
_cell_length_b       9.789011703513639
_cell_length_c       9.462186856164726
_cell_angle_alpha    107.70120054699139
_cell_angle_beta     105.5307128808015
_cell_angle_gamma    97.00152314267197

_space_group_name_H-M_alt    "P 1"
_space_group_IT_number       1

loop_
  _space_group_symop_operation_xyz
  'x, y, z'

loop_
  _atom_site_type_symbol
  _atom_site_label
  _atom_site_symmetry_multiplicity
  _atom_site_fract_x
  _atom_site_fract_y
  _atom_site_fract_z
  _atom_site_occupancy
  Cd  Cd1       1.0  0.39949641368233557  0.7987698145546246  0.2134494956687334  1.0000
  Cd  Cd2       1.0  0.6005050268550675  0.2012269695992046  0.7865478592623277  1.0000
  H   H1        1.0  0.40798797604077197  0.7414355253768221  0.6300349188043485  1.0000
  H   H2        1.0  0.5920051776791765  0.2585546728563841  0.3699646695352001  1.0000
  H   H3        1.0  0.5592642344577072  0.8576168380769146  0.5421171226636403  1.0000
  H   H4        1.0  0.44073878254580034  0.14237672145745964  0.4578636576908722  1.0000
  H   H5        1.0  0.4136868862037772  0.8935610219758274  0.53831413663967  1.0000
  H   H6        1.0  0.5863231782469782  0.10644016726090649  0.4616761078284597  1.0000
  H   H7        1.0  0.9133155985802829  0.8246963898136811  0.2260718388252697  1.0000
  H   H8        1.0  0.08668683533279162  0.17530591779377855  0.7739233452280275  1.0000
  H   H9        1.0  0.0791466002803958  0.8106586759662803  0.999663529012537  1.0000
  H   H10       1.0  0.9208571364864964  0.18933479439920117  0.0003322053622412546  1.0000
  H   H11       1.0  0.8672478788203718  0.7484505105448772  0.7667059625278155  1.0000
  H   H12       1.0  0.1327463359326728  0.2515583958117204  0.2333011311264954  1.0000
  H   H13       1.0  0.8817933088179614  0.6718309312422405  0.4982914520732961  1.0000
  H   H14       1.0  0.11818236627659928  0.32818037896442576  0.5016994128828856  1.0000
  H   H15       1.0  0.11268023752974439  0.6623951950087913  0.4518992108396701  1.0000
  H   H16       1.0  0.887308265779538  0.3376126919560248  0.5480988044517687  1.0000
  H   H17       1.0  0.6429258546109152  0.8747059867193768  0.8705197448367272  1.0000
  H   H18       1.0  0.3570587207254691  0.1252799203220292  0.12946689542651774  1.0000
  H   H19       1.0  0.6320436817363629  0.8893811434943685  0.05914453324127318  1.0000
  H   H20       1.0  0.3679349710194515  0.11060466055285899  0.9408660890673134  1.0000
  H   H21       1.0  0.4535436529581247  0.5068793245531181  0.815658886426128  1.0000
  H   H22       1.0  0.5464513632621291  0.4931020866371442  0.18433187513872448  1.0000
  H   H23       1.0  0.8828929076442974  0.5072457568865403  0.9707645288986555  1.0000
  H   H24       1.0  0.1171096739637605  0.4927675863989975  0.029230113571202313  1.0000
  C   C1        1.0  0.7026806568212932  0.8695893187029  0.3401046999250994  1.0000
  C   C2        1.0  0.2973377224146532  0.1304272483573712  0.659889405881458  1.0000
  C   C3        1.0  0.9515197088514995  0.9013857286660283  0.3466500167015455  1.0000
  C   C4        1.0  0.048484804272384004  0.09861430181099  0.6533554805201547  1.0000
  C   C5        1.0  0.8557544805740777  0.9368887302396942  0.4267272166887609  1.0000
  C   C6        1.0  0.14425240750053092  0.0631277065080695  0.5733012035350812  1.0000
  C   C7        1.0  0.9048751793083055  0.03613900895213359  0.5823306748730631  1.0000
  C   C8        1.0  0.0951357926404839  0.9638741316056637  0.4176912564781147  1.0000
  C   C9        1.0  0.8068267793223497  0.0790872600018133  0.6734200350598557  1.0000
  C   C10       1.0  0.19317146960127465  0.9208972581437107  0.3266031999120996  1.0000
  C   C11       1.0  0.21692825791159726  0.7734310430486246  0.8565381084783541  1.0000
  C   C12       1.0  0.7830633303642784  0.22656475657792902  0.14344815513523906  1.0000
  C   C13       1.0  0.08721525238412649  0.7789925061983921  0.8821432686350407  1.0000
  C   C14       1.0  0.9127685566509596  0.2210076986011771  0.11785216381374403  1.0000
  C   C15       1.0  0.9691098258449031  0.742365374972877  0.7504704266809981  1.0000
  C   C16       1.0  0.030903917418520204  0.2576290608122562  0.24953960344416257  1.0000
  C   C17       1.0  0.9776020105797796  0.6992755776500129  0.5973686118260417  1.0000
  C   C18       1.0  0.02240849348203969  0.30073096458099957  0.40264996554404314  1.0000
  C   C19       1.0  0.10533095951279142  0.6930721784423355  0.5697780869643836  1.0000
  C   C20       1.0  0.8946709371896092  0.30693560317433816  0.43022513524906714  1.0000
  C   C21       1.0  0.22401909757329713  0.7315426907273873  0.7019369709410624  1.0000
  C   C22       1.0  0.7759757344279804  0.2684585926283205  0.29805186677712914  1.0000
  C   C23       1.0  0.43829014852792614  0.7908747385519489  0.8741685693488606  1.0000
  C   C24       1.0  0.5617086082805471  0.20911322411679117  0.12583052738201425  1.0000
  C   C25       1.0  0.5944994359995519  0.8188566252299128  0.9351671176358067  1.0000
  C   C26       1.0  0.4055141861785358  0.181153277215401  0.06483954348569652  1.0000
  C   C27       1.0  0.5670952240929594  0.5422272969034906  0.8647176275062806  1.0000
  C   C28       1.0  0.43291516608169894  0.45777272267660857  0.13528394620931286  1.0000
  C   C29       1.0  0.786007290699267  0.5450495206693374  0.9446861656696797  1.0000
  C   C30       1.0  0.21399638192585263  0.4549626776817701  0.05531470152868677  1.0000
  N   N1        1.0  0.35320764127101967  0.8083756054678302  0.9616625148609615  1.0000
  N   N2        1.0  0.6467999851371573  0.19161774161886308  0.03835101843041146  1.0000
  N   N3        1.0  0.365220052866789  0.7421121489914525  0.7184232635477271  1.0000
  N   N4        1.0  0.6347564923605231  0.25787052823827133  0.2815572578449377  1.0000
  N   N5        1.0  0.6424349041750403  0.6813301519866498  0.9213308196842861  1.0000
  N   N6        1.0  0.35757656428660306  0.3186874442754474  0.0786831797277117  1.0000
  N   N7        1.0  0.7822485132457543  0.6855393344011913  0.9730374868172333  1.0000
  N   N8        1.0  0.2177435025692347  0.3144696053106841  0.026965929999029498  1.0000
  N   N9        1.0  0.6560710210004642  0.4531221018313403  0.8779768496185625  1.0000
  N   N10       1.0  0.3439267303604012  0.5468681244748126  0.12201323829077637  1.0000
  O   O1        1.0  0.6616448112626472  0.7328663566724315  0.27365211851564203  1.0000
  O   O2        1.0  0.33837873149254694  0.267146780444527  0.7263579294486675  1.0000
  O   O3        1.0  0.6179761981060424  0.9588114692937282  0.33210233245684145  1.0000
  O   O4        1.0  0.3820229976135466  0.0411886222792432  0.6678977111747955  1.0000
  O   O5        1.0  0.7089190093087153  0.981158267771377  0.67029476481607  1.0000
  O   O6        1.0  0.29107255134940146  0.0188253519972861  0.32969909705120415  1.0000
  O   O7        1.0  0.8239392952366982  0.21544937411191253  0.7500762080101779  1.0000
  O   O8        1.0  0.1760618371806615  0.7845440603021813  0.24992843105564327  1.0000
  O   O9        1.0  0.456819078073778  0.8115782050032293  0.4921719367577424  1.0000
  O   O10       1.0  0.543189592421804  0.18842743507783405  0.5078131077989881  1.0000
