data_image0
_chemical_formula_structural       K4H32C28N4O12
_chemical_formula_sum              "K4 H32 C28 N4 O12"
_cell_length_a       7.418807769690309
_cell_length_b       7.532957347002991
_cell_length_c       14.684317735199674
_cell_angle_alpha    89.99998869993767
_cell_angle_beta     97.20041167067235
_cell_angle_gamma    89.99990130977956

_space_group_name_H-M_alt    "P 1"
_space_group_IT_number       1

loop_
  _space_group_symop_operation_xyz
  'x, y, z'

loop_
  _atom_site_type_symbol
  _atom_site_label
  _atom_site_symmetry_multiplicity
  _atom_site_fract_x
  _atom_site_fract_y
  _atom_site_fract_z
  _atom_site_occupancy
  K   K1        1.0  0.5684456505003793  0.2449788991767576  0.5189274743730081  1.0000
  K   K2        1.0  0.0684323504261997  0.25504309668792763  0.5189280775938344  1.0000
  K   K3        1.0  0.4315522948302828  0.7550443023372537  0.4810709545275175  1.0000
  K   K4        1.0  0.9315628882012987  0.7449628473294965  0.481072226422107  1.0000
  H   H1        1.0  0.5671803483057545  0.751015170153181  0.7550752383543582  1.0000
  H   H2        1.0  0.0671955799868513  0.7489938087016695  0.7550755688941636  1.0000
  H   H3        1.0  0.4328080936332697  0.2489841363707725  0.24492396308424702  1.0000
  H   H4        1.0  0.9328118758074737  0.2510121353057357  0.2449234499107433  1.0000
  H   H5        1.0  0.9389932744390065  0.2015307581079426  0.9380911175242302  1.0000
  H   H6        1.0  0.43899077167338146  0.298471857980573  0.9380937482390621  1.0000
  H   H7        1.0  0.0610073917075624  0.7984619109062903  0.0619081611421564  1.0000
  H   H8        1.0  0.5610071912656949  0.7015274485348256  0.06190808675929561  1.0000
  H   H9        1.0  0.7868724373536297  0.5601019407375318  0.6386029508802339  1.0000
  H   H10       1.0  0.28686832287399966  0.9399053882720594  0.6386061488535049  1.0000
  H   H11       1.0  0.21313230820814508  0.4399000207722566  0.3613972618196329  1.0000
  H   H12       1.0  0.713135064053553  0.06009524573900651  0.3613939795747001  1.0000
  H   H13       1.0  0.5209889846806633  0.7982476216981667  0.9178465765808711  1.0000
  H   H14       1.0  0.0209988639920198  0.701765351046383  0.9178458987289134  1.0000
  H   H15       1.0  0.4790021815603112  0.2017556673228285  0.08215415583902802  1.0000
  H   H16       1.0  0.9790045158960154  0.29824059296449684  0.08215286726060361  1.0000
  H   H17       1.0  0.7146593561078732  0.0261285763683503  0.011083603957324314  1.0000
  H   H18       1.0  0.2146633212503133  0.47388010542958636  0.0110852567724393  1.0000
  H   H19       1.0  0.28533859276301854  0.9738694026477361  0.988915506164915  1.0000
  H   H20       1.0  0.7853359932846827  0.5261245110844754  0.9889153000590271  1.0000
  H   H21       1.0  0.0371537101773782  0.13856824497856482  0.7065990486423601  1.0000
  H   H22       1.0  0.5371559509793755  0.3614258495221634  0.706601834114416  1.0000
  H   H23       1.0  0.9628428800604922  0.8614270790389117  0.2933999772083666  1.0000
  H   H24       1.0  0.4628488086566022  0.6385708019875265  0.2934011034622586  1.0000
  H   H25       1.0  0.1011695131546801  0.2418304032904146  0.8107354359458726  1.0000
  H   H26       1.0  0.6011746444988688  0.2581701784673029  0.8107356867610849  1.0000
  H   H27       1.0  0.8988284427545139  0.7581635932257383  0.18926503661491273  1.0000
  H   H28       1.0  0.3988260321949255  0.7418278005460337  0.189265635561938  1.0000
  H   H29       1.0  0.8798142921368993  0.3852342756477824  0.6862242022885499  1.0000
  H   H30       1.0  0.379814854006014  0.11476323278126442  0.6862297649862941  1.0000
  H   H31       1.0  0.1201877396737672  0.6147650308644188  0.3137765230870643  1.0000
  H   H32       1.0  0.6201898810061266  0.8852360737291817  0.31376840405665973  1.0000
  C   C1        1.0  0.7719989576995802  0.9487885857727038  0.7531304593833001  1.0000
  C   C2        1.0  0.27199689649628306  0.5512120840709258  0.753131779563873  1.0000
  C   C3        1.0  0.22799899117371328  0.05120673824361429  0.2468686507392164  1.0000
  C   C4        1.0  0.7280037766777523  0.4487885499423214  0.24686886153980936  1.0000
  C   C5        1.0  0.7833877549060161  0.9138368521270338  0.6532217134733784  1.0000
  C   C6        1.0  0.28339241995382747  0.5861598567814782  0.6532227664573043  1.0000
  C   C7        1.0  0.2166115490853642  0.08615847188826821  0.34677679970187103  1.0000
  C   C8        1.0  0.7166096118568391  0.41383944973072306  0.34677795891830954  1.0000
  C   C9        1.0  0.6470573819755003  0.8498368408161808  0.796374767280611  1.0000
  C   C10       1.0  0.1470632789865007  0.650166676729164  0.7963738474437252  1.0000
  C   C11       1.0  0.3529364980225935  0.15016246570299066  0.2036254524642374  1.0000
  C   C12       1.0  0.8529373836366928  0.3498326297846289  0.203624750002902  1.0000
  C   C13       1.0  0.8786782765817234  0.0793822617515474  0.8049598078199695  1.0000
  C   C14       1.0  0.3786809867435466  0.4206231651667238  0.8049627499806178  1.0000
  C   C15       1.0  0.12131967581012758  0.9206117347647479  0.19503998352175245  1.0000
  C   C16       1.0  0.621321048583269  0.579377468845216  0.1950386566139173  1.0000
  C   C17       1.0  0.8552416493657944  0.10295202290294012  0.8981754472515249  1.0000
  C   C18       1.0  0.3552389607133719  0.39705340546252893  0.8981766948345609  1.0000
  C   C19       1.0  0.1447603754150038  0.8970419736100155  0.1018239156865235  1.0000
  C   C20       1.0  0.6447603573413758  0.602948556051615  0.10182454321624593  1.0000
  C   C21       1.0  0.7289016491548567  0.0035847721758273  0.9388902651786495  1.0000
  C   C22       1.0  0.22890284909009748  0.49642483478028515  0.9388903822796169  1.0000
  C   C23       1.0  0.27110038266063435  0.9964092243368443  0.06111046019751849  1.0000
  C   C24       1.0  0.7710964654448986  0.5035797817337766  0.06111017455184962  1.0000
  C   C25       1.0  0.6221549951857739  0.8761916983425093  0.887698923850266  1.0000
  C   C26       1.0  0.1221582297733264  0.6238144788859259  0.8876992034399793  1.0000
  C   C27       1.0  0.3778429572048765  0.12380362567366629  0.11230086749131371  1.0000
  C   C28       1.0  0.8778410742144444  0.3761848276290251  0.1122993097348512  1.0000
  N   N1        1.0  0.9997415915025627  0.18719905325206557  0.7663359278064307  1.0000
  N   N2        1.0  0.49974314215886295  0.3128035306040431  0.7663394895472494  1.0000
  N   N3        1.0  0.00025772304327630036  0.8127936157630417  0.23366462902629345  1.0000
  N   N4        1.0  0.5002575380510734  0.687195775909032  0.23366251399470173  1.0000
  O   O1        1.0  0.8619456200181546  0.026888988321779602  0.6069471956964777  1.0000
  O   O2        1.0  0.36196045211153915  0.47311389250792496  0.6069488416271157  1.0000
  O   O3        1.0  0.1380469048618593  0.973110318198408  0.3930536209956372  1.0000
  O   O4        1.0  0.6380456556018073  0.5268893965004438  0.3930521365634618  1.0000
  O   O5        1.0  0.7096007162626563  0.7716842513102975  0.6184568585867255  1.0000
  O   O6        1.0  0.20960783012074558  0.7283165784966601  0.6184560066163486  1.0000
  O   O7        1.0  0.2903972361291949  0.22830974520599057  0.38154293275499646  1.0000
  O   O8        1.0  0.79040099134491  0.2716880380094153  0.3815444588986168  1.0000
  O   O9        1.0  0.8260745805843966  0.4364970683873963  0.6273491460352504  1.0000
  O   O10       1.0  0.32606572851823756  0.0635111745310439  0.6273548108093081  1.0000
  O   O11       1.0  0.1739342408824598  0.5635062206187912  0.37265131947985003  1.0000
  O   O12       1.0  0.6739390135285958  0.9364881319791181  0.372644720671765  1.0000
