data_image0
_chemical_formula_structural       Zn2H12C30S4Br6N2O20
_chemical_formula_sum              "Zn2 H12 C30 S4 Br6 N2 O20"
_cell_length_a       9.442420668604381
_cell_length_b       10.892721118489492
_cell_length_c       16.041740407484014
_cell_angle_alpha    91.61804982433316
_cell_angle_beta     89.12639896505505
_cell_angle_gamma    93.08740119143366

_space_group_name_H-M_alt    "P 1"
_space_group_IT_number       1

loop_
  _space_group_symop_operation_xyz
  'x, y, z'

loop_
  _atom_site_type_symbol
  _atom_site_label
  _atom_site_symmetry_multiplicity
  _atom_site_fract_x
  _atom_site_fract_y
  _atom_site_fract_z
  _atom_site_occupancy
  Zn  Zn1       1.0  0.6471720904222168  0.5023189784388293  0.5048407695343686  1.0000
  Zn  Zn2       1.0  0.352576921459324  0.4975207567182948  0.4941532305960409  1.0000
  H   H1        1.0  0.6151387696168911  0.085994879978152  0.6252281529370549  1.0000
  H   H2        1.0  0.3834819327903745  0.9136084148511614  0.3731037554780984  1.0000
  H   H3        1.0  0.9141799292177238  0.6117037221738714  0.6205230844770357  1.0000
  H   H4        1.0  0.08581815639671218  0.3876850963760035  0.3771738798161125  1.0000
  H   H5        1.0  0.11088419936581319  0.7054103380719782  0.4942131544068574  1.0000
  H   H6        1.0  0.8889191253385745  0.2939101295187143  0.5033716503159269  1.0000
  H   H7        1.0  0.9003196839480052  0.5920449213946314  0.3787981079362838  1.0000
  H   H8        1.0  0.0994800180903397  0.407174754650093  0.6188474677975863  1.0000
  H   H9        1.0  0.0304791218790754  0.41811083328352083  0.05357816842506221  1.0000
  H   H10       1.0  0.9642532374993991  0.5752717743768017  0.9451268587592381  1.0000
  H   H11       1.0  0.7638770672773844  0.9834991366921887  0.29249072165057305  1.0000
  H   H12       1.0  0.23377411675387796  0.0157953865161389  0.7050026268135101  1.0000
  C   C1        1.0  0.5171791803347858  0.7384556806864424  0.4897975199095583  1.0000
  C   C2        1.0  0.48169124146144054  0.261092383392743  0.5088427990527296  1.0000
  C   C3        1.0  0.5643668028004925  0.04700429452694979  0.5690404545246466  1.0000
  C   C4        1.0  0.4343351455954974  0.9525816707020595  0.42926916797816267  1.0000
  C   C5        1.0  0.4848467733906858  0.12377854521567852  0.5048673606875342  1.0000
  C   C6        1.0  0.5138036884678883  0.8757492172877759  0.4933377769370965  1.0000
  C   C7        1.0  0.5599480676730836  0.0522620259198163  0.4310448998985522  1.0000
  C   C8        1.0  0.43879421276106695  0.947344956614316  0.5673127815045902  1.0000
  C   C9        1.0  0.054501957670510096  0.6153229817053686  0.4958759215669205  1.0000
  C   C10       1.0  0.9453152341559417  0.3840040045233195  0.5017905674112555  1.0000
  C   C11       1.0  0.9591210229300701  0.5625762362924079  0.5669646981185325  1.0000
  C   C12       1.0  0.04077886484694201  0.43679043715089  0.4307261811202921  1.0000
  C   C13       1.0  0.9519005023215996  0.5521784725773671  0.4313452797318575  1.0000
  C   C14       1.0  0.04787915802431539  0.44714747897660345  0.5663493930737503  1.0000
  C   C15       1.0  0.512264231378076  0.4815751173745113  0.3373103387255298  1.0000
  C   C16       1.0  0.4869384847427369  0.5170006824112292  0.6618213354493536  1.0000
  C   C17       1.0  0.5249109980028946  0.6141343496759575  0.9739676313291812  1.0000
  C   C18       1.0  0.4698655221527516  0.37991688964924464  0.025095885690809908  1.0000
  C   C19       1.0  0.40647893989625317  0.5728845351683206  0.03865505147359021  1.0000
  C   C20       1.0  0.5882166676309168  0.42104536661150843  0.960342762578428  1.0000
  C   C21       1.0  0.5220163874316981  0.48306868461529723  0.2473930436445073  1.0000
  C   C22       1.0  0.4754195012646036  0.5136154251219694  0.7516578262596881  1.0000
  C   C23       1.0  0.6345451857495661  0.5341728575572731  0.018126014762280804  1.0000
  C   C24       1.0  0.3602395356596162  0.4597990968669522  0.9808263613408956  1.0000
  C   C25       1.0  0.5158135068095505  0.49357892328949066  0.08470992516689793  1.0000
  C   C26       1.0  0.479022745561501  0.5004839301210923  0.9142836559125912  1.0000
  C   C27       1.0  0.5267211384623423  0.48861011391756654  0.171891289391688  1.0000
  C   C28       1.0  0.46884301851344656  0.506433827545145  0.8270747114797035  1.0000
  C   C29       1.0  0.6385547588265154  0.9761305260681821  0.4961803420233011  1.0000
  C   C30       1.0  0.3601221269178581  0.0234013185806319  0.5021107745204816  1.0000
  S   S1        1.0  0.18527599409561898  0.40968248842745686  0.9523516136739333  1.0000
  S   S2        1.0  0.8096457715071139  0.5840132456580777  0.0464461143487469  1.0000
  S   S3        1.0  0.632696830010822  0.12342978161961331  0.3411585222673352  1.0000
  S   S4        1.0  0.36593925596996973  0.8759512821723305  0.6570733199088111  1.0000
  Br  Br1       1.0  0.28243436073069006  0.6791230813884682  0.09466281277750002  1.0000
  Br  Br2       1.0  0.7119189954863002  0.3144252509336241  0.9044473254911909  1.0000
  Br  Br3       1.0  0.5570075757541701  0.7758197361215765  0.9364120711703807  1.0000
  Br  Br4       1.0  0.43761391026494306  0.21829046768121427  0.06275482782213973  1.0000
  Br  Br5       1.0  0.8355542338078193  0.9450354754884889  0.49142810239870033  1.0000
  Br  Br6       1.0  0.1630529829548664  0.05431889240087169  0.5064675470405504  1.0000
  N   N1        1.0  0.85792674594218  0.4995649741916921  0.5025398605169614  1.0000
  N   N2        1.0  0.14187790388084662  0.4997964008836249  0.4952024420769092  1.0000
  O   O1        1.0  0.6352599914821296  0.691473230552944  0.4983735870184064  1.0000
  O   O2        1.0  0.3628743887680983  0.3085429966682299  0.5058127167993833  1.0000
  O   O3        1.0  0.3962940705575093  0.6834825781751094  0.4800428112320675  1.0000
  O   O4        1.0  0.6036876297551643  0.31564454223325816  0.5135848965307518  1.0000
  O   O5        1.0  0.6283745816356756  0.4917192921412336  0.3765739399638265  1.0000
  O   O6        1.0  0.37142413985178985  0.5149350576548815  0.6220293475178666  1.0000
  O   O7        1.0  0.3875465673762477  0.47246770099069113  0.36825846719561645  1.0000
  O   O8        1.0  0.6121532001010125  0.5195021505536558  0.6314964536560694  1.0000
  O   O9        1.0  0.11471484963828257  0.5155942612774496  0.9225056933418261  1.0000
  O   O10       1.0  0.1962655713661761  0.30343596958618957  0.8985492397125088  1.0000
  O   O11       1.0  0.1188309203290032  0.37218086818892004  0.03885730202140541  1.0000
  O   O12       1.0  0.799060527854806  0.6903867279887167  0.10016280142610871  1.0000
  O   O13       1.0  0.880036739883678  0.4780010937494837  0.0762985584542264  1.0000
  O   O14       1.0  0.8758595331631152  0.6211775661744738  0.9598264505182643  1.0000
  O   O15       1.0  0.5196384258661338  0.18081029932371706  0.3013671682821838  1.0000
  O   O16       1.0  0.7654173521187602  0.18827370398656743  0.360513628937973  1.0000
  O   O17       1.0  0.665052760318531  0.0031906659030270026  0.2840699439023453  1.0000
  O   O18       1.0  0.23389591255575232  0.8104615829174691  0.637063015098889  1.0000
  O   O19       1.0  0.4790281005368229  0.8191681149190939  0.697253704920314  1.0000
  O   O20       1.0  0.3323001486512922  0.9958444016775659  0.7141670509541456  1.0000
