data_image0
_chemical_formula_structural       Nd4H36C40N4O28
_chemical_formula_sum              "Nd4 H36 C40 N4 O28"
_cell_length_a       8.809933970031302
_cell_length_b       9.20933526607166
_cell_length_c       15.667484445004751
_cell_angle_alpha    89.99996565534268
_cell_angle_beta     90.00008670097684
_cell_angle_gamma    98.99156524223675

_space_group_name_H-M_alt    "P 1"
_space_group_IT_number       1

loop_
  _space_group_symop_operation_xyz
  'x, y, z'

loop_
  _atom_site_type_symbol
  _atom_site_label
  _atom_site_symmetry_multiplicity
  _atom_site_fract_x
  _atom_site_fract_y
  _atom_site_fract_z
  _atom_site_occupancy
  Nd  Nd1       1.0  0.9687082370213529  0.3951923785039852  0.11466648473358992  1.0000
  Nd  Nd2       1.0  0.5312913014924732  0.6048065662782064  0.6146667582074345  1.0000
  Nd  Nd3       1.0  0.031291970202659114  0.6048066413024387  0.88533348092804  1.0000
  Nd  Nd4       1.0  0.46870776949688775  0.39519244633107314  0.3853325691891599  1.0000
  H   H1        1.0  0.4913195816182352  0.6990821308455748  0.09902810832401343  1.0000
  H   H2        1.0  0.008680553304301992  0.3009171454995964  0.5990278312491812  1.0000
  H   H3        1.0  0.5086798337180483  0.300919080445169  0.9009718573368917  1.0000
  H   H4        1.0  0.991318517685059  0.6990818671096831  0.400971496147406  1.0000
  H   H5        1.0  0.3978890144659246  0.7737061968065361  0.011553259813972304  1.0000
  H   H6        1.0  0.1021112384016476  0.22629533367837945  0.5115530884813353  1.0000
  H   H7        1.0  0.6021105730434044  0.22629611382505024  0.9884467058468192  1.0000
  H   H8        1.0  0.8978880047615903  0.7737047782715293  0.48844687717969043  1.0000
  H   H9        1.0  0.41161064698727057  0.5534926088940325  0.9249143516219578  1.0000
  H   H10       1.0  0.08838953950225201  0.44650865232700454  0.4249143748234659  1.0000
  H   H11       1.0  0.5883889405220585  0.4465097017375471  0.07508561403883361  1.0000
  H   H12       1.0  0.9116108398948057  0.5534914668202545  0.5750855908380432  1.0000
  H   H13       1.0  0.5963328080668403  0.6357146650725481  0.9581309797366446  1.0000
  H   H14       1.0  0.9036656912747743  0.3642862462440277  0.45813066181033696  1.0000
  H   H15       1.0  0.4036667794424885  0.36428764555903104  0.0418689859241397  1.0000
  H   H16       1.0  0.09633372406150903  0.6357149650467235  0.5418693038505681  1.0000
  H   H17       1.0  0.7050863740990819  0.7315155581188717  0.21587783883114756  1.0000
  H   H18       1.0  0.7949124623057741  0.26848441464040446  0.7158765401336995  1.0000
  H   H19       1.0  0.29491400529963124  0.26848456102798207  0.7841234033594732  1.0000
  H   H20       1.0  0.20508678085580806  0.7315156973099092  0.28412214899821464  1.0000
  H   H21       1.0  0.8953682919564585  0.0246614514170531  0.015028953727018303  1.0000
  H   H22       1.0  0.604630988675133  0.9753375565346899  0.5150278826560709  1.0000
  H   H23       1.0  0.10463305150220482  0.9753375755865146  0.984971650199647  1.0000
  H   H24       1.0  0.39536921854805485  0.02466146327194  0.4849714447409995  1.0000
  H   H25       1.0  0.6137199825792191  0.9503649833086526  0.2861947293079795  1.0000
  H   H26       1.0  0.8862799998798252  0.04963385272693439  0.7861935853563511  1.0000
  H   H27       1.0  0.38628136088026815  0.049634043694716495  0.7138065128832451  1.0000
  H   H28       1.0  0.11372020734335556  0.9503651670796882  0.21380574204071937  1.0000
  H   H29       1.0  0.9160324718335529  0.5153224237463759  0.294021972695596  1.0000
  H   H30       1.0  0.5839667389972547  0.4846785988108734  0.7940216949930062  1.0000
  H   H31       1.0  0.08396694350273043  0.48467878754436816  0.7059779929653089  1.0000
  H   H32       1.0  0.41603398474590864  0.5153237190180633  0.2059782706682612  1.0000
  H   H33       1.0  0.08860521754422729  0.4771534420646189  0.2841336329760225  1.0000
  H   H34       1.0  0.4113946045793496  0.5228479084096803  0.7841342586405207  1.0000
  H   H35       1.0  0.9113953340258829  0.522847776423475  0.7158663326853658  1.0000
  H   H36       1.0  0.5886048107569337  0.47715330288106356  0.21586570702038443  1.0000
  C   C1        1.0  0.2634752282858699  0.5916192986719294  0.07386317368094103  1.0000
  C   C2        1.0  0.2365261499113842  0.40838110016587575  0.5738624143439212  1.0000
  C   C3        1.0  0.7365251511103638  0.40838082047553564  0.9261361537160087  1.0000
  C   C4        1.0  0.7634740573109724  0.5916179196409528  0.4261362747885898  1.0000
  C   C5        1.0  0.4155623383593437  0.6718368166597698  0.04386351360142271  1.0000
  C   C6        1.0  0.08443896219472438  0.3281636011971256  0.5438639296478485  1.0000
  C   C7        1.0  0.5844383853838196  0.3281655011691667  0.9561364520598448  1.0000
  C   C8        1.0  0.9155589725608096  0.6718354042148034  0.4561353977482626  1.0000
  C   C9        1.0  0.487201202388654  0.573375295733193  0.9807708263477439  1.0000
  C   C10       1.0  0.01280009272935698  0.4266248379317687  0.480771430508682  1.0000
  C   C11       1.0  0.5127993491814493  0.42662592275490135  0.019229139313637202  1.0000
  C   C12       1.0  0.9872002866677007  0.5733752812154904  0.5192285351528272  1.0000
  C   C13       1.0  0.8538986179748915  0.7325373166324451  0.06287503742117202  1.0000
  C   C14       1.0  0.6460998224308696  0.2674627531287896  0.5628742507562379  1.0000
  C   C15       1.0  0.14610045301611757  0.2674616959764221  0.937125566504527  1.0000
  C   C16       1.0  0.3539005569653638  0.7325373660186756  0.43712507664071154  1.0000
  C   C17       1.0  0.8036576857304496  0.861083344444232  0.10870813291992933  1.0000
  C   C18       1.0  0.696342009533012  0.13891670345683588  0.6087067959702568  1.0000
  C   C19       1.0  0.19634138526139108  0.13891566816443657  0.891293109270322  1.0000
  C   C20       1.0  0.3036583698632214  0.861083415690622  0.3912925314266928  1.0000
  C   C21       1.0  0.7277985270558317  0.8407673000739988  0.18740293263804383  1.0000
  C   C22       1.0  0.7722002356506864  0.15923269073805096  0.6874016530697633  1.0000
  C   C23       1.0  0.27220054393517756  0.15923171253487567  0.8125976712876553  1.0000
  C   C24       1.0  0.22779900751089596  0.8407674212122626  0.31259703606215083  1.0000
  C   C25       1.0  0.6638846562143785  0.23352427039234405  0.22642331592886936  1.0000
  C   C26       1.0  0.8361161356063319  0.7664735113940819  0.7264225152840427  1.0000
  C   C27       1.0  0.33611651507040813  0.7664736572705946  0.7735766497333574  1.0000
  C   C28       1.0  0.16388389944380316  0.2335244090717125  0.2735768121131558  1.0000
  C   C29       1.0  0.8343902486934809  0.0036489356695029  0.07527153158864762  1.0000
  C   C30       1.0  0.6656091878571855  0.9963500340890759  0.5752705049953948  1.0000
  C   C31       1.0  0.1656088222975356  0.9963500769393714  0.9247290723370514  1.0000
  C   C32       1.0  0.3343911915373993  0.0036500850587870997  0.4247275458724503  1.0000
  C   C33       1.0  0.7139833007850384  0.09852511866404258  0.18840449446197036  1.0000
  C   C34       1.0  0.7860166007480344  0.9014748787102533  0.6884036036870216  1.0000
  C   C35       1.0  0.28601707861285053  0.9014750004830104  0.8115961094640982  1.0000
  C   C36       1.0  0.21398264241354784  0.09852523324006056  0.31159508544489267  1.0000
  C   C37       1.0  0.6782765554580192  0.9606768514398706  0.22664084230714826  1.0000
  C   C38       1.0  0.8217234450366249  0.039323121693293196  0.7266390088029981  1.0000
  C   C39       1.0  0.32172478800064397  0.03932217556369719  0.7733597616195242  1.0000
  C   C40       1.0  0.17827693435795305  0.9606769974545697  0.27335904206483974  1.0000
  N   N1        1.0  0.7952587845077373  0.12081717675538071  0.11521281370013983  1.0000
  N   N2        1.0  0.7047409275915512  0.8791828670216688  0.6152118616312026  1.0000
  N   N3        1.0  0.2047427311239716  0.8791829495890225  0.8847877902264047  1.0000
  N   N4        1.0  0.29525945180468227  0.1208172521257893  0.38478746576574724  1.0000
  O   O1        1.0  0.7192960846610745  0.3560918590593615  0.19156066962629845  1.0000
  O   O2        1.0  0.7807053056208063  0.643910342192946  0.6915598649799295  1.0000
  O   O3        1.0  0.28070446690903583  0.6439093594287327  0.8084392960350899  1.0000
  O   O4        1.0  0.2192952459493043  0.35609087629514846  0.3084401006814589  1.0000
  O   O5        1.0  0.0069953230204760145  0.5226751519149389  0.2555138075710062  1.0000
  O   O6        1.0  0.4930052169166644  0.4773240252198715  0.7555138804163306  1.0000
  O   O7        1.0  0.9930048842035291  0.47732386789147785  0.7444861580906237  1.0000
  O   O8        1.0  0.5069951624803934  0.5226760939273873  0.24448608524517826  1.0000
  O   O9        1.0  0.8481363295244647  0.6158666280327408  0.10642384614387623  1.0000
  O   O10       1.0  0.6518609151884646  0.38413230758044375  0.6064242998486266  1.0000
  O   O11       1.0  0.1518616052310762  0.3841323773791884  0.893575481252235  1.0000
  O   O12       1.0  0.348137983628675  0.6158656056877944  0.3935756658126408  1.0000
  O   O13       1.0  0.25375007712681  0.5128021503685999  0.1408905357426065  1.0000
  O   O14       1.0  0.24625068266198724  0.4872003974589062  0.640889756939089  1.0000
  O   O15       1.0  0.746249510382519  0.4872001602629863  0.8591094299181778  1.0000
  O   O16       1.0  0.7537510051402948  0.5128008282269363  0.35910893219366374  1.0000
  O   O17       1.0  0.14276058720773216  0.5955441883725212  0.028295500212394104  1.0000
  O   O18       1.0  0.357238400585203  0.404456224959766  0.5282954832096466  1.0000
  O   O19       1.0  0.8572386559563298  0.40445592357718846  0.9717051037131841  1.0000
  O   O20       1.0  0.6427603260597081  0.5955405889674381  0.471705120716294  1.0000
  O   O21       1.0  0.8967643613224682  0.7506243600940292  0.9854226414434708  1.0000
  O   O22       1.0  0.603234036481723  0.24937543457915726  0.4854221083877094  1.0000
  O   O23       1.0  0.10323488184076268  0.24937575185587935  0.014577324217555103  1.0000
  O   O24       1.0  0.3967650345076379  0.7506235780301153  0.5145772190088778  1.0000
  O   O25       1.0  0.5699254487808503  0.21812466316747958  0.2878102871231861  1.0000
  O   O26       1.0  0.9300750543792444  0.7818774698662307  0.7878095609868654  1.0000
  O   O27       1.0  0.43007623902472847  0.7818765625175528  0.7121909550677971  1.0000
  O   O28       1.0  0.0699256693639114  0.2181248479626987  0.21219040467440212  1.0000
