data_image0
_chemical_formula_structural       Zn4H40C36N20O20
_chemical_formula_sum              "Zn4 H40 C36 N20 O20"
_cell_length_a       10.659818913605195
_cell_length_b       11.790475654191068
_cell_length_c       11.913938308869607
_cell_angle_alpha    111.41047847619417
_cell_angle_beta     90.03150084745953
_cell_angle_gamma    116.87896827084782

_space_group_name_H-M_alt    "P 1"
_space_group_IT_number       1

loop_
  _space_group_symop_operation_xyz
  'x, y, z'

loop_
  _atom_site_type_symbol
  _atom_site_label
  _atom_site_symmetry_multiplicity
  _atom_site_fract_x
  _atom_site_fract_y
  _atom_site_fract_z
  _atom_site_occupancy
  Zn  Zn1       1.0  0.7526924899834028  0.7262208476913798  0.18976892581130037  1.0000
  Zn  Zn2       1.0  0.02634644309782889  0.2737692688970554  0.31034641046392863  1.0000
  Zn  Zn3       1.0  0.24730849166540034  0.2737819244814119  0.8102316379079684  1.0000
  Zn  Zn4       1.0  0.9736509869353536  0.7262282782238572  0.6896514808551331  1.0000
  H   H1        1.0  0.20644305601827279  0.6911876558902748  0.08222232674751237  1.0000
  H   H2        1.0  0.5154951669732384  0.3089519638537013  0.4178667355229422  1.0000
  H   H3        1.0  0.7935568903623746  0.30881304580377394  0.9177783501576686  1.0000
  H   H4        1.0  0.48450651538530554  0.6910465843777162  0.5821289895863161  1.0000
  H   H5        1.0  0.4069165971264396  0.5896194276066851  0.10477083059360132  1.0000
  H   H6        1.0  0.8171747095818914  0.41049397432740886  0.3954461106211512  1.0000
  H   H7        1.0  0.5930823966353101  0.41038124610042814  0.8952281574081198  1.0000
  H   H8        1.0  0.18282376293700514  0.5895056571843044  0.6045525118196765  1.0000
  H   H9        1.0  0.7430633831108863  0.8405816030398724  0.9740864556041943  1.0000
  H   H10       1.0  0.9023884664566922  0.1592675327280375  0.5258287572389833  1.0000
  H   H11       1.0  0.25693750145354954  0.15941909881700417  0.02591422158908332  1.0000
  H   H12       1.0  0.09761492723765731  0.8407363097899107  0.4741738612327282  1.0000
  H   H13       1.0  0.41409595648685366  0.7527286053732992  0.7903528673258791  1.0000
  H   H14       1.0  0.661541684492377  0.24717934913733333  0.7097154829178436  1.0000
  H   H15       1.0  0.5859059705632887  0.24727418087437067  0.20964854098916424  1.0000
  H   H16       1.0  0.3384568096791797  0.7528203241105588  0.2902856724460463  1.0000
  H   H17       1.0  0.597524744134553  0.8873826010142453  0.8479209139685937  1.0000
  H   H18       1.0  0.7102606596866109  0.112550328882925  0.6521067460848898  1.0000
  H   H19       1.0  0.4024771612629293  0.11262014349724583  0.1520779614233945  1.0000
  H   H20       1.0  0.2897391823921182  0.887448288583158  0.3478931999866147  1.0000
  H   H21       1.0  0.3417132976997193  0.8855062716328915  0.9685720460122766  1.0000
  H   H22       1.0  0.45622795233672525  0.11448740649731086  0.5314898854767165  1.0000
  H   H23       1.0  0.6582842510704837  0.11449338754012219  0.031428264755831506  1.0000
  H   H24       1.0  0.5437738559763972  0.8855132676982648  0.4685091033892804  1.0000
  H   H25       1.0  0.4226833105509229  0.9784913933260667  0.878426354667269  1.0000
  H   H26       1.0  0.44425397975172837  0.021415146659094803  0.6215523387613758  1.0000
  H   H27       1.0  0.5773147450270245  0.0215092802182184  0.1215726330463482  1.0000
  H   H28       1.0  0.5557483281515802  0.9785865279956952  0.378444482742445  1.0000
  H   H29       1.0  0.8425347975304973  0.5278630234652724  0.24346824562182687  1.0000
  H   H30       1.0  0.3145891509530188  0.4721980131468514  0.2565190982808049  1.0000
  H   H31       1.0  0.15746516328525922  0.4721377060528979  0.7565341198987242  1.0000
  H   H32       1.0  0.6854062984106617  0.52779744942044  0.7434780616283945  1.0000
  H   H33       1.0  0.7894072018894532  0.9008789950859464  0.4181152838559044  1.0000
  H   H34       1.0  0.8880997844766724  0.0991554983373675  0.08191953130327082  1.0000
  H   H35       1.0  0.2105926474068269  0.099119636292194  0.5818855065232854  1.0000
  H   H36       1.0  0.11189818845202396  0.9008431327151245  0.9180812584997328  1.0000
  H   H37       1.0  0.9106194241978544  0.9806995590722923  0.3537138688494396  1.0000
  H   H38       1.0  0.929497153194248  0.019584056207193605  0.1465725710614052  1.0000
  H   H39       1.0  0.08937992550823279  0.019298071846627404  0.6462890888919264  1.0000
  H   H40       1.0  0.07049977003118382  0.9804124765424478  0.8534266433121405  1.0000
  C   C1        1.0  0.088797464980189  0.48401906501182873  0.1996760179766852  1.0000
  C   C2        1.0  0.6048466559601023  0.5160586889727553  0.3003432532648063  1.0000
  C   C3        1.0  0.9111993322906641  0.5159753417736539  0.8003199326401218  1.0000
  C   C4        1.0  0.3951569244186857  0.48393990132048975  0.6996550053436935  1.0000
  C   C5        1.0  0.04074462190246923  0.5711575383710681  0.16832465071055222  1.0000
  C   C6        1.0  0.4695532780746561  0.4287482238575748  0.33149431462996404  1.0000
  C   C7        1.0  0.9592543935119408  0.4288431770722242  0.8316768702142242  1.0000
  C   C8        1.0  0.5304460211085597  0.5712493096769222  0.6685027329575917  1.0000
  C   C9        1.0  0.10823641036640204  0.6685784988996347  0.11776716461785953  1.0000
  C   C10       1.0  0.4398040805271819  0.33146771892217697  0.3822043586528496  1.0000
  C   C11       1.0  0.8917619506330112  0.33141903447203463  0.8822298826816067  1.0000
  C   C12       1.0  0.56019718489042  0.6685318713418199  0.6177917317291988  1.0000
  C   C13       1.0  0.02086476697833463  0.7293958251011503  0.12181687330620859  1.0000
  C   C14       1.0  0.29164690626191  0.2708763975746393  0.378433607698561  1.0000
  C   C15       1.0  0.9791347624613705  0.2706059186254777  0.8781841688717692  1.0000
  C   C16       1.0  0.7083526303953535  0.7291253600640462  0.6215682787871019  1.0000
  C   C17       1.0  0.03536953118476312  0.8453289985420299  0.09050762782725029  1.0000
  C   C18       1.0  0.19014704408039046  0.15480226544248407  0.40956036381675887  1.0000
  C   C19       1.0  0.9646264827270983  0.1546675896930267  0.909494963488946  1.0000
  C   C20       1.0  0.8098557240691805  0.8451984506520991  0.59044115826039  1.0000
  C   C21       1.0  0.4664273415743096  0.6542112027115293  0.0575136263699179  1.0000
  C   C22       1.0  0.8121816860983699  0.3458682667939286  0.4426645477872172  1.0000
  C   C23       1.0  0.5335715478855221  0.3457873867676041  0.9424846307981198  1.0000
  C   C24       1.0  0.18781647378150265  0.654134490978329  0.5573351707600837  1.0000
  C   C25       1.0  0.6391696720755534  0.7812524606799587  0.9923894732607509  1.0000
  C   C26       1.0  0.8577908864085088  0.2186097416142944  0.5075735050424086  1.0000
  C   C27       1.0  0.36082868892385983  0.21874507269171764  0.007607574038715372  1.0000
  C   C28       1.0  0.14220874733312172  0.7813940863403062  0.4924282679692453  1.0000
  C   C29       1.0  0.4941882017581634  0.8358159050309129  0.8733931603858381  1.0000
  C   C30       1.0  0.658442163222773  0.16410489692646726  0.6266675931097794  1.0000
  C   C31       1.0  0.505811327681549  0.16418583869571526  0.12660788179213261  1.0000
  C   C32       1.0  0.34155914550015604  0.8358947768098942  0.3733335631183862  1.0000
  C   C33       1.0  0.4445610425811567  0.9396317911604655  0.9432120331189254  1.0000
  C   C34       1.0  0.5049451276964945  0.0603046129159068  0.5567915860371784  1.0000
  C   C35       1.0  0.5554382566020521  0.060365742374031583  0.05678501446863041  1.0000
  C   C36       1.0  0.4950576188004162  0.9396960614424897  0.44320740311691503  1.0000
  N   N1        1.0  0.9193056994003187  0.5756539253620759  0.197057329549061  1.0000
  N   N2        1.0  0.3436406932766046  0.42434861024050713  0.30288771012725146  1.0000
  N   N3        1.0  0.08069280198878913  0.42434576179788047  0.8029446701225211  1.0000
  N   N4        1.0  0.6563604678390788  0.5756488957955169  0.6971076494211204  1.0000
  N   N5        1.0  0.9061671399554783  0.6701328633292648  0.16980188774208224  1.0000
  N   N6        1.0  0.2360939741877459  0.330007797330552  0.33032807508789835  1.0000
  N   N7        1.0  0.09383731787724511  0.32987310531567005  0.8302039947744577  1.0000
  N   N8        1.0  0.7639067844221117  0.6699907785621662  0.6696693383486406  1.0000
  N   N9        1.0  0.6114499025867846  0.7093338296334509  0.06281108923783316  1.0000
  N   N10       1.0  0.9019713630285505  0.2906117457058456  0.43721510353130816  1.0000
  N   N11       1.0  0.38854804868925186  0.29066475968286193  0.9371871676421151  1.0000
  N   N12       1.0  0.09803212053260078  0.7093941532159606  0.5627865571587095  1.0000
  N   N13       1.0  0.40474368811090494  0.6888294890449771  0.9887448898543739  1.0000
  N   N14       1.0  0.7159561940434144  0.3112088522270611  0.5114188878331589  1.0000
  N   N15       1.0  0.5952586414450707  0.3111722273459918  0.011254464572509374  1.0000
  N   N16       1.0  0.2840433498313999  0.6887929193236886  0.4885838429601891  1.0000
  N   N17       1.0  0.5161200115908784  0.7692227614785452  0.9481365031892325  1.0000
  N   N18       1.0  0.7468480957341512  0.2306399753325508  0.5518622249792884  1.0000
  N   N19       1.0  0.48387888508650423  0.23077584191264586  0.051862598286490404  1.0000
  N   N20       1.0  0.2531530118692303  0.7693649228043923  0.4481416024967189  1.0000
  O   O1        1.0  0.005062637592125392  0.40888758946155696  0.25141774608320594  1.0000
  O   O2        1.0  0.5961982004067324  0.5913890589614184  0.24885249914213153  1.0000
  O   O3        1.0  0.9949353136839109  0.591110999854756  0.7485805107967423  1.0000
  O   O4        1.0  0.4038069942234941  0.4086127553024497  0.7511527663028377  1.0000
  O   O5        1.0  0.20835765236277135  0.49544766966996434  0.1762282052287389  1.0000
  O   O6        1.0  0.7130404852919838  0.5048037935478291  0.3239559003349869  1.0000
  O   O7        1.0  0.7916426138744515  0.504549919675597  0.8237722198776609  1.0000
  O   O8        1.0  0.28696268536342023  0.49519585269005256  0.676043567853995  1.0000
  O   O9        1.0  0.14545883914766505  0.9066584664766286  0.051493720603495934  1.0000
  O   O10       1.0  0.23876460385213966  0.09341955781137301  0.44862489971247044  1.0000
  O   O11       1.0  0.8545335945450886  0.093342220002782  0.9485061096892553  1.0000
  O   O12       1.0  0.7612417231306094  0.9065863972471462  0.5513801390725703  1.0000
  O   O13       1.0  0.9320072754408527  0.8730629333364989  0.10781389322524154  1.0000
  O   O14       1.0  0.05896971438507851  0.1268302033010897  0.39173118313333083  1.0000
  O   O15       1.0  0.0679961110359386  0.12694089526939223  0.892187880938785  1.0000
  O   O16       1.0  0.9410303288131984  0.8731631897644051  0.6082660916903394  1.0000
  O   O17       1.0  0.8093340490898129  0.9033679411507196  0.33617831628175326  1.0000
  O   O18       1.0  0.9050771983659371  0.09655069931010729  0.1639307310509679  1.0000
  O   O19       1.0  0.1906673928052456  0.09663387246185812  0.6638269480108363  1.0000
  O   O20       1.0  0.09492119150370106  0.903446889709812  0.8360696934792387  1.0000
