data_image0
_chemical_formula_structural       Cu2H16C8N4O12
_chemical_formula_sum              "Cu2 H16 C8 N4 O12"
_cell_length_a       7.877508346238677
_cell_length_b       7.829406173718392
_cell_length_c       7.97375752525883
_cell_angle_alpha    89.99882488480993
_cell_angle_beta     114.57701403033639
_cell_angle_gamma    89.99974959750955

_space_group_name_H-M_alt    "P 1"
_space_group_IT_number       1

loop_
  _space_group_symop_operation_xyz
  'x, y, z'

loop_
  _atom_site_type_symbol
  _atom_site_label
  _atom_site_symmetry_multiplicity
  _atom_site_fract_x
  _atom_site_fract_y
  _atom_site_fract_z
  _atom_site_occupancy
  Cu  Cu1       1.0  0.50000189116912  8.344600814999992e-07  0.5000019988894451  1.0000
  Cu  Cu2       1.0  0.500000863903928  0.499997924159345  1.1684817167212704e-06  1.0000
  H   H1        1.0  0.8403981326533341  0.0321678898175719  0.3623216703957937  1.0000
  H   H2        1.0  0.15961518736842353  0.5321639726431255  0.1376764104049002  1.0000
  H   H3        1.0  0.1596017389417383  0.9678342679223559  0.6376805444166962  1.0000
  H   H4        1.0  0.8403846830899154  0.4678381850838987  0.8623270580539782  1.0000
  H   H5        1.0  0.7638730115812964  0.1347616494398807  0.14234498119240874  1.0000
  H   H6        1.0  0.2361495144052412  0.6347799010852382  0.35767109812745457  1.0000
  H   H7        1.0  0.23613104659181516  0.8652392310299315  0.8576602110567891  1.0000
  H   H8        1.0  0.7638308168630134  0.36522097954303934  0.6423205651395917  1.0000
  H   H9        1.0  0.06717507760728839  0.18459064062898978  0.17956884836312534  1.0000
  H   H10       1.0  0.932803217779565  0.684597036751576  0.32044180269729594  1.0000
  H   H11       1.0  0.9328289782923704  0.8154102398150085  0.8204388511788425  1.0000
  H   H12       1.0  0.06717712492866208  0.31539618058931035  0.6795373242139887  1.0000
  H   H13       1.0  0.40422634414603914  0.22677875402941788  0.1794485873783955  1.0000
  H   H14       1.0  0.5957888527583323  0.7267831383460788  0.3205625969605351  1.0000
  H   H15       1.0  0.595777720895896  0.7732170175735288  0.8205490830645488  1.0000
  H   H16       1.0  0.40421660246450847  0.2732164648935224  0.6794419162510508  1.0000
  C   C1        1.0  0.046294947901692786  0.12116832665370227  0.2935718637195563  1.0000
  C   C2        1.0  0.953690153640835  0.6211668185284579  0.20642156366715617  1.0000
  C   C3        1.0  0.9537091102471891  0.878835108288257  0.7064333284935886  1.0000
  C   C4        1.0  0.04630414119529291  0.37883278484492416  0.7935708309399843  1.0000
  C   C5        1.0  0.5119606523190399  0.2972477126412868  0.29381771088444  1.0000
  C   C6        1.0  0.48802528880597146  0.7972303586617355  0.2061812468887538  1.0000
  C   C7        1.0  0.48803922383505954  0.7027531679141813  0.7061794893605154  1.0000
  C   C8        1.0  0.5119815634423617  0.20277052181980076  0.7938225872491886  1.0000
  N   N1        1.0  0.8695676444453254  0.08926519905320157  0.2604607443018239  1.0000
  N   N2        1.0  0.1304431816926481  0.5892656178520493  0.23955144790753743  1.0000
  N   N3        1.0  0.13043501896363097  0.9107356814365629  0.7395426197102142  1.0000
  N   N4        1.0  0.869544129080033  0.4107352627410064  0.7604430883133232  1.0000
  O   O1        1.0  0.5724788727594615  0.23534985596081975  0.4560736151379318  1.0000
  O   O2        1.0  0.4274914826736875  0.735334663330917  0.0439302235053418  1.0000
  O   O3        1.0  0.42751541524418707  0.7646510245712076  0.5439263013295202  1.0000
  O   O4        1.0  0.5725153695988823  0.26466366267846536  0.9560736106686393  1.0000
  O   O5        1.0  0.18322590227115407  0.08386118563978327  0.4411271618470494  1.0000
  O   O6        1.0  0.8167668799381431  0.5838335605059086  0.058877713584699704  1.0000
  O   O7        1.0  0.8167753617903841  0.9161435265265322  0.5588793884593315  1.0000
  O   O8        1.0  0.18323021131936199  0.41615837948856427  0.9411108157265532  1.0000
  O   O9        1.0  0.5738271585052955  0.43681542161992576  0.2606423464432339  1.0000
  O   O10       1.0  0.4261729003871082  0.9368140888462616  0.23934327005144948  1.0000
  O   O11       1.0  0.4261727131018843  0.5631854588839218  0.7393598683872754  1.0000
  O   O12       1.0  0.5738325525743947  0.063184237131459  0.7606637504709397  1.0000
