data_image0
_chemical_formula_structural       Ni2H16C28S8N12
_chemical_formula_sum              "Ni2 H16 C28 S8 N12"
_cell_length_a       7.760600395135294
_cell_length_b       8.48837826138947
_cell_length_c       14.165956438140087
_cell_angle_alpha    99.7315725145339
_cell_angle_beta     101.46273450398421
_cell_angle_gamma    107.9504045924137

_space_group_name_H-M_alt    "P 1"
_space_group_IT_number       1

loop_
  _space_group_symop_operation_xyz
  'x, y, z'

loop_
  _atom_site_type_symbol
  _atom_site_label
  _atom_site_symmetry_multiplicity
  _atom_site_fract_x
  _atom_site_fract_y
  _atom_site_fract_z
  _atom_site_occupancy
  Ni  Ni1       1.0  0.3505532793104179  0.6625017260898146  0.7408203071206146  1.0000
  Ni  Ni2       1.0  0.6494536393980327  0.33749601437930465  0.2591805804601748  1.0000
  H   H1        1.0  0.960983414609572  0.2248495001735904  0.9430588270033055  1.0000
  H   H2        1.0  0.03902316956583712  0.7751610471978266  0.05694056874902736  1.0000
  H   H3        1.0  0.04233651092004457  0.4407513940189317  0.10508632165112179  1.0000
  H   H4        1.0  0.9576667849032531  0.5592539932193574  0.8949149948204321  1.0000
  H   H5        1.0  0.334036013545628  0.4882042339436198  0.2358779103605926  1.0000
  H   H6        1.0  0.6659707373828139  0.5117999432875704  0.7641201169630634  1.0000
  H   H7        1.0  0.47131945400838754  0.13347766780068326  0.05534155614405731  1.0000
  H   H8        1.0  0.5286836750618774  0.8665340895778259  0.9446611287561737  1.0000
  H   H9        1.0  0.2102266211520103  0.8610338346372828  0.4619583026514675  1.0000
  H   H10       1.0  0.7897511707150854  0.1389701741313161  0.5380415486379277  1.0000
  H   H11       1.0  0.28653727403332835  0.742833910988132  0.3087529248114435  1.0000
  H   H12       1.0  0.7134332843301651  0.2571547033553827  0.6912480378507411  1.0000
  H   H13       1.0  0.47427798498501506  0.9441836017643082  0.22441517040694234  1.0000
  H   H14       1.0  0.5257042619539049  0.0557909760017381  0.7755876621054085  1.0000
  H   H15       1.0  0.49361353540486863  0.36565996526965705  0.42966442469486305  1.0000
  H   H16       1.0  0.5063741327582889  0.6343289025567599  0.5703256893423257  1.0000
  C   C1        1.0  0.09316121736309661  0.8134737368366345  0.7422384062387691  1.0000
  C   C2        1.0  0.9068508009498614  0.18653033475217032  0.2577679390393683  1.0000
  C   C3        1.0  0.18178137261909907  0.029822834325237583  0.8982352268219033  1.0000
  C   C4        1.0  0.818236074316154  0.9701850833324244  0.10177211027687603  1.0000
  C   C5        1.0  0.21120188398378298  0.1616227118712317  0.9865735015382668  1.0000
  C   C6        1.0  0.7887923610167176  0.8383864316528004  0.013430071127281427  1.0000
  C   C7        1.0  0.08960622361806257  0.2508078738002979  0.0005511701456554939  1.0000
  C   C8        1.0  0.9103923014093096  0.749198674906104  0.9994561132567127  1.0000
  C   C9        1.0  0.1349577880460089  0.37137868030247745  0.09019734852296318  1.0000
  C   C10       1.0  0.8650461647478451  0.6286317699909887  0.9098074027952093  1.0000
  C   C11       1.0  0.2974345978084969  0.3993245826030146  0.16370050887113047  1.0000
  C   C12       1.0  0.7025805452225098  0.6006808528586305  0.8363013748880661  1.0000
  C   C13       1.0  0.37364360051293494  0.20000825052164117  0.06414006210307122  1.0000
  C   C14       1.0  0.6263619978452938  0.7999997077417759  0.9358610694603158  1.0000
  C   C15       1.0  0.21702104603308914  0.3219663035093204  0.6890719340673571  1.0000
  C   C16       1.0  0.7829794527206316  0.678035323634411  0.31092373979868876  1.0000
  C   C17       1.0  0.3088821819738214  0.2128115622542524  0.5442124101053523  1.0000
  C   C18       1.0  0.6911197950777604  0.7871939763105827  0.45577889809169386  1.0000
  C   C19       1.0  0.344329049758855  0.1243600344005529  0.4568640401945743  1.0000
  C   C20       1.0  0.6556471020971699  0.8756261780116361  0.5431287932689273  1.0000
  C   C21       1.0  0.2867110991875066  0.9465242374370533  0.42268152030384687  1.0000
  C   C22       1.0  0.7132691652577067  0.05346579471230229  0.5773135732012734  1.0000
  C   C23       1.0  0.33179233741721254  0.8804617068141171  0.3377227163116387  1.0000
  C   C24       1.0  0.6681895736193509  0.11952576668334557  0.6622729861245134  1.0000
  C   C25       1.0  0.4351504676883451  0.9913541376811423  0.2903978155660453  1.0000
  C   C26       1.0  0.564838849462454  0.008632016042426499  0.7096027743357354  1.0000
  C   C27       1.0  0.4471085036418642  0.22712535320901137  0.404310706486541  1.0000
  C   C28       1.0  0.5528831145034018  0.7728634714724479  0.5956833554783643  1.0000
  S   S1        1.0  0.9977034478366136  0.9615742640733418  0.7899055530179169  1.0000
  S   S2        1.0  0.0023105436892052016  0.0384249192637114  0.210087068380993  1.0000
  S   S3        1.0  0.027022391479917474  0.6722549881761708  0.631548948483605  1.0000
  S   S4        1.0  0.9729986807367793  0.32774512726136606  0.36846782665795524  1.0000
  S   S5        1.0  0.14618189314902003  0.39255040398983715  0.7877583331920802  1.0000
  S   S6        1.0  0.8538209057433477  0.607453949629992  0.21222728883225273  1.0000
  S   S7        1.0  0.16741607452827617  0.1174700068400725  0.6156226123959881  1.0000
  S   S8        1.0  0.8325661559979805  0.8825454919117418  0.3843796470676963  1.0000
  N   N1        1.0  0.25089604204202937  0.8280629402059247  0.8091898999713791  1.0000
  N   N2        1.0  0.7491143327985482  0.17193352363425868  0.19081192714732248  1.0000
  N   N3        1.0  0.2990874728488606  0.9460863078180426  0.8946358212913809  1.0000
  N   N4        1.0  0.7009253674760528  0.0539165677221192  0.10536554259500258  1.0000
  N   N5        1.0  0.4155545658336949  0.31447808043900943  0.1504586421795864  1.0000
  N   N6        1.0  0.5844691332762793  0.6855323873061039  0.8495510483767958  1.0000
  N   N7        1.0  0.33290949482862686  0.44029925283176397  0.6558310606213951  1.0000
  N   N8        1.0  0.667096601696713  0.559699694789643  0.3441741035701682  1.0000
  N   N9        1.0  0.38461058852139013  0.3802554130421285  0.5766633284264414  1.0000
  N   N10       1.0  0.6154027456535118  0.619748695982011  0.4233410438497458  1.0000
  N   N11       1.0  0.4934568883455696  0.16304141082257925  0.324074315104788  1.0000
  N   N12       1.0  0.5065419674492588  0.8369525752616126  0.6759189549447341  1.0000
