data_image0
_chemical_formula_structural       Fe2H48C54S4N12O8
_chemical_formula_sum              "Fe2 H48 C54 S4 N12 O8"
_cell_length_a       8.908835921506531
_cell_length_b       12.375245913063672
_cell_length_c       24.212446428027953
_cell_angle_alpha    89.99985856797555
_cell_angle_beta     89.99995552698968
_cell_angle_gamma    111.0918466729944

_space_group_name_H-M_alt    "P 1"
_space_group_IT_number       1

loop_
  _space_group_symop_operation_xyz
  'x, y, z'

loop_
  _atom_site_type_symbol
  _atom_site_label
  _atom_site_symmetry_multiplicity
  _atom_site_fract_x
  _atom_site_fract_y
  _atom_site_fract_z
  _atom_site_occupancy
  Fe  Fe1       1.0  0.5000001060516084  0.5000007894912315  0.500000305441567  1.0000
  Fe  Fe2       1.0  4.500778580095705e-06  0.5000020919280246  0.9999998324808742  1.0000
  H   H1        1.0  0.8524980222048697  0.5906400788100469  0.5457378304762628  1.0000
  H   H2        1.0  0.02480001838547715  0.7329103956542653  0.6129045561516477  1.0000
  H   H3        1.0  0.5990059326793472  0.7989756557856753  0.6637489419799606  1.0000
  H   H4        1.0  0.4474936346053012  0.6564574794530528  0.5931576741068695  1.0000
  H   H5        1.0  0.8159480508052183  0.9769198193383201  0.6870793609957602  1.0000
  H   H6        1.0  0.7631090113163169  0.8670484605598646  0.7399551357037025  1.0000
  H   H7        1.0  0.1475138683285309  0.4093603514859653  0.5457380473346731  1.0000
  H   H8        1.0  0.9752077256750271  0.2670887542356439  0.6129038852730488  1.0000
  H   H9        1.0  0.4010010364334704  0.20102664481273536  0.663748521546502  1.0000
  H   H10       1.0  0.5525174986248302  0.3435461226796405  0.5931586820003361  1.0000
  H   H11       1.0  0.1840541317219504  0.0230797391447908  0.6870804670058632  1.0000
  H   H12       1.0  0.23689108682102497  0.1329516378333793  0.7399560878709861  1.0000
  H   H13       1.0  0.7381988756875302  0.5907706216886693  0.9543078785434813  1.0000
  H   H14       1.0  0.7083995876400094  0.7331728453756695  0.887132838124394  1.0000
  H   H15       1.0  0.2000356642069292  0.7987019466635915  0.8362202130249513  1.0000
  H   H16       1.0  0.20886242696381876  0.6560795205984248  0.9068203545602813  1.0000
  H   H17       1.0  0.161153424320993  0.9770822113785582  0.812934148727976  1.0000
  H   H18       1.0  0.10419574340494371  0.8671584770002739  0.7600812440851923  1.0000
  H   H19       1.0  0.26180098393862045  0.4092298863115503  0.9543047582015447  1.0000
  H   H20       1.0  0.29159776368835116  0.2668246127810008  0.8871307145816516  1.0000
  H   H21       1.0  0.7999614365027983  0.20129929005579325  0.8362180240365901  1.0000
  H   H22       1.0  0.7911369878802786  0.3439221465274329  0.9068179884117313  1.0000
  H   H23       1.0  0.8388436198595953  0.022916570712965302  0.8129334122428418  1.0000
  H   H24       1.0  0.8958022625861516  0.13283976507779016  0.7600799394815141  1.0000
  H   H25       1.0  0.14750805869331876  0.40935976778069255  0.4542631934178303  1.0000
  H   H26       1.0  0.9752015726572552  0.2670894510761385  0.3870972937645405  1.0000
  H   H27       1.0  0.40099142499366996  0.2010224588793506  0.33625125589504995  1.0000
  H   H28       1.0  0.5525115803153042  0.3435406349682069  0.406840871724107  1.0000
  H   H29       1.0  0.1840493068677986  0.023078295326705203  0.3129208368792504  1.0000
  H   H30       1.0  0.23688834635563447  0.1329496541038893  0.26004547518202503  1.0000
  H   H31       1.0  0.8524897111657525  0.5906412273911172  0.4542621505372466  1.0000
  H   H32       1.0  0.02479118745755931  0.7329102264874906  0.3870946605582972  1.0000
  H   H33       1.0  0.5989960647591133  0.7989732020636993  0.3362520893381813  1.0000
  H   H34       1.0  0.4474807250300259  0.6564537241599666  0.40684234189490087  1.0000
  H   H35       1.0  0.8159422799992839  0.9769209738557622  0.3129201438783724  1.0000
  H   H36       1.0  0.7631055014128234  0.867051673468431  0.2600445230115866  1.0000
  H   H37       1.0  0.261803581342356  0.40923095722268954  0.04569273233932589  1.0000
  H   H38       1.0  0.2915977700330075  0.266825269289356  0.11286735975061646  1.0000
  H   H39       1.0  0.7999641149064374  0.20129876623285264  0.1637795718373454  1.0000
  H   H40       1.0  0.7911368391865564  0.34392465671830047  0.0931810823428023  1.0000
  H   H41       1.0  0.8388456653199582  0.022919367640732  0.1870660491445975  1.0000
  H   H42       1.0  0.8958040357052326  0.1328422358923476  0.2399197798092771  1.0000
  H   H43       1.0  0.7382004305989369  0.5907673621265275  0.04569420064125039  1.0000
  H   H44       1.0  0.7083985514902053  0.7331691714081855  0.1128686572747952  1.0000
  H   H45       1.0  0.20003385275722949  0.7987014229828657  0.16378176082636026  1.0000
  H   H46       1.0  0.2088652126723644  0.6560811645991576  0.09318179644857588  1.0000
  H   H47       1.0  0.16114863845549351  0.9770780797044479  0.1870667856350963  1.0000
  H   H48       1.0  0.10419241716821387  0.8671574835697766  0.23992025839443437  1.0000
  C   C1        1.0  0.8007570106723775  0.6387527504801369  0.5725558329573843  1.0000
  C   C2        1.0  0.896497320614948  0.7169621012015525  0.610552756237702  1.0000
  C   C3        1.0  0.8260309927829751  0.7774346240471317  0.6443283322934689  1.0000
  C   C4        1.0  0.6612165455191245  0.7552910280595951  0.6386845787135583  1.0000
  C   C5        1.0  0.5756046893116463  0.6750503514339387  0.5991491902961599  1.0000
  C   C6        1.0  0.8611770082695429  0.9233031088614541  0.713766489058841  1.0000
  C   C7        1.0  0.19925137428450768  0.3612475144520317  0.5725560953813938  1.0000
  C   C8        1.0  0.10351130154608512  0.28303879537438803  0.6105527320852387  1.0000
  C   C9        1.0  0.1739801332605992  0.22256693014792714  0.6443279508177965  1.0000
  C   C10       1.0  0.33879167520534287  0.24471142715102454  0.6386849473648651  1.0000
  C   C11       1.0  0.42440554706477934  0.3249514815568659  0.5991490198914562  1.0000
  C   C12       1.0  0.1388272816755745  0.07669628489168899  0.7137663016393885  1.0000
  C   C13       1.0  0.8380661542816199  0.6387963771870347  0.9274852653621009  1.0000
  C   C14       1.0  0.8206410955506483  0.7170545840182497  0.8894845149951395  1.0000
  C   C15       1.0  0.9515701450565572  0.7773918872398371  0.8556832473510594  1.0000
  C   C16       1.0  0.09413252274555367  0.7550493381761784  0.8612862897255269  1.0000
  C   C17       1.0  0.0994241486085201  0.6747760908964864  0.9008259210817613  1.0000
  C   C18       1.0  0.062314667365647836  0.9233922794057818  0.7862685726400898  1.0000
  C   C19       1.0  0.16193272109006074  0.3612042963460027  0.9274826476305547  1.0000
  C   C20       1.0  0.1793558106659816  0.2829419935371362  0.8894832298442239  1.0000
  C   C21       1.0  0.048429356770597544  0.22260749710585503  0.8556812503352589  1.0000
  C   C22       1.0  0.9058637593328028  0.2449526100055479  0.8612844279013956  1.0000
  C   C23       1.0  0.9005752971212715  0.32522561321324156  0.90082437265022  1.0000
  C   C24       1.0  0.9376836366795089  0.07660666718036421  0.7862677397166421  1.0000
  C   C25       1.0  0.1992475147715567  0.3612462300588675  0.42744477792675883  1.0000
  C   C26       1.0  0.10350582588628746  0.2830386115856881  0.389447854645553  1.0000
  C   C27       1.0  0.1739701652698926  0.2225643565972533  0.3556726916018889  1.0000
  C   C28       1.0  0.3387839230655914  0.24470881871273056  0.36131520614918605  1.0000
  C   C29       1.0  0.4243995796582426  0.32495036132412036  0.40084935553331746  1.0000
  C   C30       1.0  0.13882103887375763  0.0766941396781817  0.2862341218273342  1.0000
  C   C31       1.0  0.8007479718368772  0.6387523323558496  0.4274436894815139  1.0000
  C   C32       1.0  0.8964871785934535  0.7169593192589048  0.3894462267574426  1.0000
  C   C33       1.0  0.8260192128618443  0.7774329166612262  0.35567142103438704  1.0000
  C   C34       1.0  0.6612081039080238  0.7552892857454266  0.3613148374974315  1.0000
  C   C35       1.0  0.5755926765922013  0.6750483652852921  0.4008511779823323  1.0000
  C   C36       1.0  0.8611702525111155  0.923304428075866  0.286233483223242  1.0000
  C   C37       1.0  0.161935180284928  0.3612052017598799  0.0725153455208698  1.0000
  C   C38       1.0  0.1793566951132917  0.2829443967340737  0.11051609588998448  1.0000
  C   C39       1.0  0.04842945754312916  0.22260622735408478  0.1443169505236241  1.0000
  C   C40       1.0  0.9058676893576701  0.24495224080628467  0.1387143211576074  1.0000
  C   C41       1.0  0.9005784849329148  0.3252280863148513  0.0991751028101078  1.0000
  C   C42       1.0  0.937685111745587  0.0766084334881185  0.2137320382436556  1.0000
  C   C43       1.0  0.8380657590494777  0.6387938182872972  0.07251631121212648  1.0000
  C   C44       1.0  0.8206429259507999  0.7170543888809247  0.1105165550209506  1.0000
  C   C45       1.0  0.9515699893561022  0.7773923497083999  0.1443164694740346  1.0000
  C   C46       1.0  0.09413533030814138  0.7550489690137424  0.1387157699711778  1.0000
  C   C47       1.0  0.09942534797711737  0.6747768318616139  0.09917499920013739  1.0000
  C   C48       1.0  0.06230948761954377  0.9233897154141885  0.21373245816007366  1.0000
  C   C49       1.0  0.7202853564851851  0.34484284804382537  0.49999995812367365  1.0000
  C   C50       1.0  0.27971572160519287  0.6551604631196  0.4999994137260799  1.0000
  C   C51       1.0  0.6245802191218742  0.3447157743701936  5.178894611e-07  1.0000
  C   C52       1.0  0.3754258617795045  0.6552840722243758  0.9999992669724661  1.0000
  C   C53       1.0  0.9999993666566168  2.844231730000202e-07  0.750015082284186  1.0000
  C   C54       1.0  0.9999954896103632  0.9999995625256446  0.2499851155900927  1.0000
  S   S1        1.0  0.7981406543716716  0.2460570864676797  0.5000004220435699  1.0000
  S   S2        1.0  0.20185160395192275  0.7539375639599301  0.499996471748581  1.0000
  S   S3        1.0  0.44803511814631497  0.2459094891341849  1.0188594998999999e-06  1.0000
  S   S4        1.0  0.5519729512002343  0.7540920895994104  0.9999995920224904  1.0000
  N   N1        1.0  0.6420855590368859  0.6174369566254612  0.5659650443741668  1.0000
  N   N2        1.0  0.35792329287177443  0.38256421506019933  0.5659656467457879  1.0000
  N   N3        1.0  0.9753171590859465  0.6173334596535369  0.934040565096083  1.0000
  N   N4        1.0  0.024684360424416178  0.3826680394473669  0.9340387863016985  1.0000
  N   N5        1.0  0.3579185334150665  0.3825611578249735  0.43403556651058023  1.0000
  N   N6        1.0  0.6420757967702428  0.6174373639603701  0.43403413811606834  1.0000
  N   N7        1.0  0.02468685339925255  0.38266898531083615  0.0659600457859497  1.0000
  N   N8        1.0  0.9753192190719916  0.6173335394322663  0.0659605855487797  1.0000
  N   N9        1.0  0.662385104093751  0.4181645705212773  0.4999995073432046  1.0000
  N   N10       1.0  0.3376209768044376  0.5818352760694694  0.5000015165508883  1.0000
  N   N11       1.0  0.7557634713754169  0.4180765452563405  3.955643279999998e-08  1.0000
  N   N12       1.0  0.24424390850509778  0.5819258996077465  0.9999985062714953  1.0000
  O   O1        1.0  0.9254935938264242  0.8544295872034696  0.6804679465766057  1.0000
  O   O2        1.0  0.07451354561758451  0.1455708780247065  0.6804672780796466  1.0000
  O   O3        1.0  0.9292043117757273  0.8545147845876143  0.8195897819366492  1.0000
  O   O4        1.0  0.07079200863959302  0.14548482256301304  0.8195887016188976  1.0000
  O   O5        1.0  0.07450644176204692  0.14556939347519196  0.31953349032963263  1.0000
  O   O6        1.0  0.9254851110335094  0.8544298349085648  0.31953209377208935  1.0000
  O   O7        1.0  0.07079503434245989  0.14548506221644428  0.18041124195843133  1.0000
  O   O8        1.0  0.9292004261881103  0.854512426155658  0.1804114962573706  1.0000
