data_image0
_chemical_formula_structural       Cd2H48C42N8O8
_chemical_formula_sum              "Cd2 H48 C42 N8 O8"
_cell_length_a       8.148688446990187
_cell_length_b       10.474630207363337
_cell_length_c       12.017395983654179
_cell_angle_alpha    80.49844785202389
_cell_angle_beta     85.73023875727878
_cell_angle_gamma    83.921593013977

_space_group_name_H-M_alt    "P 1"
_space_group_IT_number       1

loop_
  _space_group_symop_operation_xyz
  'x, y, z'

loop_
  _atom_site_type_symbol
  _atom_site_label
  _atom_site_symmetry_multiplicity
  _atom_site_fract_x
  _atom_site_fract_y
  _atom_site_fract_z
  _atom_site_occupancy
  Cd  Cd1       1.0  0.990905277427693  0.695103364241582  0.38799854107792  1.0000
  Cd  Cd2       1.0  0.009091735077973303  0.30490004913431074  0.611999336160082  1.0000
  H   H1        1.0  0.9426875972058683  0.1679614218752903  0.40422749970300487  1.0000
  H   H2        1.0  0.05731058011861019  0.8320429606205977  0.595772664734092  1.0000
  H   H3        1.0  0.8784169952320584  0.4657036307830182  0.11393865502897431  1.0000
  H   H4        1.0  0.12158388164082373  0.5342987973690113  0.8860624672306372  1.0000
  H   H5        1.0  0.945367107502726  0.06173847703259127  0.07374269085863723  1.0000
  H   H6        1.0  0.05463162570815435  0.9382610436305752  0.9262581479826437  1.0000
  H   H7        1.0  0.7543200619555677  0.30647444642482913  0.9371808718412138  1.0000
  H   H8        1.0  0.2456823197275781  0.6935250570162808  0.06281725860220182  1.0000
  H   H9        1.0  0.9562361518940464  0.23832414115469894  0.9035612251168387  1.0000
  H   H10       1.0  0.043765028591344915  0.7616753686506286  0.09643863934567068  1.0000
  H   H11       1.0  0.9199823399113713  0.4044725407117014  0.9208405243135829  1.0000
  H   H12       1.0  0.08002002681210744  0.5955269621058717  0.07915677491003241  1.0000
  H   H13       1.0  0.8020482952537692  0.9108928179921848  0.5620494336885216  1.0000
  H   H14       1.0  0.19794540231148264  0.08910769550612942  0.4379515565898586  1.0000
  H   H15       1.0  0.5912305301049942  0.6141229925033186  0.4366932244182209  1.0000
  H   H16       1.0  0.4087662753388415  0.38587265266917103  0.563313284424204  1.0000
  H   H17       1.0  0.3501961494241004  0.7418458848019398  0.5646779276651586  1.0000
  H   H18       1.0  0.6497961759274348  0.2581556049330017  0.4353213368722564  1.0000
  H   H19       1.0  0.36136210797202045  0.9763129419514984  0.6416512954912007  1.0000
  H   H20       1.0  0.6386349942916497  0.023690475165601303  0.35835156906563265  1.0000
  H   H21       1.0  0.5638221629216176  0.013029758859005399  0.6605397005739417  1.0000
  H   H22       1.0  0.43617892134616215  0.9869707239364016  0.33946086022753263  1.0000
  H   H23       1.0  0.4173356316153232  0.9283482434738631  0.8424709336359584  1.0000
  H   H24       1.0  0.5826667136888802  0.0716522354514595  0.15753121802564607  1.0000
  H   H25       1.0  0.38450203010368983  0.7854108734940863  0.7923108107813731  1.0000
  H   H26       1.0  0.6154964957123  0.2145905925256955  0.2076905895180374  1.0000
  H   H27       1.0  0.7295215299885598  0.8654396248158278  0.820246246885638  1.0000
  H   H28       1.0  0.2704810590894837  0.13455793326865256  0.1797513220996549  1.0000
  H   H29       1.0  0.6874919021262687  0.7216983332250564  0.7760634585888438  1.0000
  H   H30       1.0  0.3125043239714317  0.2783011958018022  0.22393502975199198  1.0000
  H   H31       1.0  0.527693361523511  0.6623195544587261  0.9678401900252354  1.0000
  H   H32       1.0  0.4723079002198318  0.337678981732985  0.03215814687850842  1.0000
  H   H33       1.0  0.7443581114248091  0.660979746745717  0.9683571619981848  1.0000
  H   H34       1.0  0.2556444926128947  0.3390178119623002  0.031641238206908916  1.0000
  H   H35       1.0  0.493830055470248  0.8822149529820251  0.03110730474617904  1.0000
  H   H36       1.0  0.5061714585469872  0.1177816397236668  0.9688929643588436  1.0000
  H   H37       1.0  0.7105783065712289  0.8868927426649192  0.01766304318542213  1.0000
  H   H38       1.0  0.2894230000511087  0.11310579539739508  0.9823377873777304  1.0000
  H   H39       1.0  0.7401835870788248  0.6873156125653492  0.1701622136112277  1.0000
  H   H40       1.0  0.25981805307536376  0.3126800083973293  0.8298390215944309  1.0000
  H   H41       1.0  0.6478218984835138  0.8308774076388726  0.21349982766595593  1.0000
  H   H42       1.0  0.35218195163094634  0.16912014657552996  0.78649933217946  1.0000
  H   H43       1.0  0.3227106943811293  0.8464918219309822  0.2614669767198592  1.0000
  H   H44       1.0  0.6772942906328084  0.15350670015634904  0.7385328078850434  1.0000
  H   H45       1.0  0.5774481142737997  0.489692717021228  0.19820939649811456  1.0000
  H   H46       1.0  0.42255322872748746  0.5103048455568739  0.8017874128468561  1.0000
  H   H47       1.0  0.27207722225464454  0.44525030581358016  0.3121249085294834  1.0000
  H   H48       1.0  0.727919907887909  0.5547511584644838  0.687867419931564  1.0000
  C   C1        1.0  0.9516321436448437  0.1015670638564643  0.24301699813398156  1.0000
  C   C2        1.0  0.04836745723194724  0.8984353675421133  0.7569817020456923  1.0000
  C   C3        1.0  0.9354062604852659  0.19673671230958686  0.31316212727776355  1.0000
  C   C4        1.0  0.0645969375251738  0.8032666767276169  0.6868370545024333  1.0000
  C   C5        1.0  0.9084266152500576  0.3280064283262546  0.26622104834221716  1.0000
  C   C6        1.0  0.09157421674382249  0.6719959979551717  0.7337775802579785  1.0000
  C   C7        1.0  0.8972564256195884  0.3626948205837692  0.149052534033224  1.0000
  C   C8        1.0  0.102745971023225  0.6373046834808704  0.8509464276299993  1.0000
  C   C9        1.0  0.9089170983060058  0.2686870127109628  0.0777125726370684  1.0000
  C   C10       1.0  0.0910864332362848  0.7313134592266053  0.9222870137856417  1.0000
  C   C11       1.0  0.9364858436353389  0.1378985097217793  0.12648722975740867  1.0000
  C   C12       1.0  0.06351498835854133  0.862103916559647  0.873511398842787  1.0000
  C   C13       1.0  0.9821879052622581  0.9606322740844319  0.2926532485360696  1.0000
  C   C14       1.0  0.017800660439732503  0.03937020523910921  0.7073485895183679  1.0000
  C   C15       1.0  0.8959369714119348  0.4316741111905314  0.3404215681359375  1.0000
  C   C16       1.0  0.10406501044109014  0.5683292835873528  0.6595785164435454  1.0000
  C   C17       1.0  0.8855055866990114  0.3063134996475085  0.9536036312930349  1.0000
  C   C18       1.0  0.11449448880623693  0.6936850435319568  0.046397270849603066  1.0000
  C   C19       1.0  0.7157190046053613  0.8447695763569457  0.544988472472717  1.0000
  C   C20       1.0  0.28427605021392577  0.15522996028120414  0.45501341232682074  1.0000
  C   C21       1.0  0.5997740814121572  0.6947568110053338  0.48143302786463943  1.0000
  C   C22       1.0  0.4002213518179759  0.3052398104037834  0.5185717552368203  1.0000
  C   C23       1.0  0.4795718738880695  0.7567030445495389  0.5454141126826286  1.0000
  C   C24       1.0  0.52042343320511  0.2432945486025915  0.45458970431818807  1.0000
  C   C25       1.0  0.48425833449616834  0.9334003956000243  0.6672525218249703  1.0000
  C   C26       1.0  0.5157402725777658  0.0666000968061482  0.33274735091566743  1.0000
  C   C27       1.0  0.4729807440750308  0.8586771886010421  0.7878671388848131  1.0000
  C   C28       1.0  0.5270166468414814  0.1413233095458182  0.2121336366551176  1.0000
  C   C29       1.0  0.6381584105122686  0.7934892394574861  0.8301346419680229  1.0000
  C   C30       1.0  0.36184264383616954  0.20651124209085478  0.16986425639384348  1.0000
  C   C31       1.0  0.6296831417140468  0.7256376291038293  0.953387563545334  1.0000
  C   C32       1.0  0.3703166815173092  0.2743628575616625  0.046611406396017706  1.0000
  C   C33       1.0  0.612133044510806  0.820758058269099  0.03836458374821923  1.0000
  C   C34       1.0  0.38787072434571  0.1792404695589127  0.9616361036559624  1.0000
  C   C35       1.0  0.630243955247174  0.7575005203114386  0.1612474866871665  1.0000
  C   C36       1.0  0.36976115590370995  0.2424970300328723  0.838753264018372  1.0000
  C   C37       1.0  0.34833140079597064  0.7432641195713571  0.259391601297132  1.0000
  C   C38       1.0  0.6516720709076439  0.25673634987207805  0.7406046602463616  1.0000
  C   C39       1.0  0.47777941377833605  0.5557333085568031  0.22680992734120764  1.0000
  C   C40       1.0  0.5222244363361312  0.4442642456575996  0.7731892325042081  1.0000
  C   C41       1.0  0.3272887094752619  0.5354444504521962  0.28346799235225717  1.0000
  C   C42       1.0  0.6727117954463822  0.46455991619757947  0.7165245479476354  1.0000
  N   N1        1.0  0.7462272382066715  0.7502275182096552  0.48194948809953075  1.0000
  N   N2        1.0  0.2537680688865081  0.24977007494247516  0.518054328901293  1.0000
  N   N3        1.0  0.5551877221049537  0.8512476552445277  0.5850960248791566  1.0000
  N   N4        1.0  0.44480730279499175  0.1487518801465555  0.414904197480773  1.0000
  N   N5        1.0  0.24831828138281523  0.6531198374212293  0.3032966794068983  1.0000
  N   N6        1.0  0.7516826981672866  0.3468806410094345  0.696698062855951  1.0000
  N   N7        1.0  0.4890876689204759  0.6883768820583285  0.211999733979205  1.0000
  N   N8        1.0  0.510916388588882  0.3116187267994448  0.787998864408081  1.0000
  O   O1        1.0  0.06113056425863312  0.9299458783915071  0.3824526878431129  1.0000
  O   O2        1.0  0.9388537542461466  0.0700634322023106  0.617560889080984  1.0000
  O   O3        1.0  0.9253129143770096  0.8781480318397925  0.24204252834654483  1.0000
  O   O4        1.0  0.07469569768991852  0.12185144913322432  0.757959400298482  1.0000
  O   O5        1.0  0.8810283081845469  0.39905325560512495  0.44675968518536274  1.0000
  O   O6        1.0  0.11897116655529064  0.6009501475364586  0.5532380488936752  1.0000
  O   O7        1.0  0.9003292838743918  0.5486747275704573  0.2896790459830214  1.0000
  O   O8        1.0  0.09967904599930222  0.45132669564151934  0.7103192880211111  1.0000
