data_image0
_chemical_formula_structural       CdSi2H60C66I2N4O6
_chemical_formula_sum              "Cd1 Si2 H60 C66 I2 N4 O6"
_cell_length_a       7.804056429205531
_cell_length_b       14.057027027668948
_cell_length_c       14.417362862617379
_cell_angle_alpha    69.70763276825399
_cell_angle_beta     87.60178967612919
_cell_angle_gamma    87.67054062473491

_space_group_name_H-M_alt    "P 1"
_space_group_IT_number       1

loop_
  _space_group_symop_operation_xyz
  'x, y, z'

loop_
  _atom_site_type_symbol
  _atom_site_label
  _atom_site_symmetry_multiplicity
  _atom_site_fract_x
  _atom_site_fract_y
  _atom_site_fract_z
  _atom_site_occupancy
  Cd  Cd1       1.0  0.5000000545174358  0.9999976325189903  0.5000006684167745  1.0000
  Si  Si1       1.0  0.18476751580043077  0.3763933160809927  0.8808943370065166  1.0000
  Si  Si2       1.0  0.8152340540220067  0.623607738241624  0.11910642465073815  1.0000
  H   H1        1.0  0.5488054852391572  0.0827341739949432  0.6814743312894364  1.0000
  H   H2        1.0  0.4511950733626122  0.9172600729986657  0.31852594367082077  1.0000
  H   H3        1.0  0.40287040430291654  0.0843130474241178  0.8384743834032307  1.0000
  H   H4        1.0  0.5971260497837962  0.915687281471662  0.161523274056229  1.0000
  H   H5        1.0  0.9705762050785867  0.9459503477750816  0.7614509933786734  1.0000
  H   H6        1.0  0.029421636772966102  0.0540476883127496  0.23854947405951776  1.0000
  H   H7        1.0  0.12976591854899774  0.9547983250136625  0.6070010611352571  1.0000
  H   H8        1.0  0.8702334309324657  0.04519439275875918  0.3930018321875579  1.0000
  H   H9        1.0  0.925095291598808  0.13859596832398316  0.7487303190139656  1.0000
  H   H10       1.0  0.07490868175200664  0.8614088795647278  0.2512684299493769  1.0000
  H   H11       1.0  0.6614342115063537  0.23926996029413058  0.7512942974396353  1.0000
  H   H12       1.0  0.33857348981534585  0.760737905829366  0.2487047457427636  1.0000
  H   H13       1.0  0.5138145022251522  0.22874065045977693  0.9105498645646435  1.0000
  H   H14       1.0  0.48618818512388634  0.7712642045760775  0.08944821924423235  1.0000
  H   H15       1.0  0.37072614603369664  0.8845151785952794  0.9315985391550043  1.0000
  H   H16       1.0  0.6292677812697818  0.11548438696478058  0.06840081997966507  1.0000
  H   H17       1.0  0.46197427406703195  0.24361194070542777  0.4331720554114682  1.0000
  H   H18       1.0  0.5380262065001844  0.7563845588885484  0.5668309405142224  1.0000
  H   H19       1.0  0.6026904248901772  0.3999372800534005  0.4331473163916257  1.0000
  H   H20       1.0  0.3973036358375239  0.6000592411075233  0.5668544391001831  1.0000
  H   H21       1.0  0.042271500871464716  0.21099836689746357  0.5627486379803058  1.0000
  H   H22       1.0  0.9577312961732929  0.7890034767996995  0.43724697639602533  1.0000
  H   H23       1.0  0.8806438681651586  0.062343370138620506  0.5595776193713534  1.0000
  H   H24       1.0  0.11936029176284531  0.9376569300430688  0.44042194367644777  1.0000
  H   H25       1.0  0.6343303986080074  0.36610195405320684  0.6195782120276547  1.0000
  H   H26       1.0  0.3656737680995619  0.6338983366826413  0.3804227412457734  1.0000
  H   H27       1.0  0.5172564491632629  0.45937135983898975  0.7250368496557584  1.0000
  H   H28       1.0  0.48275163887196026  0.5406273919787877  0.2749666021468186  1.0000
  H   H29       1.0  0.6528600407553855  0.6198735044304798  0.7199933825157174  1.0000
  H   H30       1.0  0.347149291451089  0.3801260131472405  0.28000839757000046  1.0000
  H   H31       1.0  0.09253889820973879  0.319134762077411  0.3840214712828995  1.0000
  H   H32       1.0  0.9074639338859642  0.6808663181585005  0.6159750897391162  1.0000
  H   H33       1.0  0.29878758275359024  0.2945983407936836  0.6736623011150442  1.0000
  H   H34       1.0  0.7012115484895249  0.7053996834240835  0.32633952659042337  1.0000
  H   H35       1.0  0.2204001916802838  0.41992760260220047  0.6596547077343119  1.0000
  H   H36       1.0  0.7796002153952417  0.5800704286371854  0.3403456997871784  1.0000
  H   H37       1.0  0.08237104699703222  0.3147731242030359  0.7108767359750344  1.0000
  H   H38       1.0  0.9176293318071133  0.6852256610517529  0.289124115126391  1.0000
  H   H39       1.0  0.7229869318335034  0.38424137532147984  0.9060741886040021  1.0000
  H   H40       1.0  0.2770146413787272  0.6157596742782161  0.09392726816606253  1.0000
  H   H41       1.0  0.8538631978186191  0.4808562798466482  0.9177417199240239  1.0000
  H   H42       1.0  0.14613709278162193  0.5191447721772704  0.08225976680439119  1.0000
  H   H43       1.0  0.8597050872101663  0.3562506805955578  0.008850228994404602  1.0000
  H   H44       1.0  0.1402977686140475  0.6437503665799228  0.9911511978173095  1.0000
  H   H45       1.0  0.2701029926485745  0.1846412923139766  0.11754336201859414  1.0000
  H   H46       1.0  0.7298973194434667  0.8153590151403733  0.8824562909042584  1.0000
  H   H47       1.0  0.2510724461930138  0.1572489274435256  0.005691468329594287  1.0000
  H   H48       1.0  0.7489266183379897  0.8427506189738024  0.9943091611973003  1.0000
  H   H49       1.0  0.06903514894150932  0.20420517354473586  0.057856555157407286  1.0000
  H   H50       1.0  0.9309638839283281  0.7957951316109231  0.9421438228366058  1.0000
  H   H51       1.0  0.018753521338965108  0.5735587727577922  0.7723948621966913  1.0000
  H   H52       1.0  0.9812506487583974  0.42644151325513496  0.2276067861895541  1.0000
  H   H53       1.0  0.09703110724297662  0.75206310324063  0.7327793221276266  1.0000
  H   H54       1.0  0.9029718119035622  0.24793642645820313  0.2672226077498507  1.0000
  H   H55       1.0  0.3742502442724742  0.7923747219246663  0.7902000625767088  1.0000
  H   H56       1.0  0.6257538873841498  0.20762633227243296  0.20979994405102792  1.0000
  H   H57       1.0  0.5663824777555249  0.6522575783385633  0.8911102453725163  1.0000
  H   H58       1.0  0.43362165390110624  0.34774347585852894  0.10888976125522014  1.0000
  H   H59       1.0  0.488064816773452  0.4736076216845078  0.9296646781360636  1.0000
  H   H60       1.0  0.5119393216627514  0.5263934230667502  0.070336718717293  1.0000
  C   C1        1.0  0.419335515413664  0.054698763999518  0.7015443244121045  1.0000
  C   C2        1.0  0.5806624180315866  0.9452970005962626  0.2984562025119144  1.0000
  C   C3        1.0  0.3383239112203711  0.05436304356921079  0.7893240328122816  1.0000
  C   C4        1.0  0.661671358627629  0.9456350068129  0.2106751043169836  1.0000
  C   C5        1.0  0.17414337224455073  0.014184293656192901  0.8140840931024229  1.0000
  C   C6        1.0  0.8258518376709109  0.9858152694796444  0.1859152360738959  1.0000
  C   C7        1.0  0.0977647227846461  0.9782270024897671  0.7469002145782752  1.0000
  C   C8        1.0  0.9022318296753442  0.021771045468121  0.2530988925926394  1.0000
  C   C9        1.0  0.18673898707108802  0.982875616883817  0.6599966182428431  1.0000
  C   C10       1.0  0.8132589780353284  0.0171193889736401  0.34000416021405044  1.0000
  C   C11       1.0  0.08553886969006903  0.007589072085494299  0.9088633670205583  1.0000
  C   C12       1.0  0.9144576228373823  0.9924104886261277  0.09113593219741019  1.0000
  C   C13       1.0  0.9314185678106172  0.06412071478408173  0.9085356342131449  1.0000
  C   C14       1.0  0.06857792132704793  0.9358788506504538  0.09146296989200654  1.0000
  C   C15       1.0  0.15547144640662222  0.9432438855980154  0.9986863028744608  1.0000
  C   C16       1.0  0.844523760119053  0.056755682260742894  0.0013123311890410989  1.0000
  C   C17       1.0  0.8599167383226747  0.13137561084502644  0.8190133051587835  1.0000
  C   C18       1.0  0.1400847297366994  0.8686277291384027  0.18098531167419907  1.0000
  C   C19       1.0  0.7127118530530226  0.18770886186955243  0.8203158340259549  1.0000
  C   C20       1.0  0.28729089422854776  0.8122944804125679  0.1796820577358673  1.0000
  C   C21       1.0  0.6285264577458847  0.18171230432483304  0.911208868094846  1.0000
  C   C22       1.0  0.3714724383099367  0.818291049952876  0.08878841842921036  1.0000
  C   C23       1.0  0.30679998249611634  0.8816532606886014  0.0010507471187181155  1.0000
  C   C24       1.0  0.6931951607072405  0.1183478246468042  0.9989473838790346  1.0000
  C   C25       1.0  0.590317868400952  0.2399452368852479  0.46191485394957243  1.0000
  C   C26       1.0  0.40968256694594624  0.7600520403387349  0.5380851099919893  1.0000
  C   C27       1.0  0.6694265075202994  0.3265395927179282  0.46218606870937873  1.0000
  C   C28       1.0  0.3305700551090496  0.6734584410711975  0.5378151237999801  1.0000
  C   C29       1.0  0.8348787138454412  0.3189421714782554  0.49899509504989936  1.0000
  C   C30       1.0  0.16511906129399992  0.6810573868091367  0.5010041742097184  1.0000
  C   C31       1.0  0.9133397574103627  0.22211361069437177  0.5338242519671041  1.0000
  C   C32       1.0  0.08666182712430272  0.7778867085045179  0.46617328565896077  1.0000
  C   C33       1.0  0.8251109415966554  0.1391469485727583  0.5311290324756825  1.0000
  C   C34       1.0  0.17489068137874852  0.8608526024419733  0.468870146908884  1.0000
  C   C35       1.0  0.9203953375863564  0.41056500674343965  0.5002400268485019  1.0000
  C   C36       1.0  0.07960364667338378  0.5894360807651395  0.49975662404856536  1.0000
  C   C37       1.0  0.8456783962284649  0.4668079561006877  0.5567852621116032  1.0000
  C   C38       1.0  0.15432184237188554  0.5331938829990719  0.44321180240704894  1.0000
  C   C39       1.0  0.07362870262619481  0.4421749256039078  0.4437728652711995  1.0000
  C   C40       1.0  0.9263702499723793  0.557826920642995  0.556223534092986  1.0000
  C   C41       1.0  0.6958100660775983  0.43455670744015873  0.6185374670521213  1.0000
  C   C42       1.0  0.3041940655790257  0.5654443467569337  0.38146253957561527  1.0000
  C   C43       1.0  0.629358632841516  0.48707594413234995  0.6768551066994349  1.0000
  C   C44       1.0  0.3706481341409856  0.5129235782938152  0.323146733302984  1.0000
  C   C45       1.0  0.7071248965488195  0.5771706906545049  0.6749395833989169  1.0000
  C   C46       1.0  0.2928818670438887  0.4228288364945739  0.32506156149069204  1.0000
  C   C47       1.0  0.14946026432660633  0.388663078313833  0.38377213261091464  1.0000
  C   C48       1.0  0.8505425428875102  0.6113387512145678  0.6162255671038466  1.0000
  C   C49       1.0  0.2151707298903389  0.3394805494855149  0.7071480009368116  1.0000
  C   C50       1.0  0.7848296805749726  0.6605174770309503  0.29285310169749573  1.0000
  C   C51       1.0  0.847871317798962  0.3993539546588849  0.9294358817515658  1.0000
  C   C52       1.0  0.15213150636409273  0.6006478512549123  0.07056529352726663  1.0000
  C   C53       1.0  0.20902761411296214  0.2087800414217895  0.04541215931686077  1.0000
  C   C54       1.0  0.7909727013688653  0.7912202613096471  0.9545881887188088  1.0000
  C   C55       1.0  0.2478103744264503  0.5098594457942341  0.8534925669697772  1.0000
  C   C56       1.0  0.7521937956709125  0.49014084021870014  0.14650908141646823  1.0000
  C   C57       1.0  0.13948295040027153  0.5901835054893567  0.7982777180899205  1.0000
  C   C58       1.0  0.8605212230868774  0.4098167758006497  0.20172462540913463  1.0000
  C   C59       1.0  0.18375225168227874  0.6912688140395458  0.7757702997485509  1.0000
  C   C60       1.0  0.8162519150252976  0.308731476696309  0.22423065352487734  1.0000
  C   C61       1.0  0.337814404316525  0.7137709916184107  0.808495586160717  1.0000
  C   C62       1.0  0.6621897273400991  0.2862300625786816  0.19150442046701238  1.0000
  C   C63       1.0  0.4470388232265493  0.6351042298329401  0.8640652174391832  1.0000
  C   C64       1.0  0.552965280158702  0.36489757837955483  0.1359352327684888  1.0000
  C   C65       1.0  0.4021470529552716  0.5342893370416634  0.8860648275605882  1.0000
  C   C66       1.0  0.5978583714827012  0.4657117005624514  0.11393723444724198  1.0000
  I   I1        1.0  0.2542812361928881  0.13333154515203924  0.3556584398687335  1.0000
  I   I2        1.0  0.7457192873579291  0.8666634653028139  0.6443408884458324  1.0000
  N   N1        1.0  0.3450681967384952  0.019673363398851503  0.6376907050933127  1.0000
  N   N2        1.0  0.6549311143022365  0.9803201225577285  0.3623105464709866  1.0000
  N   N3        1.0  0.6662081893382422  0.14715907220470834  0.4960413814365765  1.0000
  N   N4        1.0  0.3337922177372831  0.8528389590346707  0.5039590260849138  1.0000
  O   O1        1.0  0.27519662163526704  0.3236874878226245  0.8039003893432054  1.0000
  O   O2        1.0  0.7248036972363466  0.6763128101858908  0.19610065380527428  1.0000
  O   O3        1.0  0.9772112529094201  0.36839129958436706  0.8715908102154657  1.0000
  O   O4        1.0  0.022790285251851096  0.6316105134765665  0.12840969990890017  1.0000
  O   O5        1.0  0.25699193109740304  0.3111748836694943  0.991364624364742  1.0000
  O   O6        1.0  0.7430096669964145  0.6888254166377196  0.008635693712577027  1.0000
