data_image0
_chemical_formula_structural       Zn2H48C64N8O12
_chemical_formula_sum              "Zn2 H48 C64 N8 O12"
_cell_length_a       9.03201109234534
_cell_length_b       13.007180962815374
_cell_length_c       13.015537712269362
_cell_angle_alpha    109.67439698312138
_cell_angle_beta     105.39822863721615
_cell_angle_gamma    89.55330292330613

_space_group_name_H-M_alt    "P 1"
_space_group_IT_number       1

loop_
  _space_group_symop_operation_xyz
  'x, y, z'

loop_
  _atom_site_type_symbol
  _atom_site_label
  _atom_site_symmetry_multiplicity
  _atom_site_fract_x
  _atom_site_fract_y
  _atom_site_fract_z
  _atom_site_occupancy
  Zn  Zn1       1.0  0.8517495228508664  0.06353904538757149  0.12827679910740392  1.0000
  Zn  Zn2       1.0  0.1482530899945971  0.9364589120421272  0.8717219068091637  1.0000
  H   H1        1.0  0.37935531256314897  0.506223205027716  0.23020600669512697  1.0000
  H   H2        1.0  0.6206062222687689  0.4937676668858159  0.7697858202063727  1.0000
  H   H3        1.0  0.32371993316051106  0.4342860845144187  0.019246840886616122  1.0000
  H   H4        1.0  0.6762777013595453  0.5657184152462946  0.9807493261932906  1.0000
  H   H5        1.0  0.3452143648624357  0.23553213900604664  0.9193404011964219  1.0000
  H   H6        1.0  0.6548071883869043  0.7644737078405371  0.08065021432467748  1.0000
  H   H7        1.0  0.4224904255143897  0.11266393592770638  0.030171544638541478  1.0000
  H   H8        1.0  0.5775207980270521  0.8873353291263585  0.9698090443717433  1.0000
  H   H9        1.0  0.5217883340698108  0.17736733434104932  0.4380966782620277  1.0000
  H   H10       1.0  0.4782142843004421  0.8226329669659762  0.5618943393070949  1.0000
  H   H11       1.0  0.20810235878381886  0.22163249578517247  0.3008662100458537  1.0000
  H   H12       1.0  0.7918825577222318  0.7783599400838026  0.6991354187736505  1.0000
  H   H13       1.0  0.30471601037492485  0.8517038744996626  0.44993200209994194  1.0000
  H   H14       1.0  0.6952892332309019  0.1482824518854144  0.5500541212784283  1.0000
  H   H15       1.0  0.44172175099761546  0.7077881441413961  0.3413002052550666  1.0000
  H   H16       1.0  0.558296055400845  0.2922047282205255  0.6586947691850682  1.0000
  H   H17       1.0  0.5285764895457488  0.7339381157922701  0.1832747664378971  1.0000
  H   H18       1.0  0.4714501640263079  0.266061230609985  0.8167214964992908  1.0000
  H   H19       1.0  0.4800717541765349  0.9059652527946797  0.13968865744248404  1.0000
  H   H20       1.0  0.5199542680423335  0.0940374007413354  0.8603101173587291  1.0000
  H   H21       1.0  0.7275413690027293  0.21135805712854952  0.012524809547414886  1.0000
  H   H22       1.0  0.27244640316455093  0.788656437029985  0.9874791214719351  1.0000
  H   H23       1.0  0.7111645228576291  0.4103433221705259  0.045270068797741175  1.0000
  H   H24       1.0  0.2888145609653279  0.5896713990240771  0.9547447811766503  1.0000
  H   H25       1.0  0.9821086147051759  0.47490453853240683  0.39160811687940367  1.0000
  H   H26       1.0  0.017832029005077698  0.525102419660179  0.6084116033447771  1.0000
  H   H27       1.0  0.981216193931807  0.2730072751678351  0.34693586955195593  1.0000
  H   H28       1.0  0.01876448728227589  0.7269966421068826  0.6530664952125561  1.0000
  H   H29       1.0  0.7566723053970817  0.5939653291621525  0.1725964487369254  1.0000
  H   H30       1.0  0.24332355706072656  0.40604913388654035  0.8274103625144775  1.0000
  H   H31       1.0  0.8143098425970049  0.6244313569545525  0.32132114966522346  1.0000
  H   H32       1.0  0.1856789304479705  0.3755897261275152  0.6786874067779891  1.0000
  H   H33       1.0  0.053713224288984014  0.5781110807260604  0.1859518713820236  1.0000
  H   H34       1.0  0.9462723825767012  0.4218854954724164  0.814054299760208  1.0000
  H   H35       1.0  0.08420304033832342  0.6472896663452943  0.33340888823719445  1.0000
  H   H36       1.0  0.915800336982542  0.35270112635621587  0.6666037464037515  1.0000
  H   H37       1.0  0.06061451994143849  0.6892765653898536  0.07529646991142153  1.0000
  H   H38       1.0  0.9393912179862626  0.3107165772599885  0.9247104095124641  1.0000
  H   H39       1.0  0.003635596425098692  0.8627318642187303  0.036539535063361814  1.0000
  H   H40       1.0  0.9963819307624676  0.1372628748615554  0.9634721434957569  1.0000
  H   H41       1.0  0.8507862456810997  0.9932756525272525  0.3227210660240091  1.0000
  H   H42       1.0  0.14924688694071617  0.006732900609598899  0.6772954288717797  1.0000
  H   H43       1.0  0.9013131897468579  0.8234002782587027  0.37489688422424183  1.0000
  H   H44       1.0  0.0987253877476419  0.17661400389676635  0.6251239298832233  1.0000
  H   H45       1.0  0.4672227210271984  0.4810379436377658  0.4017232710799589  1.0000
  H   H46       1.0  0.5327374227683989  0.518952851938586  0.598262149242359  1.0000
  H   H47       1.0  0.21251578680907096  0.020238204115329905  0.4863300115235702  1.0000
  H   H48       1.0  0.7874982477639634  0.9797440271675979  0.5136608563433  1.0000
  C   C1        1.0  0.42542919934943046  0.34889543183827226  0.2467170777501977  1.0000
  C   C2        1.0  0.5745533592745176  0.6511001196389186  0.753272107760708  1.0000
  C   C3        1.0  0.38632282735975554  0.41975112474797543  0.18468602745264212  1.0000
  C   C4        1.0  0.613670251485054  0.5802459887091516  0.8153046591937355  1.0000
  C   C5        1.0  0.35662879462862657  0.3791052434311054  0.06708567046229769  1.0000
  C   C6        1.0  0.6433599843929869  0.6208935600911686  0.9329063862897797  1.0000
  C   C7        1.0  0.3692726314646393  0.2684642335556475  0.011419432841442772  1.0000
  C   C8        1.0  0.6307243348702726  0.7315369141491175  0.9885701472298222  1.0000
  C   C9        1.0  0.4098637317822096  0.19845753750749398  0.0733589171781333  1.0000
  C   C10       1.0  0.5901466192114881  0.801541829227766  0.9266284767155283  1.0000
  C   C11       1.0  0.4345534227000697  0.2362608876800465  0.19142512218478908  1.0000
  C   C12       1.0  0.565423536562342  0.7637363089401106  0.808561358287207  1.0000
  C   C13       1.0  0.4716772990835023  0.160896601147364  0.26033430780972106  1.0000
  C   C14       1.0  0.5283155725986504  0.8391070877261199  0.7396592605504679  1.0000
  C   C15       1.0  0.4539771803949789  0.21637636969332158  0.38107187381123  1.0000
  C   C16       1.0  0.5460185945492738  0.783623208900501  0.618921606211515  1.0000
  C   C17       1.0  0.4823477535153413  0.3376042918514273  0.4359601795597996  1.0000
  C   C18       1.0  0.5176306799565253  0.6623937903228098  0.564032217095189  1.0000
  C   C19       1.0  0.2828658004884019  0.1676871803150703  0.33575894690913793  1.0000
  C   C20       1.0  0.7171349222819284  0.832305845476064  0.6642362948054128  1.0000
  C   C21       1.0  0.2189861103732652  0.14017390476269753  0.41927413757309745  1.0000
  C   C22       1.0  0.7810309676492364  0.8598198994406587  0.5807287056439278  1.0000
  C   C23       1.0  0.3209907828733094  0.9598906190602675  0.3586865462557681  1.0000
  C   C24       1.0  0.6790364216788516  0.0401014893121072  0.641318205391798  1.0000
  C   C25       1.0  0.34597969652048727  0.8627701010256744  0.3822814852566552  1.0000
  C   C26       1.0  0.6540428747080824  0.1372161557035483  0.6177105880061404  1.0000
  C   C27       1.0  0.4202975575173085  0.7814652244677517  0.3194763654288693  1.0000
  C   C28       1.0  0.5797277236603334  0.2185250634736065  0.680513634693618  1.0000
  C   C29       1.0  0.46924777027488296  0.7969816579861656  0.23222423794011599  1.0000
  C   C30       1.0  0.5307848153512538  0.20301928014069395  0.7677727684512091  1.0000
  C   C31       1.0  0.4426366957299662  0.8931036891963303  0.20762678138012797  1.0000
  C   C32       1.0  0.557384541476523  0.10689736517890222  0.7923714393872815  1.0000
  C   C33       1.0  0.3675958994539457  0.9760296379362285  0.26960991391442213  1.0000
  C   C34       1.0  0.6324212312423609  0.023964965012353904  0.7303916617615586  1.0000
  C   C35       1.0  0.3268808156486287  0.07694898188337619  0.2387671681275236  1.0000
  C   C36       1.0  0.6731207436453344  0.9230415878775629  0.7612281799062399  1.0000
  C   C37       1.0  0.2093626254960981  0.04754513738081561  0.1214215897623916  1.0000
  C   C38       1.0  0.790640125188524  0.9524470014910733  0.878569858319885  1.0000
  C   C39       1.0  0.6286088309661011  0.11497988982705457  0.2570510114204367  1.0000
  C   C40       1.0  0.37138755668942725  0.8850253637567034  0.7429398129737946  1.0000
  C   C41       1.0  0.7827259066061742  0.27272024822296  0.09529759925822394  1.0000
  C   C42       1.0  0.21728533792538227  0.7272915364653088  0.9047024550384463  1.0000
  C   C43       1.0  0.7754370692505573  0.38407960902348026  0.11438008803121136  1.0000
  C   C44       1.0  0.2245279478788262  0.6159319750092394  0.8856352276288108  1.0000
  C   C45       1.0  0.8478140731204673  0.4608562160954222  0.22156328876584297  1.0000
  C   C46       1.0  0.15216538421142187  0.5391535481166159  0.7784476987023439  1.0000
  C   C47       1.0  0.9239735586407672  0.41946710679228977  0.3060957399544008  1.0000
  C   C48       1.0  0.07601477835626008  0.5805417154118118  0.6939118132586586  1.0000
  C   C49       1.0  0.9254676847385497  0.30678806075938064  0.28157465503979756  1.0000
  C   C50       1.0  0.07448331837107962  0.693221184856675  0.7184398587648033  1.0000
  C   C51       1.0  0.8457978632813478  0.5816683187553977  0.24251226650628863  1.0000
  C   C52       1.0  0.1541907620592581  0.41834216376916794  0.7574974144938054  1.0000
  C   C53       1.0  0.0034566507775082404  0.6344115978925657  0.2493319703622845  1.0000
  C   C54       1.0  0.9965432667763636  0.3655881992411523  0.750679952253165  1.0000
  C   C55       1.0  0.9849262656599365  0.7412985323202576  0.22846404590774222  1.0000
  C   C56       1.0  0.01508321558606701  0.2586978144169834  0.7715406630475029  1.0000
  C   C57       1.0  0.01600583986118663  0.7546823047137465  0.13389521853280675  1.0000
  C   C58       1.0  0.9840027216880497  0.24531568883678997  0.8661098744994291  1.0000
  C   C59       1.0  0.9863714940096454  0.8513073283239264  0.11185042579281661  1.0000
  C   C60       1.0  0.013644845319838296  0.14869561204267967  0.8881629642673872  1.0000
  C   C61       1.0  0.8989337426569007  0.9232139699934905  0.27193651571806043  1.0000
  C   C62       1.0  0.10109292837269379  0.0767881256456988  0.728081400955908  1.0000
  C   C63       1.0  0.9267912983838755  0.8291441848600768  0.29932127364709515  1.0000
  C   C64       1.0  0.0732457181954587  0.1708586321271497  0.7006963031239691  1.0000
  N   N1        1.0  0.4585834961680602  0.39515812671443473  0.36522738591006026  1.0000
  N   N2        1.0  0.5413873425195206  0.604835071473758  0.6347613765860984  1.0000
  N   N3        1.0  0.2461557621427275  0.039065183680101305  0.42562403194288123  1.0000
  N   N4        1.0  0.7538568350528151  0.9609228212384476  0.5743700186136633  1.0000
  N   N5        1.0  0.8573721409344869  0.234149808975701  0.17710875760612055  1.0000
  N   N6        1.0  0.1426183071499665  0.7658589355260402  0.822894511578461  1.0000
  N   N7        1.0  0.9274655920049  0.9343424519034541  0.17920194280096524  1.0000
  N   N8        1.0  0.07253870854530219  0.0656564643820161  0.8208081193125948  1.0000
  O   O1        1.0  0.7330266403887009  0.1379655264848125  0.3488589583742083  1.0000
  O   O2        1.0  0.26697060596494276  0.8620380593423105  0.6511299276533222  1.0000
  O   O3        1.0  0.6396806660463027  0.0586447093128015  0.15773816203709154  1.0000
  O   O4        1.0  0.36031938654666357  0.9413523909423203  0.8422559925658675  1.0000
  O   O5        1.0  0.24763578257267937  0.9775122276459596  0.03927827065169948  1.0000
  O   O6        1.0  0.7523646692362786  0.022490474297413195  0.9607077883087455  1.0000
  O   O7        1.0  0.0877835589778257  0.0959410934322449  0.1141842913646656  1.0000
  O   O8        1.0  0.9122268759968504  0.9040633873606294  0.8858186222080489  1.0000
  O   O9        1.0  0.5217984384970434  0.3833856785500132  0.542073812580888  1.0000
  O   O10       1.0  0.4781554385597173  0.616607714954071  0.45791832576911407  1.0000
  O   O11       1.0  0.1504473412444085  0.20559365962079568  0.48078955626723285  1.0000
  O   O12       1.0  0.8495704901285848  0.7943968793354728  0.519213883665202  1.0000
