data_image0
_chemical_formula_structural       Li2H24C18N2O6
_chemical_formula_sum              "Li2 H24 C18 N2 O6"
_cell_length_a       5.404287268294172
_cell_length_b       7.475657696662312
_cell_length_c       11.765350966048711
_cell_angle_alpha    90.24932893862038
_cell_angle_beta     88.60581462577736
_cell_angle_gamma    79.52585921473312

_space_group_name_H-M_alt    "P 1"
_space_group_IT_number       1

loop_
  _space_group_symop_operation_xyz
  'x, y, z'

loop_
  _atom_site_type_symbol
  _atom_site_label
  _atom_site_symmetry_multiplicity
  _atom_site_fract_x
  _atom_site_fract_y
  _atom_site_fract_z
  _atom_site_occupancy
  Li  Li1       1.0  0.3446866317078232  0.9572765424579756  0.41794436454522826  1.0000
  Li  Li2       1.0  0.6553155224972613  0.042724194719689  0.5820547779899529  1.0000
  H   H1        1.0  0.6719194704929237  0.7552990801196982  0.733425799214885  1.0000
  H   H2        1.0  0.3280797339812622  0.24470599035500132  0.2665775387277236  1.0000
  H   H3        1.0  0.6772851427662799  0.672480104665617  0.9594491789711841  1.0000
  H   H4        1.0  0.32269573054124107  0.3275249615249082  0.04055959667586961  1.0000
  H   H5        1.0  0.1904046104820624  0.772839318688902  0.037775860396685304  1.0000
  H   H6        1.0  0.8095627706431472  0.22716592001516742  0.9622195421035544  1.0000
  H   H7        1.0  0.9183500128117003  0.905608974508496  0.8549778354113544  1.0000
  H   H8        1.0  0.0816368879129712  0.09439225104375738  0.1450130627841801  1.0000
  H   H9        1.0  0.6573702104538413  0.6357957754578933  0.48481909146196506  1.0000
  H   H10       1.0  0.3426161440049924  0.3642018656636806  0.5151795671022157  1.0000
  H   H11       1.0  0.5833861373936813  0.4730016446765363  0.3849936157053549  1.0000
  H   H12       1.0  0.4166167470345102  0.5269961408738908  0.6150021867189112  1.0000
  H   H13       1.0  0.05205384249019574  0.6460111276648559  0.3873980804834503  1.0000
  H   H14       1.0  0.9479376457861404  0.3539953349088166  0.6126079138831672  1.0000
  H   H15       1.0  0.02143719003507272  0.42447425801584865  0.3421043589042513  1.0000
  H   H16       1.0  0.9785725147523152  0.5755274414583199  0.6579065334754689  1.0000
  H   H17       1.0  0.9972826825252312  0.7515066854332987  0.2041770310313282  1.0000
  H   H18       1.0  0.0027465795218190934  0.2484838205377642  0.7958244374118095  1.0000
  H   H19       1.0  0.9467675905976592  0.5363235841467073  0.15419495127168406  1.0000
  H   H20       1.0  0.05325293747628737  0.4636657367292754  0.8458118113725847  1.0000
  H   H21       1.0  0.5065092869040982  0.6154388284023468  0.1766045366539402  1.0000
  H   H22       1.0  0.4935152590719626  0.3845605669613761  0.823388278558376  1.0000
  H   H23       1.0  0.5551758277728284  0.8467634245197572  0.17293241417744554  1.0000
  H   H24       1.0  0.44485763837261777  0.153237975948791  0.8270669939659572  1.0000
  C   C1        1.0  0.5198823580139518  0.7702552642219515  0.7962170551473235  1.0000
  C   C2        1.0  0.4801084886594111  0.22973984784850635  0.20378328914733154  1.0000
  C   C3        1.0  0.5154762765922668  0.7316335728642828  0.9105158370209382  1.0000
  C   C4        1.0  0.4845005205722117  0.2683654247845766  0.08948551228917273  1.0000
  C   C5        1.0  0.26061208627310617  0.7834409580225028  0.9514710884332659  1.0000
  C   C6        1.0  0.739375730870947  0.21655813591225123  0.0485283567835708  1.0000
  C   C7        1.0  0.11723306781235009  0.8514327872217606  0.8610200010999522  1.0000
  C   C8        1.0  0.8827572940518494  0.14856327351320425  0.13897437152230202  1.0000
  C   C9        1.0  0.19678738888806177  0.8986753289195872  0.6538410547768978  1.0000
  C   C10       1.0  0.8031960025401403  0.10132658692689489  0.3461609501138271  1.0000
  C   C11       1.0  0.6678691806525806  0.595416713544175  0.39502746559202967  1.0000
  C   C12       1.0  0.3321304797922905  0.4045799350541158  0.6049726789867337  1.0000
  C   C13       1.0  0.9323153325543603  0.5683595439246929  0.34119882937478263  1.0000
  C   C14       1.0  0.06769250453705672  0.4316420028335344  0.6588103991651126  1.0000
  C   C15       1.0  0.8896984767995164  0.6424946270291088  0.2191691946486927  1.0000
  C   C16       1.0  0.11033186952147386  0.35749874899664047  0.7808338814216925  1.0000
  C   C17       1.0  0.6051117056793842  0.7157589346099158  0.21590300866292728  1.0000
  C   C18       1.0  0.39490401546443366  0.28424622172151703  0.784096624058904  1.0000
  N   N1        1.0  0.2757745187422529  0.8428193650890209  0.7658033236320636  1.0000
  N   N2        1.0  0.7242195386146977  0.15717682536144653  0.23419182942723182  1.0000
  O   O1        1.0  0.9641537070169977  0.9391897072664646  0.6408456229364035  1.0000
  O   O2        1.0  0.03584988551284599  0.0608197216477961  0.3591600749641942  1.0000
  O   O3        1.0  0.37235578878177467  0.8993012635008242  0.5798805105165599  1.0000
  O   O4        1.0  0.627639653700996  0.1007033843977538  0.4201178015846524  1.0000
  O   O5        1.0  0.5208073210207546  0.7427496353502434  0.3334400826213085  1.0000
  O   O6        1.0  0.47919582436012587  0.2572535618772349  0.6665547239750111  1.0000
