data_image0
_chemical_formula_structural       Zn8H40C24N48O4
_chemical_formula_sum              "Zn8 H40 C24 N48 O4"
_cell_length_a       10.19071308
_cell_length_b       11.611525575116223
_cell_length_c       15.86
_cell_angle_alpha    105.75421574192964
_cell_angle_beta     90.0
_cell_angle_gamma    90.0

_space_group_name_H-M_alt    "P 1"
_space_group_IT_number       1

loop_
  _space_group_symop_operation_xyz
  'x, y, z'

loop_
  _atom_site_type_symbol
  _atom_site_label
  _atom_site_symmetry_multiplicity
  _atom_site_fract_x
  _atom_site_fract_y
  _atom_site_fract_z
  _atom_site_occupancy
  Zn  Zn1       1.0  0.2870829525896141  0.6274940146337755  0.8247027288887311  1.0000
  Zn  Zn2       1.0  0.7870823108288292  0.3725022579634042  0.6752952691419266  1.0000
  Zn  Zn3       1.0  0.712916745174418  0.3725040476178591  0.17529688592452428  1.0000
  Zn  Zn4       1.0  0.2129144430784038  0.627500278424371  0.32470208245759113  1.0000
  Zn  Zn5       1.0  0.2625920265826949  0.8515694905615873  0.7149495000071796  1.0000
  Zn  Zn6       1.0  0.7625933473931141  0.1484232027266827  0.7850509391114926  1.0000
  Zn  Zn7       1.0  0.7374066898957352  0.1484321509989641  0.2850527178542492  1.0000
  Zn  Zn8       1.0  0.2374053690853231  0.851572175043266  0.2149456200108375  1.0000
  H   H1        1.0  0.2903378769250935  0.8861724594853087  0.9392207103481027  1.0000
  H   H2        1.0  0.7903411603067099  0.11383365621138347  0.5607817663676755  1.0000
  H   H3        1.0  0.7096559331253403  0.113825602766326  0.0607807960162248  1.0000
  H   H4        1.0  0.2096614813141215  0.8861796181031423  0.4392233943763557  1.0000
  H   H5        1.0  0.3206586206821171  0.949652397897985  0.05392188705908296  1.0000
  H   H6        1.0  0.8206609227781314  0.05035103331702119  0.4460794255168495  1.0000
  H   H7        1.0  0.6793361706539187  0.0503402953902778  0.9460835961957841  1.0000
  H   H8        1.0  0.1793407375570979  0.9496568720341259  0.5539221459134397  1.0000
  H   H9        1.0  0.1576906333624279  0.9230840826584127  0.01506874300339694  1.0000
  H   H10       1.0  0.6576929354584493  0.076927402001651  0.48493417044101506  1.0000
  H   H11       1.0  0.8423012141168016  0.07690145201203079  0.9849397308764339  1.0000
  H   H12       1.0  0.3423047997343858  0.923096610239611  0.5150655585900381  1.0000
  H   H13       1.0  0.9871693885429238  0.3432253007033452  0.8252763352153494  1.0000
  H   H14       1.0  0.4871729741605079  0.6567718667210656  0.674715535519347  1.0000
  H   H15       1.0  0.0128254027931121  0.6567718667210656  0.17472184068958538  1.0000
  H   H16       1.0  0.5128267236035242  0.343228880012262  0.3252827213656673  1.0000
  H   H17       1.0  0.1235772207610779  0.43059086232473476  0.8755086121069765  1.0000
  H   H18       1.0  0.6235795228570993  0.5694009361363044  0.6244834524161078  1.0000
  H   H19       1.0  0.8764175705749508  0.5694027257907592  0.1244875912667993  1.0000
  H   H20       1.0  0.3764182123357358  0.4305998105970232  0.3755148044689065  1.0000
  H   H21       1.0  0.1440507635212498  0.32801144816542654  0.7716398847524104  1.0000
  H   H22       1.0  0.6440560094740704  0.6719776658139195  0.7283522766648787  1.0000
  H   H23       1.0  0.855945009100381  0.6719749813322409  0.22835930924633632  1.0000
  H   H24       1.0  0.3559436882899689  0.32802397574662473  0.2716455275773839  1.0000
  H   H25       1.0  0.3290554815620439  0.0911963169863341  0.8613518903348165  1.0000
  H   H26       1.0  0.8290597462292624  0.9087990607836147  0.6386547570599035  1.0000
  H   H27       1.0  0.6709491226299917  0.9088080090558961  0.13864707804729906  1.0000
  H   H28       1.0  0.1709409328203719  0.0911963169863341  0.3613544124029104  1.0000
  H   H29       1.0  0.4305734020332181  0.2130091475937093  0.8525835699402791  1.0000
  H   H30       1.0  0.9305747228436375  0.7869871250034706  0.6474226248116963  1.0000
  H   H31       1.0  0.569438071158018  0.7869924939668422  0.1474129732679401  1.0000
  H   H32       1.0  0.0694210497780006  0.21300646311202337  0.3525861889025705  1.0000
  H   H33       1.0  0.49020318409357344  0.10895953229807277  0.9069301613552838  1.0000
  H   H34       1.0  0.9902084300463869  0.8910340558174212  0.5930786523589759  1.0000
  H   H35       1.0  0.5098073078120677  0.8910394247807928  0.09306332616200311  1.0000
  H   H36       1.0  0.0097951928600466  0.1089649012614444  0.406938794805228  1.0000
  H   H37       1.0  0.4340108454903131  0.7875186523771658  0.8013529983986984  1.0000
  H   H38       1.0  0.9340141288719296  0.2124794098744687  0.6986478774486001  1.0000
  H   H39       1.0  0.5659908148449233  0.2124776202200138  0.198643108080887  1.0000
  H   H40       1.0  0.0659855688921027  0.7875284954766784  0.3013549550157322  1.0000
  C   C1        1.0  0.2610190257657621  0.7660159540777798  0.01828864172653509  1.0000
  C   C2        1.0  0.7610095524345795  0.23398747713722656  0.48170951826427444  1.0000
  C   C3        1.0  0.7389924474254741  0.2339740547287974  0.9817137858374068  1.0000
  C   C4        1.0  0.2389940704718541  0.7660240075228372  0.5182870900098989  1.0000
  C   C5        1.0  0.2583754423591316  0.8879818001412119  0.005516059396796912  1.0000
  C   C6        1.0  0.7583777444551529  0.1120216310737945  0.4944846226621138  1.0000
  C   C7        1.0  0.7416193489769043  0.11200999831982018  0.9944923985689158  1.0000
  C   C8        1.0  0.2416268597368827  0.8879916432407241  0.5055129718776357  1.0000
  C   C9        1.0  0.036813910572782  0.486500562384819  0.7707131691682321  1.0000
  C   C10       1.0  0.5368132688119971  0.5134939205579059  0.7292806900117341  1.0000
  C   C11       1.0  0.9631867684768524  0.5134930257306749  0.22928492575662318  1.0000
  C   C12       1.0  0.46318544766643294  0.48650861582987653  0.2707179226218273  1.0000
  C   C13       1.0  0.0741743972248088  0.3913025780329064  0.8126723824502662  1.0000
  C   C14       1.0  0.5741796431776294  0.6086883256009087  0.6873195041985483  1.0000
  C   C15       1.0  0.9258213753968222  0.6086892204281326  0.18732661776008538  1.0000
  C   C16       1.0  0.4258171107296036  0.3913142107868737  0.3126784779179914  1.0000
  C   C17       1.0  0.4836472149994009  0.0445910304475632  0.7672894298897077  1.0000
  C   C18       1.0  0.9836504983810244  0.9554061369768476  0.7327131596343932  1.0000
  C   C19       1.0  0.5163534640502334  0.9554115059402193  0.2327022470565865  1.0000
  C   C20       1.0  0.0163501806686099  0.044592820102018  0.2672954602914785  1.0000
  C   C21       1.0  0.4298639325443574  0.1180384493578117  0.8517317211697628  1.0000
  C   C22       1.0  0.9298662346403717  0.8819551387576822  0.6482745704764028  1.0000
  C   C23       1.0  0.5701436155044775  0.8819649818571946  0.1482645472699815  1.0000
  C   C24       1.0  0.0701315005524634  0.1180402390122737  0.3517390126055772  1.0000
  N   N1        1.0  0.2677408321263428  0.6620495577143969  0.9554411827631668  1.0000
  N   N2        1.0  0.7677509845071597  0.3379529786733854  0.5445567993533658  1.0000
  N   N3        1.0  0.7322569030664923  0.337944030401097  0.0445543900935874  1.0000
  N   N4        1.0  0.23225852611287223  0.6620567163322234  0.45544260575737633  1.0000
  N   N5        1.0  0.2572263569214357  0.5723816056342272  0.9955999112748302  1.0000
  N   N6        1.0  0.7572325841598513  0.4276209307535481  0.504396809807659  1.0000
  N   N7        1.0  0.7427713782713994  0.42761287730849057  0.0043952089391793925  1.0000
  N   N8        1.0  0.2427700574609872  0.572385184943144  0.49559999225490964  1.0000
  N   N9        1.0  0.246317404905291  0.6194584661223956  0.0794458970873535  1.0000
  N   N10       1.0  0.7463236321437066  0.38054138578370095  0.42055092088933316  1.0000
  N   N11       1.0  0.7536773864307449  0.3805306478569577  0.9205494169150512  1.0000
  N   N12       1.0  0.2536760656203256  0.6194620454313053  0.5794453475504042  1.0000
  N   N13       1.0  0.24933682069675459  0.7406959228218781  0.0956243636849692  1.0000
  N   N14       1.0  0.7493489356487686  0.2593021394297566  0.4043714680261417  1.0000
  N   N15       1.0  0.750653064211285  0.2592940859847062  0.9043742807768282  1.0000
  N   N16       1.0  0.250655668543267  0.7407021866124737  0.5956249782878729  1.0000
  N   N17       1.0  0.10853705636858281  0.5847338006956021  0.7749890834868225  1.0000
  N   N18       1.0  0.6085334707509986  0.4152588925926679  0.7250044199445894  1.0000
  N   N19       1.0  0.8914665665378506  0.41525620811098196  0.22500766942390982  1.0000
  N   N20       1.0  0.3914632831562344  0.5847427489678836  0.2749927537806514  1.0000
  N   N21       1.0  0.0419205208356246  0.6521590323584617  0.7315930450791442  1.0000
  N   N22       1.0  0.5419198790748396  0.347838135065949  0.7684051308257906  1.0000
  N   N23       1.0  0.9580811394996118  0.3478363454114941  0.2684079276623592  1.0000
  N   N24       1.0  0.45807785611799556  0.6521626116673716  0.23159249554219485  1.0000
  N   N25       1.0  0.9338070776103109  0.5973329680720169  0.7010723679143709  1.0000
  N   N26       1.0  0.43380870065669797  0.40266956831575834  0.7989268752362123  1.0000
  N   N27       1.0  0.0661936014393234  0.4026668838340797  0.2989282331644604  1.0000
  N   N28       1.0  0.5661909971073413  0.597332073244786  0.2010728205571226  1.0000
  N   N29       1.0  0.9278663745874027  0.49255496341243793  0.7241512188494212  1.0000
  N   N30       1.0  0.4278650537769834  0.5074457833208825  0.7758445159674919  1.0000
  N   N31       1.0  0.0721372483190379  0.5074422040119728  0.2758450655044413  1.0000
  N   N32       1.0  0.5721356252726508  0.49255675306689267  0.22415535770011988  1.0000
  N   N33       1.0  0.4190776412282204  0.959287002666585  0.7072355461429254  1.0000
  N   N34       1.0  0.9190848497522381  0.04071016475781869  0.792768304415219  1.0000
  N   N35       1.0  0.5809161688222133  0.0407128492395046  0.2927593802826891  1.0000
  N   N36       1.0  0.0809197544397975  0.9592905819755015  0.2072406712591999  1.0000
  N   N37       1.0  0.502886300474664  0.9169572006252905  0.6386957306509018  1.0000
  N   N38       1.0  0.0028938112346495  0.0830489150714016  0.8613092681329774  1.0000
  N   N39       1.0  0.49710554700456555  0.08304354610802989  0.3613018957170836  1.0000
  N   N40       1.0  0.9971117742429882  0.9169661488975719  0.13869435680853567  1.0000
  N   N41       1.0  0.6134605057490248  0.9737277244791329  0.6560468126012822  1.0000
  N   N42       1.0  0.1134660539378061  0.0262748119086496  0.8439574746854959  1.0000
  N   N43       1.0  0.3865352668726132  0.0262694429452779  0.3439450581334071  1.0000
  N   N44       1.0  0.8865395315398316  0.973738462405869  0.156048947092593  1.0000
  N   N45       1.0  0.6048772006050811  0.05395629222039838  0.7362878842516736  1.0000
  N   N46       1.0  0.1048758797946618  0.9460399803767812  0.763717679983273  1.0000
  N   N47       1.0  0.3951264223013524  0.9460444545129221  0.263704697980117  1.0000
  N   N48       1.0  0.8951218553981732  0.05395629222039838  0.23629292838786847  1.0000
  O   O1        1.0  0.3393285605093297  0.7794553642217039  0.8023977142854478  1.0000
  O   O2        1.0  0.8393318438909461  0.22054627733884755  0.6976057646100315  1.0000
  O   O3        1.0  0.6606721185403046  0.2205426980299308  0.1976006394937642  1.0000
  O   O4        1.0  0.160666872587484  0.7794589435306134  0.3023952731974333  1.0000
