data_image0
_chemical_formula_structural       Gd4H32C36N4O28
_chemical_formula_sum              "Gd4 H32 C36 N4 O28"
_cell_length_a       8.869715989831896
_cell_length_b       9.095341061054507
_cell_length_c       18.215773705918913
_cell_angle_alpha    79.95998244372853
_cell_angle_beta     75.89787825541875
_cell_angle_gamma    60.80829000332502

_space_group_name_H-M_alt    "P 1"
_space_group_IT_number       1

loop_
  _space_group_symop_operation_xyz
  'x, y, z'

loop_
  _atom_site_type_symbol
  _atom_site_label
  _atom_site_symmetry_multiplicity
  _atom_site_fract_x
  _atom_site_fract_y
  _atom_site_fract_z
  _atom_site_occupancy
  Gd  Gd1       1.0  0.8191349452387799  0.4464799856753317  0.06987599760846296  1.0000
  Gd  Gd2       1.0  0.33533073896754234  0.05347033720828159  0.4302271475689494  1.0000
  Gd  Gd3       1.0  0.18086371109884444  0.5535210881809576  0.9301232569307344  1.0000
  Gd  Gd4       1.0  0.6646668706121089  0.946529465431631  0.5697737877154266  1.0000
  H   H1        1.0  0.622502985599212  0.6376809003144005  0.3303276658458145  1.0000
  H   H2        1.0  0.5903738997294996  0.8624531137460778  0.16985198625567924  1.0000
  H   H3        1.0  0.3775002767545672  0.36232271033026114  0.6696691980531853  1.0000
  H   H4        1.0  0.40963127216200246  0.13754794404893292  0.8301500399923186  1.0000
  H   H5        1.0  0.9536083674367509  0.385373945103872  0.4983004339772846  1.0000
  H   H6        1.0  0.837401787247295  0.11456132381218251  0.0018572208308283455  1.0000
  H   H7        1.0  0.046386814375878674  0.614625870109869  0.5016982929650453  1.0000
  H   H8        1.0  0.16260399790607488  0.8854384718528293  0.998144841187063  1.0000
  H   H9        1.0  0.8238055849171245  0.5802856863451425  0.7918497516604288  1.0000
  H   H10       1.0  0.19604891441026948  0.9192496024327994  0.708314829040205  1.0000
  H   H11       1.0  0.176194706629076  0.41971412450928364  0.20814967949034724  1.0000
  H   H12       1.0  0.8039534814204646  0.08074263348472499  0.2916852242133387  1.0000
  H   H13       1.0  0.7825292048716154  0.40310262623459886  0.8104470576260425  1.0000
  H   H14       1.0  0.9961713748554007  0.0964009077182837  0.6897212728696188  1.0000
  H   H15       1.0  0.217470064727877  0.5968971854916916  0.1895522326830488  1.0000
  H   H16       1.0  0.0038288076155411806  0.9035913160840678  0.3102809736843001  1.0000
  H   H17       1.0  0.0029224698056111997  0.3754492238093193  0.7965516978013696  1.0000
  H   H18       1.0  0.17491439814333626  0.1240972834322847  0.7036777772691067  1.0000
  H   H19       1.0  0.9970779663956935  0.6245493288157745  0.20344707995251793  1.0000
  H   H20       1.0  0.8250857843276128  0.8758949403700669  0.29632446928481215  1.0000
  H   H21       1.0  0.09054017623316211  0.16041900280521298  0.29609768402228553  1.0000
  H   H22       1.0  0.5470059780081726  0.3396055369872996  0.20405650664588382  1.0000
  H   H23       1.0  0.9094545720833556  0.8395782790621595  0.7039027594351166  1.0000
  H   H24       1.0  0.4529938795727446  0.6603980485551517  0.7959448846955725  1.0000
  H   H25       1.0  0.48465019438807383  0.7216585300111475  0.08160329391915862  1.0000
  H   H26       1.0  0.28754227581875136  0.7783461428076706  0.4185014377664231  1.0000
  H   H27       1.0  0.5153488107124888  0.2783450702620698  0.9183954815968461  1.0000
  H   H28       1.0  0.71245717354649  0.22164987344225304  0.581499604827627  1.0000
  H   H29       1.0  0.4143823878861781  0.5929044097931566  0.07396183945299833  1.0000
  H   H30       1.0  0.08093535439374483  0.9074024344790103  0.42597098437492786  1.0000
  H   H31       1.0  0.58561778381619  0.40709793137885697  0.9260364235078028  1.0000
  H   H32       1.0  0.919063481709635  0.09259484390091191  0.5740300224492287  1.0000
  C   C1        1.0  0.7342929248410287  0.529993290771415  0.35101204617538423  1.0000
  C   C2        1.0  0.6152312681846013  0.9701045331945866  0.14915523805781555  1.0000
  C   C3        1.0  0.26570937548795104  0.470009055586317  0.6489852609769144  1.0000
  C   C4        1.0  0.3847713064735245  0.029896523315358105  0.8508470548318954  1.0000
  C   C5        1.0  0.9198466360821702  0.3896720445837545  0.44405537774887427  1.0000
  C   C6        1.0  0.7536589447786215  0.11028656873241968  0.0561047865736838  1.0000
  C   C7        1.0  0.080151083041919  0.6103290370738533  0.5559424984567514  1.0000
  C   C8        1.0  0.24634342577167692  0.8897107031312571  0.9438973319423314  1.0000
  C   C9        1.0  0.7675642499893343  0.5247161435885274  0.42279376406610675  1.0000
  C   C10       1.0  0.7150818720675929  0.9753053083046553  0.07737652579358201  1.0000
  C   C11       1.0  0.23243621055405564  0.47528998915919374  0.577203435776518  1.0000
  C   C12       1.0  0.2849218092704294  0.0246957542628721  0.9226246704459412  1.0000
  C   C13       1.0  0.6505995079234523  0.6691203221773633  0.47271280499317914  1.0000
  C   C14       1.0  0.7923343149494715  0.830942291952134  0.027439164789654916  1.0000
  C   C15       1.0  0.3494027076723542  0.3308820172509215  0.5272857396509991  1.0000
  C   C16       1.0  0.20766075684954188  0.1690625522783193  0.9725628649070259  1.0000
  C   C17       1.0  0.8643086058107982  0.4538388500569964  0.8207852027064746  1.0000
  C   C18       1.0  0.13901985859070015  0.045719570412366295  0.6793979071137812  1.0000
  C   C19       1.0  0.13569387428393764  0.5461597008243686  0.1792138567307902  1.0000
  C   C20       1.0  0.8609797953515539  0.9542739224494242  0.3206030661783642  1.0000
  C   C21       1.0  0.851944285948207  0.3984669283136739  0.30417600893238006  1.0000
  C   C22       1.0  0.5544912521436344  0.10163688518932192  0.1959851587507656  1.0000
  C   C23       1.0  0.14805500846254935  0.6015341555008575  0.6958214597898407  1.0000
  C   C24       1.0  0.44551193577635956  0.8983629091906237  0.804017169908839  1.0000
  C   C25       1.0  0.9973335638956303  0.26548290734171337  0.33126713075503017  1.0000
  C   C26       1.0  0.5940759304846639  0.2345454879828779  0.168881217712986  1.0000
  C   C27       1.0  0.002663253125575767  0.7345156448701714  0.6687317727988784  1.0000
  C   C28       1.0  0.40592783558653867  0.7654555815140965  0.8311187410346578  1.0000
  C   C29       1.0  0.8466672211331885  0.46421984699982494  0.9039743918828692  1.0000
  C   C30       1.0  0.21504934823079225  0.03546642522042729  0.5961973238106424  1.0000
  C   C31       1.0  0.15333423701483187  0.5357787047534044  0.09602452671271071  1.0000
  C   C32       1.0  0.7849488746107199  0.9645321152894936  0.4038036472436274  1.0000
  C   C33       1.0  0.8309386312897974  0.40700009230005196  0.2242728787963627  1.0000
  C   C34       1.0  0.4619267052036309  0.0932153053268934  0.27585057384580836  1.0000
  C   C35       1.0  0.1690599056731726  0.5929972038394241  0.7757249638772522  1.0000
  C   C36       1.0  0.5380727436924317  0.906787018957431  0.7241507124238495  1.0000
  N   N1        1.0  0.032347653645217536  0.2621571728024962  0.3995312876818958  1.0000
  N   N2        1.0  0.6941306578976026  0.23779078715363508  0.10062348589386247  1.0000
  N   N3        1.0  0.967651880453211  0.7378388503768816  0.6004685174202748  1.0000
  N   N4        1.0  0.30587156799759196  0.7622077429393811  0.899379286019041  1.0000
  O   O1        1.0  0.7298959590896313  0.4378872122540757  0.9526573767395236  1.0000
  O   O2        1.0  0.12072888753785793  0.06151948348659179  0.5475252379393468  1.0000
  O   O3        1.0  0.27010713426697214  0.562110076497291  0.04734171846763496  1.0000
  O   O4        1.0  0.8792701526733567  0.938481579539591  0.4524759432585127  1.0000
  O   O5        1.0  0.7277853211656691  0.5493807244794268  0.19533191862267768  1.0000
  O   O6        1.0  0.4719697213885967  0.9509023949279864  0.30477512307753324  1.0000
  O   O7        1.0  0.27221169996337835  0.4506216123787183  0.804667159304934  1.0000
  O   O8        1.0  0.5280259037503615  0.0491024523312618  0.6952263582940573  1.0000
  O   O9        1.0  0.4999447285216406  0.6072563668167278  0.09558763275705211  1.0000
  O   O10       1.0  0.20263795149780603  0.892802214141838  0.40445607403387385  1.0000
  O   O11       1.0  0.5000548299188663  0.3927472364852774  0.9044105944338625  1.0000
  O   O12       1.0  0.7973635417608664  0.1071938003643567  0.5955452502435604  1.0000
  O   O13       1.0  0.49361499808722453  0.7590646964294051  0.46122304024622446  1.0000
  O   O14       1.0  0.7137819874813264  0.7410152240342002  0.03900563097776191  1.0000
  O   O15       1.0  0.506387217508575  0.24093764299887965  0.5387755043979608  1.0000
  O   O16       1.0  0.286217546147917  0.25898710717957135  0.9609944178000162  1.0000
  O   O17       1.0  0.9194075530747343  0.27593782346727386  0.18623623621691354  1.0000
  O   O18       1.0  0.381397627394094  0.2242402457675681  0.31390388909193934  1.0000
  O   O19       1.0  0.08059049047020754  0.7240582044846208  0.8137627388767896  1.0000
  O   O20       1.0  0.6186033719773719  0.7757608085854458  0.6860988112811768  1.0000
  O   O21       1.0  0.718330601670374  0.6948350430647849  0.519892882688694  1.0000
  O   O22       1.0  0.9328970919948392  0.8051874227089186  0.9801750101464889  1.0000
  O   O23       1.0  0.2816765443624332  0.3051647794461659  0.48010437020336383  1.0000
  O   O24       1.0  0.06710419668682022  0.19481111518540933  0.019826383432842893  1.0000
  O   O25       1.0  0.949989573227775  0.49747857944249313  0.9278162608742306  1.0000
  O   O26       1.0  0.3753595761158693  0.0026369566982537996  0.5723488443479495  1.0000
  O   O27       1.0  0.05001010505657181  0.5025224935419388  0.07218313450665191  1.0000
  O   O28       1.0  0.6246394640953455  0.9973641063279359  0.4276523368499099  1.0000
