data_image0
_chemical_formula_structural       La2H20C18O22F24
_chemical_formula_sum              "La2 H20 C18 O22 F24"
_cell_length_a       9.719193474988348
_cell_length_b       10.48540355578995
_cell_length_c       10.806233924175856
_cell_angle_alpha    84.54643830112516
_cell_angle_beta     87.93971470298531
_cell_angle_gamma    69.727365810914

_space_group_name_H-M_alt    "P 1"
_space_group_IT_number       1

loop_
  _space_group_symop_operation_xyz
  'x, y, z'

loop_
  _atom_site_type_symbol
  _atom_site_label
  _atom_site_symmetry_multiplicity
  _atom_site_fract_x
  _atom_site_fract_y
  _atom_site_fract_z
  _atom_site_occupancy
  La  La1       1.0  0.38817515184764073  0.2788102964868742  0.47028694804490084  1.0000
  La  La2       1.0  0.611825836125199  0.7211862115112525  0.5297150216816744  1.0000
  H   H1        1.0  0.4298536639346438  0.1871090272947384  0.7488513895806289  1.0000
  H   H2        1.0  0.570146969819803  0.812888511499018  0.2511477235614308  1.0000
  H   H3        1.0  0.2696535434272605  0.18127118028962036  0.7437940182556344  1.0000
  H   H4        1.0  0.7303474445455791  0.8187253277085061  0.2562079514709409  1.0000
  H   H5        1.0  0.6110171477186697  0.15785960924014827  0.2659101913492349  1.0000
  H   H6        1.0  0.3889788844295554  0.8421420187393379  0.7340905357009575  1.0000
  H   H7        1.0  0.568594093634083  0.026100156464615096  0.3031851563645417  1.0000
  H   H8        1.0  0.43140334345174136  0.9739004464086205  0.6968156236601288  1.0000
  H   H9        1.0  0.06490624119312129  0.3702405346614412  0.611970312735984  1.0000
  H   H10       1.0  0.9350936515495079  0.6297590487949307  0.3880277166531341  1.0000
  H   H11       1.0  0.05412553466634053  0.3487324179291775  0.47034223493653105  1.0000
  H   H12       1.0  0.9458732302710615  0.6512702240567806  0.5296564835311981  1.0000
  H   H13       1.0  0.358106190641479  0.5823778976522435  0.4019354897362957  1.0000
  H   H14       1.0  0.6418880628057338  0.41762577607192963  0.5980651054045436  1.0000
  H   H15       1.0  0.20260701983499282  0.582850055001984  0.36162140957630123  1.0000
  H   H16       1.0  0.7973907074132144  0.4171525880660454  0.638378260735031  1.0000
  H   H17       1.0  0.16765155381512642  0.44085678728851013  0.246856321196013  1.0000
  H   H18       1.0  0.8323493505566906  0.5591427815428531  0.7531444598823568  1.0000
  H   H19       1.0  0.24342266212278937  0.29101831301588993  0.20424348771516063  1.0000
  H   H20       1.0  0.7565834241800077  0.708981247019338  0.7957534600284146  1.0000
  C   C1        1.0  0.392638746031196  0.5312723294133336  0.6731198720745153  1.0000
  C   C2        1.0  0.6073504299943694  0.46874260965879694  0.32687062191102706  1.0000
  C   C3        1.0  0.2542888101139837  0.5508155009275556  0.7577813196972086  1.0000
  C   C4        1.0  0.7457081630924094  0.449189180031624  0.24221911862760237  1.0000
  C   C5        1.0  0.25072647356281413  0.6351094167978532  0.8705834841967144  1.0000
  C   C6        1.0  0.7492707702609495  0.3648972941989257  0.12941862206440644  1.0000
  C   C7        1.0  0.13217148457215444  0.6334624180859478  0.9724620590809534  1.0000
  C   C8        1.0  0.8678294841249681  0.36654528213508547  0.027543567936604087  1.0000
  C   C9        1.0  0.11572666750835485  0.7270928066570478  0.08002882821195098  1.0000
  C   C10       1.0  0.8842817191851895  0.2729087575514911  0.9199743649632306  1.0000
  C   C11       1.0  0.9989702199532932  0.7128555792441489  0.1802514016195502  1.0000
  C   C12       1.0  0.001035769449181573  0.28713583247274954  0.8197453296009058  1.0000
  C   C13       1.0  0.28862420707776004  0.9776399248232434  0.4218130177146619  1.0000
  C   C14       1.0  0.7113779803653346  0.0223535618883588  0.578178078217938  1.0000
  C   C15       1.0  0.13821121195147162  0.008016308415456298  0.3567043477229673  1.0000
  C   C16       1.0  0.8617888154182014  0.9919771364457828  0.6433006883786376  1.0000
  C   C17       1.0  0.019920194277723638  0.9676676774857924  0.4368966889244205  1.0000
  C   C18       1.0  0.9800797234309118  0.03232881466575321  0.5631108620618334  1.0000
  O   O1        1.0  0.4540538239575868  0.4139844225106442  0.6357856197767189  1.0000
  O   O2        1.0  0.5459351585366224  0.5860254223049212  0.3642053208039257  1.0000
  O   O3        1.0  0.4267388891110643  0.6358175761191803  0.6493739330052576  1.0000
  O   O4        1.0  0.5732534955191113  0.3641912007971939  0.3506262674612443  1.0000
  O   O5        1.0  0.8740047293555692  0.7997616081316109  0.16826604352554136  1.0000
  O   O6        1.0  0.12600308352821807  0.20023587907306964  0.831738443193103  1.0000
  O   O7        1.0  0.04562888130782037  0.6136034748841723  0.26435772721131195  1.0000
  O   O8        1.0  0.9543790412369976  0.38639096503020204  0.7356442446226694  1.0000
  O   O9        1.0  0.31577467358032874  0.07833048835497179  0.4538517934747474  1.0000
  O   O10       1.0  0.6842150105663907  0.9216660891034892  0.546144906516801  1.0000
  O   O11       1.0  0.3673603759315896  0.853566497719541  0.4335793547376026  1.0000
  O   O12       1.0  0.6326448268540619  0.14642693495983392  0.5664227739124141  1.0000
  O   O13       1.0  0.3673206881510539  0.1576148368772436  0.6982007871513998  1.0000
  O   O14       1.0  0.6326774258905702  0.842386792323815  0.3017971103283655  1.0000
  O   O15       1.0  0.5315285199900472  0.1274351044840429  0.29810098079805397  1.0000
  O   O16       1.0  0.4684665005289903  0.8725665381204525  0.7018969945628725  1.0000
  O   O17       1.0  0.12053644397371244  0.3583124001664472  0.5311942739704775  1.0000
  O   O18       1.0  0.8794633586528918  0.6416902407374253  0.4688034926536487  1.0000
  O   O19       1.0  0.281747318734638  0.5416830069883574  0.4231671760111978  1.0000
  O   O20       1.0  0.718248706898578  0.4583186176053999  0.576834476922208  1.0000
  O   O21       1.0  0.23893765672043804  0.348803761885499  0.2703745669787877  1.0000
  O   O22       1.0  0.761058845822227  0.65119379139378  0.7296255758880431  1.0000
  F   F1        1.0  0.24827684381477166  0.4262128187111144  0.8034463730647871  1.0000
  F   F2        1.0  0.7517299574398352  0.5737846831185749  0.19655536196459875  1.0000
  F   F3        1.0  0.13195037571421156  0.6153724710974445  0.6857269029875396  1.0000
  F   F4        1.0  0.868044148081083  0.3846220302842269  0.3142744804482688  1.0000
  F   F5        1.0  0.3865744551381242  0.5816109869616851  0.9243228583289065  1.0000
  F   F6        1.0  0.6134255670798369  0.4183967617416826  0.0756707581672416  1.0000
  F   F7        1.0  0.22683697698857241  0.7682724880625926  0.827846128753478  1.0000
  F   F8        1.0  0.7731606927186195  0.23173322938161076  0.17214864937678692  1.0000
  F   F9        1.0  0.16563513362621768  0.5020519850560916  0.02518670978364669  1.0000
  F   F10       1.0  0.8343712298089585  0.49794960840247177  0.9748109800130177  1.0000
  F   F11       1.0  0.9988331381737012  0.6712632260842142  0.9149349470215921  1.0000
  F   F12       1.0  0.0011665026718433735  0.3287424350241038  0.08507274155290649  1.0000
  F   F13       1.0  0.2512069605902099  0.6904409937734286  0.13573465587082717  1.0000
  F   F14       1.0  0.7488079291016021  0.30955139498585993  0.8642626886544914  1.0000
  F   F15       1.0  0.07746134189540049  0.8589781166242715  0.030874240307767302  1.0000
  F   F16       1.0  0.9225497710723262  0.1410244582050026  0.969127870168165  1.0000
  F   F17       1.0  0.07902373039822663  0.1435251890217373  0.31661446751459  1.0000
  F   F18       1.0  0.9209723658060158  0.8564733679673181  0.6833902258334418  1.0000
  F   F19       1.0  0.16095445106883233  0.9363139567516401  0.2533910866414643  1.0000
  F   F20       1.0  0.8390421861008693  0.0636774579325063  0.7466160629378463  1.0000
  F   F21       1.0  0.8940225232472728  0.0056706207502160025  0.3677849865896831  1.0000
  F   F22       1.0  0.10597873534294425  0.99432791728551  0.6322186510732022  1.0000
  F   F23       1.0  0.06968521499232594  0.8287344858596555  0.4599735458972062  1.0000
  F   F24       1.0  0.9303223077290852  0.17126096115023157  0.5400320505347692  1.0000
