data_image0
_chemical_formula_structural       Ni6H30C30O24
_chemical_formula_sum              "Ni6 H30 C30 O24"
_cell_length_a       6.754309647360839
_cell_length_b       15.104043134775562
_cell_length_c       15.104771866350571
_cell_angle_alpha    117.83080632472888
_cell_angle_beta     98.57185022121767
_cell_angle_gamma    98.57342288464453

_space_group_name_H-M_alt    "P 1"
_space_group_IT_number       1

loop_
  _space_group_symop_operation_xyz
  'x, y, z'

loop_
  _atom_site_type_symbol
  _atom_site_label
  _atom_site_symmetry_multiplicity
  _atom_site_fract_x
  _atom_site_fract_y
  _atom_site_fract_z
  _atom_site_occupancy
  Ni  Ni1       1.0  0.19701636047614812  0.7330378870757813  0.32075778969809937  1.0000
  Ni  Ni2       1.0  0.8761689194775357  0.6792510699567772  0.4122954808875576  1.0000
  Ni  Ni3       1.0  0.46394719877557816  0.5876460987354051  0.2669388329677318  1.0000
  Ni  Ni4       1.0  0.8029828151609097  0.26695784689968605  0.679236728142115  1.0000
  Ni  Ni5       1.0  0.12382894036093717  0.32075394341851643  0.5877085841105014  1.0000
  Ni  Ni6       1.0  0.5360449725025873  0.41235350216801697  0.7330643163686831  1.0000
  H   H1        1.0  0.187073161367408  0.5399618739015892  0.5596238576080452  1.0000
  H   H2        1.0  0.6274940513041045  0.44022553536910186  0.9803166733182709  1.0000
  H   H3        1.0  0.6472421486551596  0.0198222010647982  0.45999176087936894  1.0000
  H   H4        1.0  0.8129288161427439  0.460042366511324  0.4403821016742811  1.0000
  H   H5        1.0  0.37249307598907677  0.5597671051619101  0.019672300236713663  1.0000
  H   H6        1.0  0.3527413630246485  0.9801781718429653  0.5400012520210851  1.0000
  H   H7        1.0  0.12824850344540553  0.7554245700364036  0.17113545608928168  1.0000
  H   H8        1.0  0.9562679532180951  0.8290407313061936  0.5841504706629054  1.0000
  H   H9        1.0  0.3722608030577065  0.41566277852113137  0.24461158407616782  1.0000
  H   H10       1.0  0.8717638520366007  0.2445734845405241  0.8288676290902188  1.0000
  H   H11       1.0  0.043743677515806184  0.1709619617577189  0.41584679043536715  1.0000
  H   H12       1.0  0.6277376326986897  0.5843314095844933  0.7553874592269241  1.0000
  H   H13       1.0  0.07171205026880043  0.9481597813890518  0.3208484282243519  1.0000
  H   H14       1.0  0.7509626057111659  0.679417547441723  0.6274468220338747  1.0000
  H   H15       1.0  0.12374267662151783  0.3725220285304544  0.051699682652483044  1.0000
  H   H16       1.0  0.9282894460732932  0.05183749998852961  0.6791549091970452  1.0000
  H   H17       1.0  0.2490442703420186  0.3205905586635255  0.3725566301278533  1.0000
  H   H18       1.0  0.8762659227730367  0.6274775717921557  0.9482979208037962  1.0000
  H   H19       1.0  0.08259732463413623  0.9142080190812721  0.19128005350764724  1.0000
  H   H20       1.0  0.8909211247558133  0.8091567391451379  0.7229297070903655  1.0000
  H   H21       1.0  0.16823706590177068  0.2769826660366093  0.08583185527388078  1.0000
  H   H22       1.0  0.9174198850119879  0.08578771630050851  0.8087262376190553  1.0000
  H   H23       1.0  0.10908652042438399  0.190852913360601  0.2770738560848116  1.0000
  H   H24       1.0  0.8317625005658728  0.7230138412528151  0.914163711603699  1.0000
  H   H25       1.0  0.3089074200348919  0.9310247139851173  0.2840126023448877  1.0000
  H   H26       1.0  0.024948170828672348  0.71655155040056  0.6471842501542258  1.0000
  H   H27       1.0  0.37801616483719164  0.35279529374668794  0.06907883843777547  1.0000
  H   H28       1.0  0.6911068937780981  0.068977207237424  0.7159963903751816  1.0000
  H   H29       1.0  0.9750553115111059  0.28345578220688594  0.3528166323249096  1.0000
  H   H30       1.0  0.6219961781106705  0.6472027606028165  0.9309222596804432  1.0000
  C   C1        1.0  0.3262868747190311  0.5233504382773191  0.5339259915504329  1.0000
  C   C2        1.0  0.7923986054124724  0.4659891195757099  0.9893922770279887  1.0000
  C   C3        1.0  0.8030271959785792  0.0106491332845025  0.4765858220714421  1.0000
  C   C4        1.0  0.6737103105079427  0.47665921449466003  0.4660801976115182  1.0000
  C   C5        1.0  0.20759904868274498  0.534003521902001  0.010604668200379311  1.0000
  C   C6        1.0  0.19694813885057966  0.9893527866093306  0.5234126752131303  1.0000
  C   C7        1.0  0.2527675470066412  0.6114952202388508  0.4351003936817718  1.0000
  C   C8        1.0  0.8175575648377702  0.5648771963711284  0.17638440858413423  1.0000
  C   C9        1.0  0.6411251429750351  0.8236250600252505  0.388458379766803  1.0000
  C   C10       1.0  0.7472341300103906  0.3885144325814738  0.5649060893867601  1.0000
  C   C11       1.0  0.18243929924017263  0.4351138983270388  0.8236091138619912  1.0000
  C   C12       1.0  0.3588655427841018  0.1763776331162745  0.6115401591824609  1.0000
  C   C13       1.0  0.38354779891763974  0.5536766189339418  0.4648855890460838  1.0000
  C   C14       1.0  0.9186828934432685  0.5349990760874804  0.08882132012708882  1.0000
  C   C15       1.0  0.8297369134579355  0.9112218683391905  0.44621330010491544  1.0000
  C   C16       1.0  0.6164759545752361  0.4463322609657681  0.5351226392255201  1.0000
  C   C17       1.0  0.08131061870179217  0.4649912458709622  0.9111762561740308  1.0000
  C   C18       1.0  0.1702598031351314  0.0887808256248803  0.5537922542573881  1.0000
  C   C19       1.0  0.43611782414217976  0.47038747496142  0.5709648740081406  1.0000
  C   C20       1.0  0.865169516799007  0.42908076068443535  0.8993974317997839  1.0000
  C   C21       1.0  0.9659294288669217  0.10062289496656969  0.5297112208238701  1.0000
  C   C22       1.0  0.5638708385722921  0.5296260443433524  0.4290465369123525  1.0000
  C   C23       1.0  0.1348329622139772  0.5709095610674666  0.10059808289946663  1.0000
  C   C24       1.0  0.03404665498882765  0.8993774789219203  0.47029057518491874  1.0000
  C   C25       1.0  0.13954872200359608  0.9041116849523407  0.25735134465466575  1.0000
  C   C26       1.0  0.8819796211629124  0.7430176104513535  0.6468460306754054  1.0000
  C   C27       1.0  0.2354070004924935  0.35311490009778623  0.09585935453684871  1.0000
  C   C28       1.0  0.8604609595452429  0.0958840495907864  0.7426478330901318  1.0000
  C   C29       1.0  0.11801745283633384  0.2569858562202115  0.35315527389417417  1.0000
  C   C30       1.0  0.7645917642135488  0.646876968157891  0.904137301976782  1.0000
  O   O1        1.0  0.31118140940490235  0.6468430881224663  0.3778020031367292  1.0000
  O   O2        1.0  0.9332698831276431  0.6221763416282898  0.2690524032363157  1.0000
  O   O3        1.0  0.6640444826312829  0.7309415912220557  0.3531942954034477  1.0000
  O   O4        1.0  0.6888227308341754  0.3531596047850555  0.6221941057634766  1.0000
  O   O5        1.0  0.06673111454436048  0.37781707243753004  0.7309391634295324  1.0000
  O   O6        1.0  0.3359371375663613  0.269054916253026  0.646803407616602  1.0000
  O   O7        1.0  0.0918884317374092  0.6256943259112545  0.4684468218898985  1.0000
  O   O8        1.0  0.6232761120542916  0.5316464100329837  0.15719102419700456  1.0000
  O   O9        1.0  0.46605879420498997  0.842796500658622  0.37432898920707214  1.0000
  O   O10       1.0  0.9081152328569642  0.3743191940853308  0.5315702051955215  1.0000
  O   O11       1.0  0.37672082643874916  0.4683477780565255  0.8428079211372291  1.0000
  O   O12       1.0  0.5339287314850552  0.15720000536475  0.6256558586132215  1.0000
  O   O13       1.0  0.3638434628951259  0.4473522282900149  0.6380530953087274  1.0000
  O   O14       1.0  0.7257615805427308  0.36201408333419477  0.8092471486004058  1.0000
  O   O15       1.0  0.9167964541731594  0.19077035658199298  0.5527772217361645  1.0000
  O   O16       1.0  0.6361626690993418  0.55265433186959  0.3619542199621222  1.0000
  O   O17       1.0  0.2742311290508966  0.6379746916172878  0.1907450178571964  1.0000
  O   O18       1.0  0.08319388592413186  0.8092346561062557  0.44722105458751577  1.0000
  O   O19       1.0  0.07117827418911554  0.7967573177698384  0.22847493408821862  1.0000
  O   O20       1.0  0.8421160475021311  0.7715918627261759  0.5681747667617929  1.0000
  O   O21       1.0  0.27424074056725806  0.43171537981596236  0.20316979885306102  1.0000
  O   O22       1.0  0.9288347968950744  0.20323919019529063  0.7715261509854231  1.0000
  O   O23       1.0  0.1578858965836147  0.22841237708027506  0.4318258936904513  1.0000
  O   O24       1.0  0.7257599657575613  0.5682803547820897  0.7968301157860935  1.0000
