data_image0
_chemical_formula_structural       Zn2H3C24N6Cl6O8F7
_chemical_formula_sum              "Zn2 H3 C24 N6 Cl6 O8 F7"
_cell_length_a       9.965377399273901
_cell_length_b       11.217096663352406
_cell_length_c       19.23330926990052
_cell_angle_alpha    92.99191883949177
_cell_angle_beta     94.8196789870887
_cell_angle_gamma    83.21937992468753

_space_group_name_H-M_alt    "P 1"
_space_group_IT_number       1

loop_
  _space_group_symop_operation_xyz
  'x, y, z'

loop_
  _atom_site_type_symbol
  _atom_site_label
  _atom_site_symmetry_multiplicity
  _atom_site_fract_x
  _atom_site_fract_y
  _atom_site_fract_z
  _atom_site_occupancy
  Zn  Zn1       1.0  0.3638669933167549  0.5100566149400977  0.49106239390247447  1.0000
  Zn  Zn2       1.0  0.6426122642802241  0.48974961952016827  0.5057729690443368  1.0000
  H   H1        1.0  0.43029439097593786  0.0992342833825361  0.45896328179819085  1.0000
  H   H2        1.0  0.16253920597241492  0.33681298160262685  0.5112121308275592  1.0000
  H   H3        1.0  0.3275370371515223  0.4814062698984571  0.1331053343376283  1.0000
  C   C1        1.0  0.4924450760451436  0.7296211541439632  0.509842934023581  1.0000
  C   C2        1.0  0.5112961392010433  0.5684315204538493  0.1429248726112462  1.0000
  C   C3        1.0  0.6056573617540338  0.054759906475979385  0.5233961414989069  1.0000
  C   C4        1.0  0.490858172040383  0.5044946433280587  0.6326565739147298  1.0000
  C   C5        1.0  0.5136110478826409  0.13491143327193098  0.49055240082082463  1.0000
  C   C6        1.0  0.598484451552295  0.9245565055529498  0.5157258232478341  1.0000
  C   C7        1.0  0.49000179781251063  0.8634484687132726  0.5209035837560876  1.0000
  C   C8        1.0  0.09325490326077808  0.4163518180854525  0.49626684715980934  1.0000
  C   C9        1.0  0.9452296460179641  0.41216690437076414  0.48924070286045673  1.0000
  C   C10       1.0  0.5084105982249483  0.267518554199775  0.49357406410921106  1.0000
  C   C11       1.0  0.5121249412110771  0.5099275679724329  0.36502879901078705  1.0000
  C   C12       1.0  0.4854046293130169  0.5200666428728695  0.7108638957657547  1.0000
  C   C13       1.0  0.3990207298142252  0.6146564239949515  0.7394025915581324  1.0000
  C   C14       1.0  0.39989205683215806  0.6323261947378783  0.8118863188503198  1.0000
  C   C15       1.0  0.4854818883022033  0.5587804457907667  0.8574145469528105  1.0000
  C   C16       1.0  0.5696960785535339  0.46448340176183217  0.8276238742186167  1.0000
  C   C17       1.0  0.5702499828138343  0.4436897567933259  0.7554509251459011  1.0000
  C   C18       1.0  0.5039118612489659  0.5869289580441334  0.06759619728543952  1.0000
  C   C19       1.0  0.48970063904376093  0.5803320793313702  0.9338217720545714  1.0000
  C   C20       1.0  0.4091208561643499  0.5106066271993441  0.16878987188066932  1.0000
  C   C21       1.0  0.41187234209346  0.4914826596044222  0.23931128926300002  1.0000
  C   C22       1.0  0.5133994767665088  0.527883475796429  0.2881748905732024  1.0000
  C   C23       1.0  0.6142356359732871  0.5852617786076665  0.2616309130118496  1.0000
  C   C24       1.0  0.6143147139056708  0.6056075501850487  0.19051915614547  1.0000
  N   N1        1.0  0.610441360320266  0.5982312124944827  0.967835614339002  1.0000
  N   N2        1.0  0.6180659131664327  0.5996317033628742  0.03674563120807759  1.0000
  N   N3        1.0  0.3786639998434254  0.5965155356145004  0.033402696236947804  1.0000
  N   N4        1.0  0.37176214178974487  0.5906675320485492  0.9645342049215843  1.0000
  N   N5        1.0  0.15442244026262844  0.5041177722702344  0.48091138031927017  1.0000
  N   N6        1.0  0.8556651069530473  0.4790327519959094  0.522725949275177  1.0000
  Cl  Cl1       1.0  0.29640033802492377  0.7135674926214295  0.6875022324504912  1.0000
  Cl  Cl2       1.0  0.3376162276299155  0.9389853558032611  0.5427498600209901  1.0000
  Cl  Cl3       1.0  0.8966813987934615  0.30405387350882057  0.43079730180550513  1.0000
  Cl  Cl4       1.0  0.9122699514389297  0.5799799856614243  0.5838885919183526  1.0000
  Cl  Cl5       1.0  0.6722054974305535  0.3227758358075974  0.7231810943256392  1.0000
  Cl  Cl6       1.0  0.7445216428744673  0.0915166943133201  0.5763800673627983  1.0000
  O   O1        1.0  0.3814849975532724  0.6867643159888105  0.5151604248695563  1.0000
  O   O2        1.0  0.604748213953485  0.6706501080159911  0.4961232906352465  1.0000
  O   O3        1.0  0.3839967200839992  0.47901931104435397  0.597314954967338  1.0000
  O   O4        1.0  0.6022933011660854  0.5212184025881683  0.6096800236882488  1.0000
  O   O5        1.0  0.39277945932207103  0.3242875360509174  0.4753384279799917  1.0000
  O   O6        1.0  0.616066101326851  0.3148698951302151  0.512616561225876  1.0000
  O   O7        1.0  0.39810033717839843  0.5354457653346572  0.3903558574007279  1.0000
  O   O8        1.0  0.6238404079781077  0.47217859320988964  0.3976012206022332  1.0000
  F   F1        1.0  0.719935066796296  0.8641599598490898  0.5023112073029098  1.0000
  F   F2        1.0  0.0673215668162186  0.6036966358467737  0.4578779811603725  1.0000
  F   F3        1.0  0.3202591852706079  0.7260519512693833  0.8387442802297829  1.0000
  F   F4        1.0  0.6498945169528481  0.3896277887130993  0.8703804437775204  1.0000
  F   F5        1.0  0.313335714257299  0.4322896605646991  0.2614756629904846  1.0000
  F   F6        1.0  0.7135673426238327  0.6267639901877828  0.3049470554877161  1.0000
  F   F7        1.0  0.7128992253068277  0.666049603094585  0.1708127786266331  1.0000
