data_image0
_chemical_formula_structural       La4H20W4C20S4O32
_chemical_formula_sum              "La4 H20 W4 C20 S4 O32"
_cell_length_a       7.502249515012805
_cell_length_b       7.630579719843194
_cell_length_c       17.168423918148445
_cell_angle_alpha    91.27858319532956
_cell_angle_beta     89.99997478109759
_cell_angle_gamma    89.99979131287274

_space_group_name_H-M_alt    "P 1"
_space_group_IT_number       1

loop_
  _space_group_symop_operation_xyz
  'x, y, z'

loop_
  _atom_site_type_symbol
  _atom_site_label
  _atom_site_symmetry_multiplicity
  _atom_site_fract_x
  _atom_site_fract_y
  _atom_site_fract_z
  _atom_site_occupancy
  La  La1       1.0  0.41259871241611995  0.7359705166977051  0.3441236280213857  1.0000
  La  La2       1.0  0.912596532829923  0.764034461589105  0.6558773434246987  1.0000
  La  La3       1.0  0.5873989930740747  0.26402753379932165  0.6558794933442301  1.0000
  La  La4       1.0  0.08739983971825889  0.23596882178208026  0.3441234953228829  1.0000
  H   H1        1.0  0.13332498684603422  0.16078990282234423  0.1184731408864081  1.0000
  H   H2        1.0  0.6333249632072081  0.3392128280877742  0.8815269842427258  1.0000
  H   H3        1.0  0.8666767174417558  0.8392107536144239  0.8815265092117103  1.0000
  H   H4        1.0  0.36667407520865686  0.660790450034142  0.11847268952558211  1.0000
  H   H5        1.0  0.05066667700634041  0.15659250645828138  0.9773399239415287  1.0000
  H   H6        1.0  0.550667523749503  0.343409214574308  0.022660790317779306  1.0000
  H   H7        1.0  0.9493350272811512  0.843408152600716  0.022660308646081304  1.0000
  H   H8        1.0  0.4493328476020224  0.6565927553272672  0.9773394541049214  1.0000
  H   H9        1.0  0.2660129704177834  0.0669148846980079  0.8778151062675121  1.0000
  H   H10       1.0  0.7660147168144891  0.43308474561248994  0.12218496553321502  1.0000
  H   H11       1.0  0.7339887338697083  0.9330857743609896  0.12218512632010463  1.0000
  H   H12       1.0  0.23398832040685139  0.5669159108218764  0.8778146845647542  1.0000
  H   H13       1.0  0.5848010076153757  0.43589482541435126  0.23153802199637147  1.0000
  H   H14       1.0  0.08479938436788359  0.06410545371341668  0.7684609253301247  1.0000
  H   H15       1.0  0.41520069667515  0.5641045175600182  0.768461033777321  1.0000
  H   H16       1.0  0.9151996540555556  0.9358938892657632  0.23153813044386606  1.0000
  H   H17       1.0  0.6897438695501279  0.6160832418318236  0.22454435211442106  1.0000
  H   H18       1.0  0.18973839411004434  0.8839172895925531  0.7754548743361485  1.0000
  H   H19       1.0  0.3102605006047483  0.3839174146001341  0.7754552979833991  1.0000
  H   H20       1.0  0.8102593113795536  0.11608205601125829  0.22454476392747583  1.0000
  W   W1        1.0  0.5551421507580087  0.25066222104003094  0.41407628736902785  1.0000
  W   W2        1.0  0.05514269872538339  0.24933423785667938  0.5859237960606978  1.0000
  W   W3        1.0  0.444855554736435  0.7493345028834425  0.5859233272247125  1.0000
  W   W4        1.0  0.9448563397022909  0.7506624886866219  0.4140764010223848  1.0000
  C   C1        1.0  0.39704207896827626  0.0638693295355708  0.09622972582376833  1.0000
  C   C2        1.0  0.8970403421197163  0.436132446910662  0.9037697578702153  1.0000
  C   C3        1.0  0.6029596253219366  0.9361300160610284  0.9037699124394154  1.0000
  C   C4        1.0  0.10296002923211489  0.5638695203686837  0.09622990406300153  1.0000
  C   C5        1.0  0.22848854887856623  0.11621966904585432  0.07435375703698813  1.0000
  C   C6        1.0  0.728488315409166  0.38378271576473105  0.9256457643317904  1.0000
  C   C7        1.0  0.7715131554092238  0.8837809873909137  0.9256458930611375  1.0000
  C   C8        1.0  0.2715107230070117  0.6162205597349555  0.07435332694702623  1.0000
  C   C9        1.0  0.1826378312458559  0.11355230842693229  0.994749730054217  1.0000
  C   C10       1.0  0.6826372043267951  0.3864502418752096  0.005249801563124401  1.0000
  C   C11       1.0  0.8173652059754772  0.8864483480074269  0.005249920043759499  1.0000
  C   C12       1.0  0.3173644999588774  0.6135517227794978  0.9947492778804518  1.0000
  C   C13       1.0  0.524927867275828  0.0004003784260576  0.0405227990444246  1.0000
  C   C14       1.0  0.024928440188624307  0.49960011942252436  0.9594767441541096  1.0000
  C   C15       1.0  0.47507250408084906  0.9995989671729503  0.9594768392189014  1.0000
  C   C16       1.0  0.9750732640973538  0.5004018426099535  0.0405217527999753  1.0000
  C   C17       1.0  0.30328977102021787  0.06005567307765601  0.9387152111993374  1.0000
  C   C18       1.0  0.8032915549396974  0.4399451309060467  0.061284281614760516  1.0000
  C   C19       1.0  0.6967106003364593  0.9399436725213516  0.06128442706399541  1.0000
  C   C20       1.0  0.1967101493435521  0.5600581445888295  0.9387148096637576  1.0000
  S   S1        1.0  0.4561415821518792  0.0924164925363513  0.19602212931157237  1.0000
  S   S2        1.0  0.9561413864159007  0.4075850705968805  0.803977341172356  1.0000
  S   S3        1.0  0.5438587892066097  0.9075815474669467  0.8039786620957872  1.0000
  S   S4        1.0  0.0438576520054212  0.5924155806002389  0.19602114394708542  1.0000
  O   O1        1.0  0.44870513200054757  0.044400115136383506  0.39468008820991685  1.0000
  O   O2        1.0  0.9487102958721964  0.4555988583919799  0.6053205252446929  1.0000
  O   O3        1.0  0.5512885746926628  0.9555966140387754  0.6053206913632467  1.0000
  O   O4        1.0  0.0512874096246705  0.5443965546913317  0.3946790775141055  1.0000
  O   O5        1.0  0.09665980559415029  0.9094301378992072  0.37294972387053354  1.0000
  O   O6        1.0  0.5966582952837811  0.5905654992405615  0.6270523884933539  1.0000
  O   O7        1.0  0.9033418986966594  0.0905679125906076  0.6270533974946348  1.0000
  O   O8        1.0  0.403338077278633  0.40942992171184045  0.3729489617340604  1.0000
  O   O9        1.0  0.6103444418193219  0.21266896417653672  0.19802694712853963  1.0000
  O   O10       1.0  0.1103472927288749  0.2873325388328355  0.8019731713019242  1.0000
  O   O11       1.0  0.3896559295394725  0.7873290732045319  0.8019732617893283  1.0000
  O   O12       1.0  0.8896530786256848  0.7126681149841048  0.1980258963068593  1.0000
  O   O13       1.0  0.503053970640714  0.9195528006545288  0.2262410537341566  1.0000
  O   O14       1.0  0.0030482828793339  0.5804470858907606  0.7737564551418218  1.0000
  O   O15       1.0  0.49695039951930653  0.08044523147486157  0.7737579902042884  1.0000
  O   O16       1.0  0.9969480896752145  0.4195535626889396  0.22624144748843386  1.0000
  O   O17       1.0  0.3001375428098142  0.170395729156823  0.23480197131298308  1.0000
  O   O18       1.0  0.8001376745863596  0.32959853725094496  0.7651986280101399  1.0000
  O   O19       1.0  0.6998601626825119  0.829602302984597  0.7651970726262081  1.0000
  O   O20       1.0  0.1998573650379711  0.6703995027619741  0.23480216339781632  1.0000
  O   O21       1.0  0.5732642281647246  0.5640617874511946  0.23812609194026635  1.0000
  O   O22       1.0  0.0732612408042854  0.9359378535431944  0.7618731487105281  1.0000
  O   O23       1.0  0.426736143192869  0.4359375502811176  0.7618717988545927  1.0000
  O   O24       1.0  0.9267377976188484  0.0640614920582152  0.23812648955294693  1.0000
  O   O25       1.0  0.4164801896632255  0.7106665498634328  0.4834772779643758  1.0000
  O   O26       1.0  0.9164820593200461  0.7893371009441027  0.5165230982892342  1.0000
  O   O27       1.0  0.5835175158260668  0.28933279836261505  0.5165229427887327  1.0000
  O   O28       1.0  0.08351564615955447  0.2106674906426207  0.4834771698036492  1.0000
  O   O29       1.0  0.7298701643146615  0.7581100634645778  0.36937067993005  1.0000
  O   O30       1.0  0.2298693606785704  0.7418968773227589  0.630628596725707  1.0000
  O   O31       1.0  0.2701288741075557  0.24188929000352036  0.6306307058018916  1.0000
  O   O32       1.0  0.7701283448110274  0.2581024682810593  0.3693710415379173  1.0000
