data_image0
_chemical_formula_structural       Al4H48C100O20F4
_chemical_formula_sum              "Al4 H48 C100 O20 F4"
_cell_length_a       6.692530856706007
_cell_length_b       19.210880905336648
_cell_length_c       21.647497392553877
_cell_angle_alpha    93.08946037687245
_cell_angle_beta     89.99939736962182
_cell_angle_gamma    90.0000147454476

_space_group_name_H-M_alt    "P 1"
_space_group_IT_number       1

loop_
  _space_group_symop_operation_xyz
  'x, y, z'

loop_
  _atom_site_type_symbol
  _atom_site_label
  _atom_site_symmetry_multiplicity
  _atom_site_fract_x
  _atom_site_fract_y
  _atom_site_fract_z
  _atom_site_occupancy
  Al  Al1       1.0  0.21195397229212887  0.7500318190867434  0.7492212825317425  1.0000
  Al  Al2       1.0  0.7880395986285081  0.2499669203018797  0.2507726507529497  1.0000
  Al  Al3       1.0  0.7119501349785509  0.7499766892416065  0.7507861002086855  1.0000
  Al  Al4       1.0  0.2880479195385703  0.2500391857185989  0.24922642701966413  1.0000
  H   H1        1.0  0.3620330818054214  0.5615317827448365  0.11419480431688808  1.0000
  H   H2        1.0  0.6379829022554446  0.43846861791472247  0.8858009880366209  1.0000
  H   H3        1.0  0.8620375102244963  0.9384634808933044  0.385800330241693  1.0000
  H   H4        1.0  0.1379964043095896  0.061538110067871805  0.6141982435210807  1.0000
  H   H5        1.0  0.5572741807571191  0.4298462008784938  0.1256317525309143  1.0000
  H   H6        1.0  0.7793495005135469  0.4463636789823155  0.216325111860705  1.0000
  H   H7        1.0  0.639876698667031  0.48125265482714497  0.3202857019583618  1.0000
  H   H8        1.0  0.2732979022100679  0.5028579392035868  0.3314416526571691  1.0000
  H   H9        1.0  0.05167994965405139  0.4879307956159097  0.2401679231249858  1.0000
  H   H10       1.0  0.9483345402745796  0.5120713410848695  0.7598311161688825  1.0000
  H   H11       1.0  0.7267121040685253  0.49713180003554674  0.6685591677724005  1.0000
  H   H12       1.0  0.360127330623257  0.5187350265014815  0.6797155695394109  1.0000
  H   H13       1.0  0.22066498881053323  0.5536312175584328  0.7836748122211077  1.0000
  H   H14       1.0  0.44274628594954624  0.5701553902148435  0.8743668212543555  1.0000
  H   H15       1.0  0.0572898762274576  0.0701503560140395  0.37435784477542455  1.0000
  H   H16       1.0  0.2793439995799929  0.053632777062716706  0.28365590410178493  1.0000
  H   H17       1.0  0.1398490915312109  0.0187348896591075  0.17970172818356636  1.0000
  H   H18       1.0  0.7732703322975211  0.9971297956070941  0.16855557729122236  1.0000
  H   H19       1.0  0.5516701129594354  0.0120635423074233  0.2598364791486958  1.0000
  H   H20       1.0  0.44834288222161695  0.9879344298230356  0.7401722489758527  1.0000
  H   H21       1.0  0.22669933124281977  0.0028680516799611  0.8314411259204206  1.0000
  H   H22       1.0  0.8601235606628705  0.9812628323293212  0.8202829500376793  1.0000
  H   H23       1.0  0.7206779618300416  0.9463698533356961  0.7163232515915324  1.0000
  H   H24       1.0  0.9427754166209324  0.9298497708647205  0.6256328587798946  1.0000
  H   H25       1.0  0.1553780986402487  0.7273111442604688  0.07645885067469038  1.0000
  H   H26       1.0  0.3696402756761685  0.8330546118926989  0.08348170441683317  1.0000
  H   H27       1.0  0.7217928657310749  0.8268453300141588  0.04559607789387599  1.0000
  H   H28       1.0  0.8593439484989176  0.7138006863101084  0.0033860824340195  1.0000
  H   H29       1.0  0.6446359769549943  0.6080450427518542  0.9965089679186574  1.0000
  H   H30       1.0  0.3554083969659131  0.3919579621903537  0.0034965507605519996  1.0000
  H   H31       1.0  0.1406839894749439  0.2862059885638573  0.9966199190997499  1.0000
  H   H32       1.0  0.27822162460765304  0.1731613936384733  0.9544011369506221  1.0000
  H   H33       1.0  0.6303667432426181  0.1669468551072555  0.916514556338349  1.0000
  H   H34       1.0  0.8446408735664831  0.27268615699329507  0.9235373869558712  1.0000
  H   H35       1.0  0.6554123662786323  0.7726816354692049  0.42354110118530025  1.0000
  H   H36       1.0  0.8696801521408516  0.6669375277660237  0.41652587489865317  1.0000
  H   H37       1.0  0.22181581406056236  0.6731531878919486  0.4544184899759357  1.0000
  H   H38       1.0  0.35934302985549493  0.7861982027142959  0.4966271173810951  1.0000
  H   H39       1.0  0.1446404350925476  0.8919565816379561  0.5035009068757788  1.0000
  H   H40       1.0  0.8554248564248964  0.10803271193329783  0.4965110103375919  1.0000
  H   H41       1.0  0.6406863999423817  0.21378134691185832  0.5033875206818975  1.0000
  H   H42       1.0  0.7782166045064188  0.3268291380948369  0.5455896888632665  1.0000
  H   H43       1.0  0.13036870388780392  0.33305595435316354  0.5834671041917403  1.0000
  H   H44       1.0  0.3446589031928866  0.22731516836840635  0.5764458841474109  1.0000
  H   H45       1.0  0.46074770138591253  0.6593703900957237  0.7577066467499943  1.0000
  H   H46       1.0  0.5392682828269956  0.34063410270092487  0.2422974928093921  1.0000
  H   H47       1.0  0.9607409628569387  0.8406339951410686  0.7422851087384571  1.0000
  H   H48       1.0  0.0392690447676998  0.1593704469803896  0.25770839367707765  1.0000
  C   C1        1.0  0.46110684868313717  0.8348400192401186  0.8370014911618353  1.0000
  C   C2        1.0  0.5388389082942382  0.16516742455247885  0.16299942756986496  1.0000
  C   C3        1.0  0.9611483407860247  0.6651581617979901  0.6630105774740541  1.0000
  C   C4        1.0  0.038810863994690706  0.3348513160302958  0.336999139499234  1.0000
  C   C5        1.0  0.4621098536323274  0.832549523393226  0.670541155376739  1.0000
  C   C6        1.0  0.5379330261725171  0.16745320826745314  0.3294592745892686  1.0000
  C   C7        1.0  0.9620922833847202  0.6674592751447365  0.8294654193256363  1.0000
  C   C8        1.0  0.037914735478707905  0.33254236577098345  0.1705340797031738  1.0000
  C   C9        1.0  0.8995701185470892  0.37132177022230206  0.0712375207873848  1.0000
  C   C10       1.0  0.1004518419658282  0.6286745392851362  0.9287596362830612  1.0000
  C   C11       1.0  0.399570535715867  0.128674630221532  0.4287569799251401  1.0000
  C   C12       1.0  0.600464872945075  0.8713258944726759  0.5712411254484664  1.0000
  C   C13       1.0  0.0308150120479027  0.38380422218278204  0.12080661523089728  1.0000
  C   C14       1.0  0.9692039602770849  0.6161946660268641  0.8791900936744169  1.0000
  C   C15       1.0  0.5308049483684414  0.116193549652813  0.3791863118041832  1.0000
  C   C16       1.0  0.4692185064237151  0.883803826092226  0.620811313650435  1.0000
  C   C17       1.0  0.15286778662490969  0.4434158688788373  0.1229513336599481  1.0000
  C   C18       1.0  0.8471437147951876  0.5565846312052116  0.8770463091431324  1.0000
  C   C19       1.0  0.6528720796179784  0.056585901310185704  0.3770439953215001  1.0000
  C   C20       1.0  0.34717378877447663  0.9434182185161294  0.6229532050301214  1.0000
  C   C21       1.0  0.1404512734802381  0.4898981628543454  0.0745625874447242  1.0000
  C   C22       1.0  0.8595691932501524  0.5101033537036629  0.9254345985089999  1.0000
  C   C23       1.0  0.6404668916004114  0.010102363701818697  0.42543416222679287  1.0000
  C   C24       1.0  0.35958345901479305  0.989897094593246  0.5745634747351429  1.0000
  C   C25       1.0  0.005085413426691299  0.4761643401179115  0.024104391925185095  1.0000
  C   C26       1.0  0.9949440181959801  0.523833630807303  0.9758946242390677  1.0000
  C   C27       1.0  0.5050966068822619  0.0238320283405997  0.47589184787867816  1.0000
  C   C28       1.0  0.494944778596249  0.9761678265206227  0.524103478933739  1.0000
  C   C29       1.0  0.8806790356086368  0.41518090188043294  0.021721063877514296  1.0000
  C   C30       1.0  0.11935039587745419  0.5848148868499906  0.9782760902923541  1.0000
  C   C31       1.0  0.3806911539677954  0.08481609336975282  0.4782776635136443  1.0000
  C   C32       1.0  0.6193502314762114  0.9151851755752819  0.5217246082327094  1.0000
  C   C33       1.0  0.26086509142749037  0.5514134152887351  0.07530085046006008  1.0000
  C   C34       1.0  0.7391508924676841  0.44858554748559953  0.9246972462818092  1.0000
  C   C35       1.0  0.7608709831931079  0.9485813327139783  0.4246964585735924  1.0000
  C   C36       1.0  0.2391614368173265  0.05141604294295381  0.5753011668660264  1.0000
  C   C37       1.0  0.2540428301667461  0.5980897559887381  0.029712056341772097  1.0000
  C   C38       1.0  0.7459836130210817  0.401906999642904  0.9702837157776969  1.0000
  C   C39       1.0  0.7540481821469739  0.9019040847076667  0.47028526974173696  1.0000
  C   C40       1.0  0.24599918001469942  0.09809552268743  0.5297151428883068  1.0000
  C   C41       1.0  0.0368175174016301  0.3846813938158746  0.3893198918199303  1.0000
  C   C42       1.0  0.9630639881898587  0.6153202742221852  0.6106897819621648  1.0000
  C   C43       1.0  0.5368412381950733  0.115330665489644  0.11066985766871797  1.0000
  C   C44       1.0  0.46298049959550974  0.8846732588222112  0.8893333541064976  1.0000
  C   C45       1.0  0.023636805301933395  0.4287271248229488  0.43228512947904807  1.0000
  C   C46       1.0  0.9761729779412746  0.5712679486890835  0.567727745151643  1.0000
  C   C47       1.0  0.523607427950779  0.0712781785687326  0.0677194244122958  1.0000
  C   C48       1.0  0.4760604062107419  0.928718854927155  0.9322911489555706  1.0000
  C   C49       1.0  0.007968541079357298  0.4773751142830848  0.47880872662172175  1.0000
  C   C50       1.0  0.9918128521614802  0.5226178021582797  0.5212027486726001  1.0000
  C   C51       1.0  0.5079228292411742  0.022627845073635904  0.0212046519893505  1.0000
  C   C52       1.0  0.4917106382606918  0.9773698088440241  0.9788077747661603  1.0000
  C   C53       1.0  0.2888626726110815  0.4575939208973595  0.17665068849927926  1.0000
  C   C54       1.0  0.4953533694255938  0.44736488046701345  0.17040249680656666  1.0000
  C   C55       1.0  0.6203789615584724  0.4566174618549397  0.2218116713220581  1.0000
  C   C56       1.0  0.5419739807649863  0.47620025485588263  0.2800351978536354  1.0000
  C   C57       1.0  0.3369551899471758  0.4878731701595811  0.2863200689123104  1.0000
  C   C58       1.0  0.21172938718337517  0.47878540950080867  0.2349460318785148  1.0000
  C   C59       1.0  0.7111443462839873  0.542407620637924  0.8233469600874557  1.0000
  C   C60       1.0  0.788285102595374  0.5212152396245315  0.7650543865826762  1.0000
  C   C61       1.0  0.6630548168098117  0.512122247128815  0.7136798580650775  1.0000
  C   C62       1.0  0.45803453138424277  0.5237899057210882  0.7199637750244391  1.0000
  C   C63       1.0  0.37963253965136085  0.5433804347111675  0.7781859570406341  1.0000
  C   C64       1.0  0.5046536492329707  0.5526334871565198  0.8295942092306631  1.0000
  C   C65       1.0  0.7888654798838245  0.0424036638261072  0.32334510204593403  1.0000
  C   C66       1.0  0.9953635406099507  0.05263511649311431  0.3295870890931027  1.0000
  C   C67       1.0  0.12037801367766579  0.0433767388970026  0.2781763212759429  1.0000
  C   C68       1.0  0.041955924842909595  0.0237903795048311  0.219954878652338  1.0000
  C   C69       1.0  0.8369368818114395  0.0121189073778822  0.21367784782589178  1.0000
  C   C70       1.0  0.7117252889004108  0.021211187253186405  0.26505185274331206  1.0000
  C   C71       1.0  0.21116395192287737  0.9575963402232471  0.6766530004495904  1.0000
  C   C72       1.0  0.2882951773882425  0.9787858417333977  0.73494900810185  1.0000
  C   C73       1.0  0.16305370049786916  0.9878785183804412  0.786320702904753  1.0000
  C   C74       1.0  0.958031669607358  0.9762118557969971  0.7800362991957924  1.0000
  C   C75       1.0  0.8796424531530035  0.9566238097454445  0.7218125348003709  1.0000
  C   C76       1.0  0.004671868484812999  0.9473699206176182  0.6704078039995807  1.0000
  C   C77       1.0  0.3851581376568376  0.6609874480101469  0.0353250325816319  1.0000
  C   C78       1.0  0.3100476517011259  0.7244839889267213  0.060522296357952095  1.0000
  C   C79       1.0  0.4307032838958661  0.7837868374304408  0.0644190008371623  1.0000
  C   C80       1.0  0.6282146783035143  0.7802644496584109  0.0434542175105221  1.0000
  C   C81       1.0  0.7051943888058999  0.7168324774227629  0.019595242403603698  1.0000
  C   C82       1.0  0.5845686291615237  0.6573797373959706  0.0156699581410891  1.0000
  C   C83       1.0  0.614860834602375  0.3390109940312271  0.964673061267156  1.0000
  C   C84       1.0  0.41545781429407214  0.34262205239950566  0.9843323165183333  1.0000
  C   C85       1.0  0.29483205489410835  0.2831724614393565  0.9804075121948086  1.0000
  C   C86       1.0  0.3717983177243411  0.21974130713706333  0.9565443793918788  1.0000
  C   C87       1.0  0.5693112059224177  0.21621368746934883  0.9355791045714382  1.0000
  C   C88       1.0  0.6899683321836179  0.2755143537635902  0.9394739470537626  1.0000
  C   C89       1.0  0.8851834400921845  0.8390081051958236  0.4646741909557122  1.0000
  C   C90       1.0  0.8100787051537637  0.7755110571296698  0.43947901735526773  1.0000
  C   C91       1.0  0.9307383591514268  0.7162073256480356  0.43559024195954515  1.0000
  C   C92       1.0  0.12824805820952176  0.7197335513690319  0.4565555631566056  1.0000
  C   C93       1.0  0.2052130991640198  0.783163489963691  0.4804142778504215  1.0000
  C   C94       1.0  0.0845952944251422  0.8426188731351799  0.48433534245784665  1.0000
  C   C95       1.0  0.11486840455534518  0.1609886253410693  0.5353211185107439  1.0000
  C   C96       1.0  0.9154550552171089  0.1573712383841155  0.5156724170620136  1.0000
  C   C97       1.0  0.7948357560124322  0.21682287726472543  0.5195916110133182  1.0000
  C   C98       1.0  0.8717948203283542  0.2802542289582348  0.543447558718256  1.0000
  C   C99       1.0  0.06931946214007212  0.28378732201576906  0.5644050559445971  1.0000
  C   C100      1.0  0.1899806105643478  0.2244854994180301  0.560513053825062  1.0000
  O   O1        1.0  0.6296484549141539  0.8147460681475067  0.6921825173954801  1.0000
  O   O2        1.0  0.370346610989479  0.1852658886207337  0.30782490090561504  1.0000
  O   O3        1.0  0.1296422904051795  0.6852531966833979  0.8078167559659661  1.0000
  O   O4        1.0  0.8703497858552253  0.31473914520618973  0.19217436700118642  1.0000
  O   O5        1.0  0.29115813463108253  0.8162676118350589  0.8158067613783828  1.0000
  O   O6        1.0  0.708792104375327  0.18372859795309893  0.1841788334371586  1.0000
  O   O7        1.0  0.7912017218038797  0.6837239417210413  0.6842044331431651  1.0000
  O   O8        1.0  0.20877242522511352  0.3162900742657443  0.315812246067523  1.0000
  O   O9        1.0  0.29145490695224646  0.8120960975319919  0.6874423579895036  1.0000
  O   O10       1.0  0.7085416519593509  0.18789676501712904  0.3125487678582246  1.0000
  O   O11       1.0  0.7914518295773332  0.6879166255808755  0.812565715754772  1.0000
  O   O12       1.0  0.20855070758846486  0.3120991251097252  0.187444498413484  1.0000
  O   O13       1.0  0.1328349715303361  0.6837754522751497  0.6829312094983704  1.0000
  O   O14       1.0  0.8671571053712838  0.3162253202522933  0.31706181012010143  1.0000
  O   O15       1.0  0.6327807363130588  0.8162388021529027  0.8170769237484591  1.0000
  O   O16       1.0  0.3671695038798006  0.1837804459498429  0.18294024699352454  1.0000
  O   O17       1.0  0.4621728525948825  0.7086094486808464  0.7492330020010128  1.0000
  O   O18       1.0  0.5378326722545593  0.29139551523196877  0.250770215242909  1.0000
  O   O19       1.0  0.9621607741878434  0.7913977119187692  0.7507721759856166  1.0000
  O   O20       1.0  0.03783877399389719  0.20860940940247016  0.2492324406521718  1.0000
  F   F1        1.0  0.7906648081192884  0.31174392206990115  0.0705483701791394  1.0000
  F   F2        1.0  0.2093571522807594  0.6882501307074165  0.9294455370653623  1.0000
  F   F3        1.0  0.29066885653764263  0.18825623073727374  0.4294474287750205  1.0000
  F   F4        1.0  0.7093486217313015  0.8117454597658665  0.5705529954573336  1.0000
