data_image0
_chemical_formula_structural       Ag4H48C60S8O8F8
_chemical_formula_sum              "Ag4 H48 C60 S8 O8 F8"
_cell_length_a       10.895936353827606
_cell_length_b       11.24271720063861
_cell_length_c       13.0694
_cell_angle_alpha    99.39028047921973
_cell_angle_beta     90.3863152461648
_cell_angle_gamma    99.45933756309707

_space_group_name_H-M_alt    "P 1"
_space_group_IT_number       1

loop_
  _space_group_symop_operation_xyz
  'x, y, z'

loop_
  _atom_site_type_symbol
  _atom_site_label
  _atom_site_symmetry_multiplicity
  _atom_site_fract_x
  _atom_site_fract_y
  _atom_site_fract_z
  _atom_site_occupancy
  Ag  Ag1       1.0  0.4002902345470857  0.060978616703742716  0.4700914505422631  1.0000
  Ag  Ag2       1.0  0.5997102277375035  0.9390213144346832  0.5299086189058996  1.0000
  Ag  Ag3       1.0  0.4236827297047867  0.09253422780121671  0.9845062238792935  1.0000
  Ag  Ag4       1.0  0.5763169709094028  0.9074666178335634  0.015493969640871835  1.0000
  H   H1        1.0  0.1670337103371864  0.055650760961150104  0.5764812372638345  1.0000
  H   H2        1.0  0.8329675136177952  0.9443482556809215  0.4235187081123256  1.0000
  H   H3        1.0  0.9452837118484252  0.083460595003757  0.5852748310170099  1.0000
  H   H4        1.0  0.05471583264195349  0.9165393361346688  0.41472599841816293  1.0000
  H   H5        1.0  0.8909542927851745  0.2874865599683432  0.6499689181179846  1.0000
  H   H6        1.0  0.1090470872936251  0.7125133711700826  0.35003115648923  1.0000
  H   H7        1.0  0.0600275384500719  0.4663675332579729  0.7070469449457376  1.0000
  H   H8        1.0  0.9399738416287278  0.5336323978804529  0.2929531296614769  1.0000
  H   H9        1.0  0.2812630361546908  0.4397849533187923  0.694403014593753  1.0000
  H   H10       1.0  0.7187392617183191  0.5602149778196336  0.3055963000264512  1.0000
  H   H11       1.0  0.0536815824067602  0.2654865212454567  0.38158047467764783  1.0000
  H   H12       1.0  0.9463179620836185  0.7345134098929691  0.6184203547575252  1.0000
  H   H13       1.0  0.07483869154287248  0.4918646060281731  0.42322661308732995  1.0000
  H   H14       1.0  0.9251608529475063  0.5081353251102527  0.5767734512017739  1.0000
  H   H15       1.0  0.2846600552980334  0.6214679434287618  0.4312301855570481  1.0000
  H   H16       1.0  0.7153404069865488  0.378531987709664  0.5687683535989833  1.0000
  H   H17       1.0  0.473168672612239  0.5236095178703621  0.40342191387522763  1.0000
  H   H18       1.0  0.5268308718781327  0.4763904132680637  0.5965781504138761  1.0000
  H   H19       1.0  0.45307861415489004  0.2975304733945165  0.3680757536029375  1.0000
  H   H20       1.0  0.546921848129699  0.7024694577439092  0.6319243158452252  1.0000
  H   H21       1.0  0.35554063456799406  0.076941150515438  0.7352041015197273  1.0000
  H   H22       1.0  0.644456918210146  0.9230578661266337  0.2647950580741423  1.0000
  H   H23       1.0  0.5161039789938258  0.137355522970438  0.7290558964417287  1.0000
  H   H24       1.0  0.4838952532489173  0.8626425791752865  0.2709446745313357  1.0000
  H   H25       1.0  0.6762484353146192  0.2474041848914794  0.8627546381807392  1.0000
  H   H26       1.0  0.3237500352577314  0.7525948317505922  0.13724452657218927  1.0000
  H   H27       1.0  0.857803840253055  0.4116788224583701  0.8606355272916416  1.0000
  H   H28       1.0  0.1421937125250849  0.5883201941837015  0.139364397448297  1.0000
  H   H29       1.0  0.8252509622524613  0.6281181608953119  0.8655977395984137  1.0000
  H   H30       1.0  0.1747473521960785  0.3718799412504126  0.13440129592345326  1.0000
  H   H31       1.0  0.6096536149433404  0.676135620812282  0.8734253197787467  1.0000
  H   H32       1.0  0.39034577342322047  0.3238633958297896  0.1265738501332407  1.0000
  H   H33       1.0  0.4292575191669811  0.5124316289685922  0.872115958844141  1.0000
  H   H34       1.0  0.5707401897349769  0.48756830216983366  0.1278856254189833  1.0000
  H   H35       1.0  0.2266708817071219  0.8517902509745741  0.008646947529250304  1.0000
  H   H36       1.0  0.773329736701278  0.1482105946602061  0.9913532511499596  1.0000
  H   H37       1.0  0.3296305781610868  0.982107810025518  0.21830932126292174  1.0000
  H   H38       1.0  0.6703698841235023  0.0178921211129079  0.7816899830391719  1.0000
  H   H39       1.0  0.4078111797999355  0.1365681416119813  0.23618016684908127  1.0000
  H   H40       1.0  0.592188520814254  0.8634327040227917  0.763820026671084  1.0000
  H   H41       1.0  0.8501900976842123  0.6981667524111118  0.0708585401888868  1.0000
  H   H42       1.0  0.1498112823945803  0.3018331787273141  0.9291400041261892  1.0000
  H   H43       1.0  0.8185528034667087  0.9029810132305016  0.16221055223667238  1.0000
  H   H44       1.0  0.18144750269406268  0.09701800341157003  0.8377886228343598  1.0000
  H   H45       1.0  0.05490272320321308  0.6735750310286832  0.9914451384476307  1.0000
  H   H46       1.0  0.9450988129993974  0.3264258146060968  0.008553535098506902  1.0000
  H   H47       1.0  0.9888214559180639  0.0802369953654747  0.1763819440647367  1.0000
  H   H48       1.0  0.011178244696125687  0.9197638502693054  0.8236182494554213  1.0000
  C   C1        1.0  0.6711185244093228  0.149188191259725  0.4030151716437089  1.0000
  C   C2        1.0  0.3288784228222283  0.8508126543750479  0.596981180668962  1.0000
  C   C3        1.0  0.771964271044126  0.2163524612835701  0.3392640539824257  1.0000
  C   C4        1.0  0.2280354295700633  0.7836483843512099  0.6607369046838016  1.0000
  C   C5        1.0  0.7223952499663254  0.2616136291977611  0.24342515198120648  1.0000
  C   C6        1.0  0.27760337672984287  0.7383863019406647  0.7565764374409767  1.0000
  C   C7        1.0  0.6425184951803827  0.1656564415536863  0.1592080625114107  1.0000
  C   C8        1.0  0.3574819671041992  0.8343434895847395  0.8407920069367447  1.0000
  C   C9        1.0  0.23738626711504904  0.24650340598546455  0.6349061256728987  1.0000
  C   C10       1.0  0.762613121251519  0.7534956106566071  0.3650945745312129  1.0000
  C   C11       1.0  0.14318055520386958  0.145571358190395  0.6044070116531088  1.0000
  C   C12       1.0  0.8568208248749302  0.854428572948031  0.3955938281001679  1.0000
  C   C13       1.0  0.0189145644635502  0.1612458256514344  0.6098849368585205  1.0000
  C   C14       1.0  0.9810866594914386  0.8387531909906443  0.3901157736637089  1.0000
  C   C15       1.0  0.9884900491382211  0.2763040985848164  0.6466338729767712  1.0000
  C   C16       1.0  0.01151148706439641  0.7236967470499566  0.3533670960075668  1.0000
  C   C17       1.0  0.0826843999245028  0.3762402598533399  0.6781083466066847  1.0000
  C   C18       1.0  0.9173159062362686  0.6237587567887317  0.3218915936104239  1.0000
  C   C19       1.0  0.2074573878396322  0.3618259683643714  0.6717970889836522  1.0000
  C   C20       1.0  0.7925433677439102  0.6381703047886447  0.3282024686993381  1.0000
  C   C21       1.0  0.2517143068811265  0.26813307368608014  0.37094136094532354  1.0000
  C   C22       1.0  0.7482852376092521  0.7318668574523458  0.6290587033437801  1.0000
  C   C23       1.0  0.1451612254458041  0.32241483360935774  0.3865819876810974  1.0000
  C   C24       1.0  0.8548384751683924  0.6775860120254223  0.6134189709851299  1.0000
  C   C25       1.0  0.1577177000783294  0.4496221905695776  0.40968899854765783  1.0000
  C   C26       1.0  0.8422827622062526  0.5503777405688481  0.5903110709004977  1.0000
  C   C27       1.0  0.2753837862690602  0.5221243757958689  0.41490487934426307  1.0000
  C   C28       1.0  0.7246159143451293  0.477876469838904  0.5850945490298329  1.0000
  C   C29       1.0  0.38128708057341487  0.46718143501061604  0.3993238903056239  1.0000
  C   C30       1.0  0.6187126200407747  0.5328194106241639  0.6006770683606035  1.0000
  C   C31       1.0  0.3702184838085926  0.3401898991892978  0.3786504416217511  1.0000
  C   C32       1.0  0.6297821345998074  0.6598109464454751  0.621349757057466  1.0000
  C   C33       1.0  0.4225651565919789  0.1613217288485913  0.736716575914393  1.0000
  C   C34       1.0  0.5774345440222106  0.8386791167861889  0.2632836176057722  1.0000
  C   C35       1.0  0.5415942623489656  0.3695251131458477  0.8655053128439008  1.0000
  C   C36       1.0  0.4584032904291746  0.6304739034962239  0.13449461189603798  1.0000
  C   C37       1.0  0.6622063817737569  0.34140983732191194  0.8635853796875992  1.0000
  C   C38       1.0  0.33779224492240434  0.6585900938165069  0.1364146794424528  1.0000
  C   C39       1.0  0.7641830253109703  0.4343153506417536  0.863472334777633  1.0000
  C   C40       1.0  0.2358145274671699  0.565683666000325  0.1365275899623057  1.0000
  C   C41       1.0  0.7461104975399024  0.5552574930993118  0.8670893360933575  1.0000
  C   C42       1.0  0.2538879730324481  0.44474152354276  0.13291059380564008  1.0000
  C   C43       1.0  0.6258046870302181  0.5828176696380112  0.8712484125026805  1.0000
  C   C44       1.0  0.3741939396659504  0.4171822615004075  0.12875164662737149  1.0000
  C   C45       1.0  0.5230463406596968  0.4904297612530044  0.8700861149136115  1.0000
  C   C46       1.0  0.4769522860364646  0.5095701698854214  0.1299147093625024  1.0000
  C   C47       1.0  0.11819816847133072  0.9756395773328708  0.09509342315400461  1.0000
  C   C48       1.0  0.8818024499370694  0.024361268301902304  0.9049052452330743  1.0000
  C   C49       1.0  0.13720872262214098  0.8615305516121197  0.04271161338967028  1.0000
  C   C50       1.0  0.8627918957862589  0.1384702940226532  0.9572885852895467  1.0000
  C   C51       1.0  0.3164031499627171  0.0779196616113182  0.2279137662792508  1.0000
  C   C52       1.0  0.6835956328572621  0.9220811840234617  0.7720864220818554  1.0000
  C   C53       1.0  0.9257661702213511  0.7759483250733795  0.07724678393807949  1.0000
  C   C54       1.0  0.07423413593942028  0.22405069156869226  0.9227523911329597  1.0000
  C   C55       1.0  0.9075426348917688  0.890237506575332  0.1287141130356986  1.0000
  C   C56       1.0  0.0924567534747922  0.10976151006673972  0.8712850568762818  1.0000
  C   C57       1.0  0.04042927589819811  0.76194647143884  0.0335373926004081  1.0000
  C   C58       1.0  0.9595722603044121  0.2380543741959329  0.9664620460917915  1.0000
  C   C59       1.0  0.003169348092235747  0.9907470570561119  0.1373395670252862  1.0000
  C   C60       1.0  0.9968311141923535  0.0092528740823141  0.8626597372768072  1.0000
  S   S1        1.0  0.3976829927235314  0.2335221302789634  0.6252051484114887  1.0000
  S   S2        1.0  0.6023174695610578  0.7664778008594626  0.374794921036667  1.0000
  S   S3        1.0  0.23156981670345533  0.10562341407717213  0.34604589068380426  1.0000
  S   S4        1.0  0.7684308017049446  0.894377431557608  0.653954307995413  1.0000
  S   S5        1.0  0.4085242342948163  0.25441471392043985  0.861732508431416  1.0000
  S   S6        1.0  0.5914742362775343  0.7455843027216318  0.1382674214675745  1.0000
  S   S7        1.0  0.23928665730485923  0.10425807102470232  0.11212332393459687  1.0000
  S   S8        1.0  0.7607130433093303  0.8957427746100778  0.8878768695855683  1.0000
  O   O1        1.0  0.5617612604867191  0.1280322326690779  0.363743186746845  1.0000
  O   O2        1.0  0.4382431852223405  0.8719695274620491  0.6362594572378413  1.0000
  O   O3        1.0  0.7106303371983672  0.12039893162489793  0.4847927032880363  1.0000
  O   O4        1.0  0.2893730345926642  0.8796019140098823  0.515211336598675  1.0000
  O   O5        1.0  0.6654442386622321  0.05824518710974761  0.1496349248616866  1.0000
  O   O6        1.0  0.334556379746168  0.9417556585250255  0.8503645086714613  1.0000
  O   O7        1.0  0.5684643806828404  0.2089166914512646  0.1067216347363882  1.0000
  O   O8        1.0  0.4315362377255596  0.7910841541835154  0.8932785639428289  1.0000
  F   F1        1.0  0.8389536664559714  0.3173594977794494  0.4019978619079652  1.0000
  F   F2        1.0  0.1610486314170387  0.6826404333589765  0.5980022178583084  1.0000
  F   F3        1.0  0.8558649514402247  0.1392101215708479  0.3076932107304486  1.0000
  F   F4        1.0  0.1441355108443645  0.8607898095675779  0.692306858717707  1.0000
  F   F5        1.0  0.6571712860473511  0.353612876633477  0.2809040548403559  1.0000
  F   F6        1.0  0.3428281023192098  0.6463861400086018  0.7190958802176937  1.0000
  F   F7        1.0  0.8250398404506215  0.3153915016314812  0.19452757520087968  1.0000
  F   F8        1.0  0.17496001628738614  0.6846102584996459  0.8054727475503326  1.0000
