data_image0
_chemical_formula_structural       Zn2H30C42N4O12
_chemical_formula_sum              "Zn2 H30 C42 N4 O12"
_cell_length_a       9.441663499366488
_cell_length_b       9.95723719895718
_cell_length_c       10.51589982923245
_cell_angle_alpha    91.91837376861416
_cell_angle_beta     96.69480376457676
_cell_angle_gamma    103.54552151903303

_space_group_name_H-M_alt    "P 1"
_space_group_IT_number       1

loop_
  _space_group_symop_operation_xyz
  'x, y, z'

loop_
  _atom_site_type_symbol
  _atom_site_label
  _atom_site_symmetry_multiplicity
  _atom_site_fract_x
  _atom_site_fract_y
  _atom_site_fract_z
  _atom_site_occupancy
  Zn  Zn1       1.0  0.1628709981156646  0.2234220910273946  0.09586863166881442  1.0000
  Zn  Zn2       1.0  0.837125752194453  0.7765778516890265  0.904138452662018  1.0000
  H   H1        1.0  0.3474807976293022  0.1162854774149622  0.007918067968653004  1.0000
  H   H2        1.0  0.6525116735577754  0.8837196108479476  0.9920793264184058  1.0000
  H   H3        1.0  0.3453479780906434  0.08668910786991552  0.16160696249115603  1.0000
  H   H4        1.0  0.6546477144960933  0.9133077104136337  0.8383894591792612  1.0000
  H   H5        1.0  0.470937589540874  0.409148997710993  0.11104459622060149  1.0000
  H   H6        1.0  0.5290532820987793  0.5908530002959722  0.8889620662119954  1.0000
  H   H7        1.0  0.587847446968624  0.6660233710928908  0.14517950558280293  1.0000
  H   H8        1.0  0.4121435356120459  0.3339796515190372  0.8548214952633018  1.0000
  H   H9        1.0  0.4294026209141962  0.8252887281947352  0.1974736636053436  1.0000
  H   H10       1.0  0.570581411230819  0.174714241152607  0.8025058242990823  1.0000
  H   H11       1.0  0.16313996143967563  0.7270835457187772  0.20196618960846993  1.0000
  H   H12       1.0  0.8368436098124405  0.27291837458734136  0.7980056128521513  1.0000
  H   H13       1.0  0.9519694306563766  0.6251682396740534  0.23490767925746786  1.0000
  H   H14       1.0  0.048015233504955346  0.37482751177545753  0.765083972011489  1.0000
  H   H15       1.0  0.6955866330701213  0.4923401014070166  0.23877550058274727  1.0000
  H   H16       1.0  0.3044004126343296  0.5076515328732896  0.7612247661610567  1.0000
  H   H17       1.0  0.6208237486607047  0.2409914848802615  0.15648305928061756  1.0000
  H   H18       1.0  0.3791617334476456  0.7589980785127253  0.8435179538443053  1.0000
  H   H19       1.0  0.8164127454088045  0.1319304715971441  0.0892605148647476  1.0000
  H   H20       1.0  0.18357586389174677  0.8680632335704813  0.9107390054979309  1.0000
  H   H21       1.0  0.6883494887670737  0.7361763713322417  0.35826867447455163  1.0000
  H   H22       1.0  0.3116639096447855  0.2638256874286213  0.6417446413838378  1.0000
  H   H23       1.0  0.06382374287982633  0.746530402044641  0.6367823513048237  1.0000
  H   H24       1.0  0.9361924698844462  0.2534706203437196  0.36322640870614725  1.0000
  H   H25       1.0  0.2246361730968687  0.8973425802641585  0.4991541345889133  1.0000
  H   H26       1.0  0.7753810275770547  0.1026501602081353  0.5008496595892141  1.0000
  H   H27       1.0  0.71210389468515  0.3941734794406315  0.4854012884915235  1.0000
  H   H28       1.0  0.2879130906510312  0.6058399432156065  0.5145994144388766  1.0000
  H   H29       1.0  0.5460173002287619  0.7443837015211231  0.5888073770907171  1.0000
  H   H30       1.0  0.4539985824042248  0.25562869928901927  0.4112017576646069  1.0000
  C   C1        1.0  0.4083947107009038  0.48448391091248766  0.13173848763670293  1.0000
  C   C2        1.0  0.5915978085530397  0.5155170412627255  0.8682597156717621  1.0000
  C   C3        1.0  0.4718265515512385  0.6256032411943195  0.15221776344288432  1.0000
  C   C4        1.0  0.5281618597030686  0.37439458958832006  0.847775227842547  1.0000
  C   C5        1.0  0.383368411354617  0.7142520922746269  0.17963363605008456  1.0000
  C   C6        1.0  0.6166154098631296  0.28574984548596666  0.8203477000036019  1.0000
  C   C7        1.0  0.23410386358121835  0.6590185484900104  0.18326147027041634  1.0000
  C   C8        1.0  0.7658792877426206  0.3409854482211826  0.8167151262859493  1.0000
  C   C9        1.0  0.17734559436143374  0.5163091585229509  0.16033872728237242  1.0000
  C   C10       1.0  0.8226415270981988  0.48369279365180506  0.8396466917270119  1.0000
  C   C11       1.0  0.0205334296085553  0.44786803050922686  0.16139281198821462  1.0000
  C   C12       1.0  0.9794514454800447  0.5521287525270466  0.8385969911314819  1.0000
  C   C13       1.0  0.9193214830596121  0.5161302247416656  0.20308450369645215  1.0000
  C   C14       1.0  0.080663986933196  0.4838644941076564  0.796907178842652  1.0000
  C   C15       1.0  0.7747474950327272  0.441481518220833  0.2030833651202357  1.0000
  C   C16       1.0  0.22523760309867671  0.5585111409458604  0.796913920436012  1.0000
  C   C17       1.0  0.7335414995456871  0.3021959635673142  0.1599134727698939  1.0000
  C   C18       1.0  0.2664460430029933  0.6977977391228549  0.8400859577532885  1.0000
  C   C19       1.0  0.8412946559661805  0.24145234309126093  0.11996229758126734  1.0000
  C   C20       1.0  0.1586938533481117  0.7585413550945715  0.8800334093441792  1.0000
  C   C21       1.0  0.14488993036739117  0.9944682724419917  0.2714937548436255  1.0000
  C   C22       1.0  0.8551213916360679  0.0055265233208459  0.7285096174362665  1.0000
  C   C23       1.0  0.04850484646914317  0.8990454346693825  0.3505842704947782  1.0000
  C   C24       1.0  0.9515078531997148  0.1009504021394534  0.6494211569125597  1.0000
  C   C25       1.0  0.8965799923041119  0.8521142131664734  0.3110564807185058  1.0000
  C   C26       1.0  0.10342846535380801  0.14788161547797074  0.6889495406901888  1.0000
  C   C27       1.0  0.8058396389872301  0.7708789207979976  0.38943354180602097  1.0000
  C   C28       1.0  0.19417501210720903  0.22912417028163645  0.6105770623832854  1.0000
  C   C29       1.0  0.8672484056429823  0.7314244967738333  0.5054292535085096  1.0000
  C   C30       1.0  0.1327694457070834  0.2685786017381773  0.49458162019925583  1.0000
  C   C31       1.0  0.01826869651112162  0.7758694324090171  0.5451401690383408  1.0000
  C   C32       1.0  0.981747752176986  0.2241326233115473  0.45486769618266726  1.0000
  C   C33       1.0  0.10718333866749669  0.8598008807973868  0.4681107445223632  1.0000
  C   C34       1.0  0.8928299309090093  0.1401928900790566  0.5318956089450708  1.0000
  C   C35       1.0  0.8313157115491167  0.8660132408739258  0.17566262514291967  1.0000
  C   C36       1.0  0.1686967541221804  0.13398570218129888  0.8243447948515839  1.0000
  C   C37       1.0  0.641926026336435  0.5761255086293174  0.5398139277851968  1.0000
  C   C38       1.0  0.35809019028037165  0.42388379291622164  0.4601970278201861  1.0000
  C   C39       1.0  0.6182806110464655  0.43946813614719105  0.4907380914599174  1.0000
  C   C40       1.0  0.381735171600269  0.5605442576811654  0.5092672298581817  1.0000
  C   C41       1.0  0.5247417162304799  0.637584778779427  0.5498256918576914  1.0000
  C   C42       1.0  0.4752725528132729  0.3624255476525065  0.45018228256014226  1.0000
  N   N1        1.0  0.9807423607585761  0.31250466563957247  0.12171821322106523  1.0000
  N   N2        1.0  0.01924557864807504  0.6874910984786596  0.8782765676442779  1.0000
  N   N3        1.0  0.2650836733257194  0.431517875580461  0.13570393325542804  1.0000
  N   N4        1.0  0.7349082490977353  0.5684810012031036  0.8642912928364269  1.0000
  O   O1        1.0  0.7853062923012573  0.6478394248903782  0.5860785630908227  1.0000
  O   O2        1.0  0.214708410712575  0.3521678092587379  0.4139350456142949  1.0000
  O   O3        1.0  0.7192824950109298  0.9137876965225759  0.1533410804992386  1.0000
  O   O4        1.0  0.280722651450354  0.08620710008451479  0.8466703329774817  1.0000
  O   O5        1.0  0.8950459680657588  0.8123840622414206  0.09213975413307202  1.0000
  O   O6        1.0  0.1049624184550026  0.18762004032387128  0.9078656027921143  1.0000
  O   O7        1.0  0.08054691299668798  0.0759736803824964  0.20725301337867563  1.0000
  O   O8        1.0  0.9194573545696868  0.9240262831670378  0.7927566065471867  1.0000
  O   O9        1.0  0.27842223548615413  0.9914388222612658  0.2737077677908246  1.0000
  O   O10       1.0  0.7215818872767912  0.0085497297029988  0.7262833635638657  1.0000
  O   O11       1.0  0.367917788084938  0.16043553720564316  0.09748414014217842  1.0000
  O   O12       1.0  0.6320774864997956  0.83956749706158  0.9025181734211858  1.0000
