data_image0
_chemical_formula_structural       Cd2H32C36N4O10
_chemical_formula_sum              "Cd2 H32 C36 N4 O10"
_cell_length_a       8.385697669709113
_cell_length_b       10.483343445840593
_cell_length_c       10.920227959307573
_cell_angle_alpha    112.05472525937617
_cell_angle_beta     94.9296830273055
_cell_angle_gamma    103.19669035035675

_space_group_name_H-M_alt    "P 1"
_space_group_IT_number       1

loop_
  _space_group_symop_operation_xyz
  'x, y, z'

loop_
  _atom_site_type_symbol
  _atom_site_label
  _atom_site_symmetry_multiplicity
  _atom_site_fract_x
  _atom_site_fract_y
  _atom_site_fract_z
  _atom_site_occupancy
  Cd  Cd1       1.0  0.6274258519318892  0.13553199384188733  0.4414114924161581  1.0000
  Cd  Cd2       1.0  0.3725720973139204  0.8644648285296129  0.5585872594550736  1.0000
  H   H1        1.0  0.053105107893330256  0.9197712618298443  0.382708255141651  1.0000
  H   H2        1.0  0.946890778705999  0.0802266173725386  0.61728983630573  1.0000
  H   H3        1.0  0.11212854261756185  0.696237164993022  0.24233092437928147  1.0000
  H   H4        1.0  0.8878657859354249  0.3037596300616699  0.7576657716529311  1.0000
  H   H5        1.0  0.1728753045625595  0.6504505787007774  0.015497130190013338  1.0000
  H   H6        1.0  0.8271295067140231  0.3495526917292367  0.9845034160712487  1.0000
  H   H7        1.0  0.2907399471388743  0.833254963305194  0.10232319044848033  1.0000
  H   H8        1.0  0.709263742477859  0.16674834345032247  0.8976827970527168  1.0000
  H   H9        1.0  0.0967389851656222  0.90082284196545  0.9805275619912522  1.0000
  H   H10       1.0  0.9032711940237023  0.09918582644871783  0.019477978134574404  1.0000
  H   H11       1.0  0.9833354833117769  0.7168186184028187  0.8915783974808704  1.0000
  H   H12       1.0  0.016676189995571595  0.2831911000857161  0.10842394317040767  1.0000
  H   H13       1.0  0.7792304579131727  0.8031967952798241  0.028942085036504684  1.0000
  H   H14       1.0  0.22077495763745966  0.19680857298861557  0.9710528359981936  1.0000
  H   H15       1.0  0.03863250105275281  0.048210010654841505  0.1851046980682014  1.0000
  H   H16       1.0  0.961367889186683  0.9517943279250647  0.814897799447607  1.0000
  H   H17       1.0  0.7902030891885375  0.24898091223259658  0.2318728154559082  1.0000
  H   H18       1.0  0.2097939574276353  0.7510169510882889  0.7681225916853692  1.0000
  H   H19       1.0  0.9170432585301783  0.48005876287214727  0.20993719305213426  1.0000
  H   H20       1.0  0.08296003305704862  0.5199434438541743  0.7900647147277838  1.0000
  H   H21       1.0  0.9200975710397118  0.7128212187882357  0.3989657463013287  1.0000
  H   H22       1.0  0.07990353265578425  0.28717779232264473  0.6010385533340852  1.0000
  H   H23       1.0  0.7923930128935482  0.7055345463763417  0.5915406425446151  1.0000
  H   H24       1.0  0.2076028992771128  0.2944633464553732  0.4084592868586512  1.0000
  H   H25       1.0  0.6499025068466724  0.6852557094677112  0.7259201281414462  1.0000
  H   H26       1.0  0.3500965896303115  0.314741090207626  0.27407502044573556  1.0000
  H   H27       1.0  0.5020919338904904  0.6494729813382419  0.9025773757363424  1.0000
  H   H28       1.0  0.49790825438969943  0.3505270639073502  0.09742266019116393  1.0000
  H   H29       1.0  0.4047188595433442  0.3997525580256608  0.8953659195788859  1.0000
  H   H30       1.0  0.5952852835308564  0.6002485804926183  0.1046356570192232  1.0000
  H   H31       1.0  0.47851855750977296  0.20066299326344966  0.718761069675395  1.0000
  H   H32       1.0  0.5214785402490563  0.7993348973160865  0.2812380133776458  1.0000
  C   C1        1.0  0.2726730492238263  0.014398395271662406  0.331984344697311  1.0000
  C   C2        1.0  0.727324912807646  0.9855984339145042  0.668015326151867  1.0000
  C   C3        1.0  0.0949672482970455  0.9193055232615491  0.2899698295161385  1.0000
  C   C4        1.0  0.9050298494617908  0.08069236731799384  0.7100292535369092  1.0000
  C   C5        1.0  0.07987854943764461  0.7627220833162768  0.19266995818387764  1.0000
  C   C6        1.0  0.9201176712628792  0.23727686184197685  0.8073276180950869  1.0000
  C   C7        1.0  0.16436503091736657  0.7593565438990313  0.07228785105099436  1.0000
  C   C8        1.0  0.8356373963972177  0.2406467242206675  0.9277134689327796  1.0000
  C   C9        1.0  0.03903681777220666  0.8019471507397142  0.9920915113471197  1.0000
  C   C10       1.0  0.9609709263124628  0.19806148810547344  0.007911126589441233  1.0000
  C   C11       1.0  0.904871414771279  0.8195878837911864  0.08003422322877189  1.0000
  C   C12       1.0  0.09513249387566701  0.18041642758821302  0.9199629783025287  1.0000
  C   C13       1.0  0.9705774732732667  0.9592349085272079  0.20794650359594175  1.0000
  C   C14       1.0  0.0294209992473071  0.04076726631980419  0.7920532757172296  1.0000
  C   C15       1.0  0.8367795260303339  0.0111113374183205  0.2823904080790953  1.0000
  C   C16       1.0  0.1632208455344682  0.988885507707501  0.7176103270034488  1.0000
  C   C17       1.0  0.794952372326776  0.3531351164696019  0.3095041456748433  1.0000
  C   C18       1.0  0.20504864186906968  0.6468638469386293  0.6904937211149758  1.0000
  C   C19       1.0  0.8656344499145804  0.4811964555746188  0.2984442616621195  1.0000
  C   C20       1.0  0.13436437638953438  0.5187993122181637  0.7015559969831955  1.0000
  C   C21       1.0  0.8655903508986926  0.6095283940470609  0.4017551017193952  1.0000
  C   C22       1.0  0.13441106132665942  0.39047166939035804  0.59824684479171  1.0000
  C   C23       1.0  0.7942621211442361  0.6056935936392734  0.5112167379281232  1.0000
  C   C24       1.0  0.20573346971090706  0.39430324005122946  0.4887846256215127  1.0000
  C   C25       1.0  0.7238690022275025  0.4727048542988043  0.5149003786977531  1.0000
  C   C26       1.0  0.27612894701830737  0.5272919680726957  0.48509837317348564  1.0000
  C   C27       1.0  0.6424954208328445  0.46039480349558914  0.6273546450633845  1.0000
  C   C28       1.0  0.35750251562730284  0.5396020120612447  0.3726431878299081  1.0000
  C   C29       1.0  0.6130102396098068  0.5792250620643388  0.7272025630155667  1.0000
  C   C30       1.0  0.38698922932535856  0.42077282401086075  0.2727948273370231  1.0000
  C   C31       1.0  0.529074341686048  0.5586325926217699  0.8259595620904179  1.0000
  C   C32       1.0  0.4709261679096672  0.4413685117650348  0.1740390396907259  1.0000
  C   C33       1.0  0.47713746217811365  0.4215694497883931  0.8238742219355187  1.0000
  C   C34       1.0  0.5228642713627636  0.5784316727902308  0.17612629042921676  1.0000
  C   C35       1.0  0.5141938035564736  0.3094156877932975  0.7234332334410496  1.0000
  C   C36       1.0  0.4858060378368663  0.6905832846817647  0.2765663986769411  1.0000
  N   N1        1.0  0.7263282535174869  0.3494381391432243  0.4148279903554696  1.0000
  N   N2        1.0  0.27366659242129304  0.6505565217475537  0.5851688896633647  1.0000
  N   N3        1.0  0.5948471991361189  0.3287066379251017  0.6280682179198465  1.0000
  N   N4        1.0  0.40515075010969076  0.6712901844463985  0.37193053395139225  1.0000
  O   O1        1.0  0.3744874428062772  0.9772738352489655  0.3996711207847099  1.0000
  O   O2        1.0  0.6255096933095459  0.022724075774568996  0.6003307192021623  1.0000
  O   O3        1.0  0.3200393539056067  0.11906368754831931  0.3016091839592717  1.0000
  O   O4        1.0  0.6799601533865529  0.8809342189708718  0.6983909633271425  1.0000
  O   O5        1.0  0.6911045654334844  0.9843431398466649  0.2181896388593144  1.0000
  O   O6        1.0  0.30888894410055207  0.0156472572206354  0.7818093018332135  1.0000
  O   O7        1.0  0.8811739073362265  0.08711805580242782  0.4095493222117454  1.0000
  O   O8        1.0  0.11882385862497813  0.9128819666888575  0.5904487305044485  1.0000
  O   O9        1.0  0.9040484846611534  0.7098945529190744  0.1320901853301351  1.0000
  O   O10       1.0  0.0959507498467431  0.2901065060172455  0.8679028299556392  1.0000
