data_image0
_chemical_formula_structural       Al4H20C60N8O20
_chemical_formula_sum              "Al4 H20 C60 N8 O20"
_cell_length_a       6.713415968997564
_cell_length_b       19.675885175363348
_cell_length_c       20.762826328337994
_cell_angle_alpha    101.78652813750014
_cell_angle_beta     93.07157278762476
_cell_angle_gamma    92.84609885129187

_space_group_name_H-M_alt    "P 1"
_space_group_IT_number       1

loop_
  _space_group_symop_operation_xyz
  'x, y, z'

loop_
  _atom_site_type_symbol
  _atom_site_label
  _atom_site_symmetry_multiplicity
  _atom_site_fract_x
  _atom_site_fract_y
  _atom_site_fract_z
  _atom_site_occupancy
  Al  Al1       1.0  0.756460684394689  0.24986498437268526  0.7502616281769435  1.0000
  Al  Al2       1.0  0.24354611109598784  0.7501233591082085  0.24972810282172023  1.0000
  Al  Al3       1.0  0.2565045583392376  0.25052035585841287  0.7501225287407466  1.0000
  Al  Al4       1.0  0.7435021645461362  0.7494680869271874  0.24986523675524105  1.0000
  H   H1        1.0  0.2235086625419669  0.5636091284099934  0.11572967565974318  1.0000
  H   H2        1.0  0.7764951058525043  0.436373570720562  0.8842648760166156  1.0000
  H   H3        1.0  0.2678455808076592  0.9374798791211418  0.38567419739959524  1.0000
  H   H4        1.0  0.7321853443416587  0.06251190024337208  0.6143184068698915  1.0000
  H   H5        1.0  0.05772600032585732  0.5649773313340704  0.6139013880150729  1.0000
  H   H6        1.0  0.9421428439699044  0.435062229079108  0.38613267891215497  1.0000
  H   H7        1.0  0.5156046286513529  0.9356577560064494  0.8864233478820794  1.0000
  H   H8        1.0  0.4844701505501661  0.0643399115066714  0.11357787172421752  1.0000
  H   H9        1.0  0.6633077429436157  0.6347539128581516  0.054834703652773  1.0000
  H   H10       1.0  0.33671279422691924  0.3652417742550611  0.9451553058288911  1.0000
  H   H11       1.0  0.8268873759115253  0.8628392802428518  0.4429775242018651  1.0000
  H   H12       1.0  0.17312842210472476  0.13715103693188274  0.5570113850740128  1.0000
  H   H13       1.0  0.6734587492338093  0.43557052713772043  0.48588163304351184  1.0000
  H   H14       1.0  0.3264329990466167  0.564475710570548  0.5141587509055228  1.0000
  H   H15       1.0  0.1961112318347062  0.0641975315014562  0.010224805621533101  1.0000
  H   H16       1.0  0.8039577220042489  0.9358027942515504  0.9897773224539891  1.0000
  H   H17       1.0  0.518445217943956  0.33831694211622226  0.7444738350065806  1.0000
  H   H18       1.0  0.4815602148351417  0.6616694491056165  0.2555212630284274  1.0000
  H   H19       1.0  0.9975913069610628  0.16236372417613154  0.7567929243694709  1.0000
  H   H20       1.0  0.002416973059389702  0.8376262704214456  0.2431948781671238  1.0000
  C   C1        1.0  0.5142040990844308  0.17552128655176352  0.8284973228761034  1.0000
  C   C2        1.0  0.4857861646330122  0.8244626236071184  0.17149407172182413  1.0000
  C   C3        1.0  0.9970261756372311  0.32482573212519844  0.6719084365930925  1.0000
  C   C4        1.0  0.0029711803618183985  0.6751765221397009  0.32809254679294503  1.0000
  C   C5        1.0  0.4708110609697727  0.15953301795268976  0.6527616938562063  1.0000
  C   C6        1.0  0.5292064062873081  0.8404601775061026  0.34722873819706734  1.0000
  C   C7        1.0  0.0416734934486698  0.3409956584349274  0.8476556851830283  1.0000
  C   C8        1.0  0.958339610471896  0.6589975722783806  0.1523376241088954  1.0000
  C   C9        1.0  0.9459140379380813  0.6038231138567769  0.0907826319159426  1.0000
  C   C10       1.0  0.054097545919788104  0.39617039772493007  0.9092096723600918  1.0000
  C   C11       1.0  0.5446288415692564  0.8955549805285231  0.40879726268775585  1.0000
  C   C12       1.0  0.45538843215300784  0.10443444380825184  0.5911921549511734  1.0000
  C   C13       1.0  0.23300823147262414  0.45333043580542665  0.011874240557254704  1.0000
  C   C14       1.0  0.7669897203830445  0.5466574655196512  0.988118782763195  1.0000
  C   C15       1.0  0.2688534232091655  0.0480724168609967  0.48965737088377653  1.0000
  C   C16       1.0  0.7311458728218979  0.9519165203829447  0.5103307693879701  1.0000
  C   C17       1.0  0.22008269489747792  0.40177263243846545  0.9550511579531931  1.0000
  C   C18       1.0  0.7799300727057883  0.598216618858615  0.044937694128385906  1.0000
  C   C19       1.0  0.2872310587659328  0.09976615975864432  0.5463400339224762  1.0000
  C   C20       1.0  0.7127861964201473  0.9002223482379463  0.45364986770408683  1.0000
  C   C21       1.0  0.9042614020414845  0.4422995587003626  0.9200811287274535  1.0000
  C   C22       1.0  0.09574078736496008  0.5576852507507082  0.0799089920239382  1.0000
  C   C23       1.0  0.6024603153272422  0.05738544252889713  0.5793283931168534  1.0000
  C   C24       1.0  0.3975463865938451  0.9426024908201145  0.4206593681573949  1.0000
  C   C25       1.0  0.9169128665921775  0.49686666217944964  0.9762788232861511  1.0000
  C   C26       1.0  0.08308054207212481  0.5031192334255508  0.0237146024522232  1.0000
  C   C27       1.0  0.5843651468491944  0.002723535671059124  0.5231616961316591  1.0000
  C   C28       1.0  0.41564930941977  0.9972653386811958  0.47683258440228843  1.0000
  C   C29       1.0  0.033442413992155216  0.5362184288424032  0.5629961206445558  1.0000
  C   C30       1.0  0.9664445346692149  0.4638205037140253  0.4370436386428622  1.0000
  C   C31       1.0  0.5097182431277291  0.9641506063237415  0.9371991285908265  1.0000
  C   C32       1.0  0.49036699819730256  0.035846818801459804  0.06280274985275011  1.0000
  C   C33       1.0  0.8547420899545982  0.5462143817218674  0.5144808239585288  1.0000
  C   C34       1.0  0.14514480132088184  0.45383014495214985  0.48555160796658464  1.0000
  C   C35       1.0  0.33711302402691257  0.9537400498603431  0.9831296114051895  1.0000
  C   C36       1.0  0.6629544759589905  0.0462575065981099  0.0168764021916203  1.0000
  C   C37       1.0  0.0031983219122722053  0.6301279296696195  0.3747989937736876  1.0000
  C   C38       1.0  0.996783891050775  0.36989059247679285  0.625217589043217  1.0000
  C   C39       1.0  0.4905153805485014  0.869335298750528  0.12467396437368453  1.0000
  C   C40       1.0  0.5094962008812516  0.13065861973479545  0.8753178516929766  1.0000
  C   C41       1.0  0.18206402909947883  0.5352587564300679  0.5079152680853127  1.0000
  C   C42       1.0  0.8178227363902623  0.46478271362445883  0.4921171385094071  1.0000
  C   C43       1.0  0.6696680716314916  0.9648914466565872  0.9943961728651162  1.0000
  C   C44       1.0  0.3303990419355359  0.0351065037923988  0.005599520787164602  1.0000
  C   C45       1.0  0.007290096619676904  0.5452815786925527  0.4575672005611723  1.0000
  C   C46       1.0  0.992614901449521  0.4547619132210984  0.5424714119335051  1.0000
  C   C47       1.0  0.501372493456799  0.9543871744058167  0.042193114745714404  1.0000
  C   C48       1.0  0.4986769626282524  0.04561294512274833  0.957806730946743  1.0000
  C   C49       1.0  0.008182481354566604  0.5910978679155859  0.4133165236309893  1.0000
  C   C50       1.0  0.9917603935928767  0.40893236482259004  0.586712284471389  1.0000
  C   C51       1.0  0.4982566132994393  0.9084168848010136  0.0862626705705765  1.0000
  C   C52       1.0  0.501791163832344  0.09158198405793169  0.9137336995069986  1.0000
  C   C53       1.0  0.3993121238955482  0.4579689871246729  0.0586322202970635  1.0000
  C   C54       1.0  0.6006890333717365  0.5420228348598642  0.9413623586196638  1.0000
  C   C55       1.0  0.0997729512178651  0.044300388471434415  0.4441899212958163  1.0000
  C   C56       1.0  0.9002367650081311  0.9556872875114237  0.5557988693697383  1.0000
  C   C57       1.0  0.7090051324233075  0.5960474780060211  0.5291129901780849  1.0000
  C   C58       1.0  0.2908968859852479  0.40399851085778954  0.4709231367406376  1.0000
  C   C59       1.0  0.1715194414833263  0.9042661887082561  0.9663548397858792  1.0000
  C   C60       1.0  0.8285477164403829  0.09573237371027689  0.03364135051923971  1.0000
  N   N1        1.0  0.5360870942573186  0.46262898402171954  0.09690792329705292  1.0000
  N   N2        1.0  0.46391569671786936  0.5373676482319708  0.9030852449191044  1.0000
  N   N3        1.0  0.9603685525248551  0.040393639064028306  0.4070866478848814  1.0000
  N   N4        1.0  0.03964254187003041  0.9595893761871324  0.5929040946631687  1.0000
  N   N5        1.0  0.5901472478003456  0.637562278640111  0.5407621296796493  1.0000
  N   N6        1.0  0.409750376594971  0.3624848636560714  0.45927491741851173  1.0000
  N   N7        1.0  0.035723248557516706  0.8632291886557937  0.953412984239627  1.0000
  N   N8        1.0  0.9643485090547799  0.13676995693431587  0.046585741347257716  1.0000
  O   O1        1.0  0.3091303099006808  0.18682343071701982  0.6703757676101105  1.0000
  O   O2        1.0  0.6908703400182007  0.8131649148313403  0.32960944245042617  1.0000
  O   O3        1.0  0.870084630025552  0.3262593930379225  0.8173143445357239  1.0000
  O   O4        1.0  0.1299222453547415  0.6737276304274432  0.18267881659374302  1.0000
  O   O5        1.0  0.6853857354314742  0.19936849631422157  0.8169820929674716  1.0000
  O   O6        1.0  0.314614877415039  0.8006180165537486  0.18300408506834032  1.0000
  O   O7        1.0  0.16654404523132632  0.3144820369563917  0.697597290011757  1.0000
  O   O8        1.0  0.8334556339018352  0.6855110847697077  0.30239629233254567  1.0000
  O   O9        1.0  0.6426693572150485  0.17358098272526232  0.6830871726719749  1.0000
  O   O10       1.0  0.35733896473398374  0.8264100307454783  0.3169006383080912  1.0000
  O   O11       1.0  0.20430037387161806  0.31437476706676654  0.8301057574595562  1.0000
  O   O12       1.0  0.7957214406139032  0.6856170698937022  0.16988276955206771  1.0000
  O   O13       1.0  0.8269144684999719  0.30031615257525607  0.6836560335652778  1.0000
  O   O14       1.0  0.1730975033162068  0.6996807296813898  0.31634268920205244  1.0000
  O   O15       1.0  0.345729371970272  0.18631072133804596  0.8024104364117977  1.0000
  O   O16       1.0  0.6542801692570848  0.8136740998629932  0.19757685585177853  1.0000
  O   O17       1.0  0.513693009954551  0.29253036372458746  0.7550440744909539  1.0000
  O   O18       1.0  0.4863106074844411  0.7074575193916743  0.24494118009867805  1.0000
  O   O19       1.0  0.9999146319722811  0.20783825577147746  0.7455324982557059  1.0000
  O   O20       1.0  8.901857153630162e-05  0.7921481022633117  0.25445520160251794  1.0000
