data_image0
_chemical_formula_structural       Cu2H16C18N16
_chemical_formula_sum              "Cu2 H16 C18 N16"
_cell_length_a       7.374793112186041
_cell_length_b       8.580476475013228
_cell_length_c       10.35723642988976
_cell_angle_alpha    102.60422692732578
_cell_angle_beta     93.68657601847204
_cell_angle_gamma    112.96625226442089

_space_group_name_H-M_alt    "P 1"
_space_group_IT_number       1

loop_
  _space_group_symop_operation_xyz
  'x, y, z'

loop_
  _atom_site_type_symbol
  _atom_site_label
  _atom_site_symmetry_multiplicity
  _atom_site_fract_x
  _atom_site_fract_y
  _atom_site_fract_z
  _atom_site_occupancy
  Cu  Cu1       1.0  0.9999971518717387  1.934496801000159e-06  0.9999993388159754  1.0000
  Cu  Cu2       1.0  0.49999843416875206  0.9999937288740525  0.4999993790404675  1.0000
  H   H1        1.0  0.8383860244438777  0.7248499607888732  0.1331617682000115  1.0000
  H   H2        1.0  0.161617124934871  0.27515324462101637  0.8668385803899885  1.0000
  H   H3        1.0  0.66966924659539  0.3177389210557351  0.7759349540292676  1.0000
  H   H4        1.0  0.33033452398152713  0.6822655914726212  0.22406468976670627  1.0000
  H   H5        1.0  0.8955996684222426  0.7899572871871711  0.7010938054461634  1.0000
  H   H6        1.0  0.10441350816800817  0.21004978307475136  0.2989086137223894  1.0000
  H   H7        1.0  0.676928093465655  0.5935808821774698  0.626153736651098  1.0000
  H   H8        1.0  0.323082304294239  0.406428857716314  0.3738500155116712  1.0000
  H   H9        1.0  0.9144917135234962  0.5878652852398362  0.6361947392567588  1.0000
  H   H10       1.0  0.08551677217644739  0.4121405115839565  0.36380725923802265  1.0000
  H   H11       1.0  0.710614806035842  0.4274960818116397  0.1822126125747374  1.0000
  H   H12       1.0  0.2893822019147762  0.5725084958983402  0.8177867671290999  1.0000
  H   H13       1.0  0.7526997226241647  0.2670590758160571  0.06276384486514532  1.0000
  H   H14       1.0  0.24729811466612248  0.7329415490372283  0.9372367878451231  1.0000
  H   H15       1.0  0.5139063433488219  0.2725835696876119  0.05151051460192953  1.0000
  H   H16       1.0  0.48608855651671223  0.7274223303561982  0.9484861206459672  1.0000
  C   C1        1.0  0.8042189089394182  0.6092914587863516  0.822338659350635  1.0000
  C   C2        1.0  0.1957855929645973  0.3907117335872101  0.17766174205779356  1.0000
  C   C3        1.0  0.726107844591084  0.44370333282041935  0.8495320652531151  1.0000
  C   C4        1.0  0.273902724961225  0.5563011308122513  0.15047074367256397  1.0000
  C   C5        1.0  0.7366475221280453  0.4751114785062783  0.9881930203636461  1.0000
  C   C6        1.0  0.2633542747254509  0.5248917399399389  0.011807275407932093  1.0000
  C   C7        1.0  0.824349415169017  0.6484181705169904  0.6894421383856157  1.0000
  C   C8        1.0  0.1756616775688754  0.35159023293605424  0.31055947035204673  1.0000
  C   C9        1.0  0.6753053795779278  0.35437340893226826  0.0762900696718845  1.0000
  C   C10       1.0  0.3246937122250485  0.6456298355865968  0.9237101204628362  1.0000
  C   C11       1.0  0.343148311826333  0.9949505269941668  0.7879568626933635  1.0000
  C   C12       1.0  0.6568402295795509  0.005044912852284299  0.21204245705082067  1.0000
  C   C13       1.0  0.6481426622692579  0.9882626073544927  0.8142374198799021  1.0000
  C   C14       1.0  0.35185131347039084  0.011732791203954202  0.18576404516304024  1.0000
  C   C15       1.0  0.9510308509467434  0.2135129766181265  0.5890428134197451  1.0000
  C   C16       1.0  0.0489640895758966  0.7864731765365603  0.41095606035496973  1.0000
  C   C17       1.0  0.2644012524169098  0.2163873770700846  0.5856563473209135  1.0000
  C   C18       1.0  0.7355982204016484  0.7836026550814096  0.4143376166709772  1.0000
  N   N1        1.0  0.8602012142659631  0.7354345654488698  0.939154388989593  1.0000
  N   N2        1.0  0.13980455426710847  0.2645712520189249  0.0608465368558129  1.0000
  N   N3        1.0  0.8191358682548966  0.6515925164278613  0.03732454604460863  1.0000
  N   N4        1.0  0.18086918106743607  0.34841462662337364  0.9626765892008539  1.0000
  N   N5        1.0  0.2094851260530817  0.0282627055651403  0.8204923456329782  1.0000
  N   N6        1.0  0.7905080082305388  0.971736640421355  0.17950689939100076  1.0000
  N   N7        1.0  0.48281492981888596  0.9542667671098426  0.7397922322338462  1.0000
  N   N8        1.0  0.5171757439048077  0.0457273612600773  0.2602117659913219  1.0000
  N   N9        1.0  0.8058450709579503  0.0195294895060343  0.8724425090855877  1.0000
  N   N10       1.0  0.1941480501276444  0.9804725271829043  0.12756300963208392  1.0000
  N   N11       1.0  0.7801605331462013  0.17521866489828136  0.5550944164646057  1.0000
  N   N12       1.0  0.2198344437255313  0.8247675045423504  0.4449073583476847  1.0000
  N   N13       1.0  0.1380482876583286  0.27089713640078367  0.6369158390845799  1.0000
  N   N14       1.0  0.8619491993204418  0.7290915962399254  0.3630778098703972  1.0000
  N   N15       1.0  0.39419908567831646  0.1813436483217288  0.5465968811876041  1.0000
  N   N16       1.0  0.6057963791115739  0.8186437685222429  0.4533935516928907  1.0000
