data_image0
_chemical_formula_structural       Cu2H16Pt2C28N12
_chemical_formula_sum              "Cu2 H16 Pt2 C28 N12"
_cell_length_a       6.875256627778694
_cell_length_b       9.239331744755779
_cell_length_c       11.58022743143177
_cell_angle_alpha    89.33882692787705
_cell_angle_beta     88.05850272266561
_cell_angle_gamma    68.15728023057778

_space_group_name_H-M_alt    "P 1"
_space_group_IT_number       1

loop_
  _space_group_symop_operation_xyz
  'x, y, z'

loop_
  _atom_site_type_symbol
  _atom_site_label
  _atom_site_symmetry_multiplicity
  _atom_site_fract_x
  _atom_site_fract_y
  _atom_site_fract_z
  _atom_site_occupancy
  Cu  Cu1       1.0  0.35910929542263414  0.28153085896146024  0.7500977985169399  1.0000
  Cu  Cu2       1.0  0.6408871249219175  0.7184719041484087  0.2499027404710361  1.0000
  H   H1        1.0  0.21163725880161638  0.8562700308635485  0.7129913386430075  1.0000
  H   H2        1.0  0.06883953391931638  0.1437523449303626  0.21293670419608904  1.0000
  H   H3        1.0  0.7883663647676117  0.14373272944158796  0.2870055465523791  1.0000
  H   H4        1.0  0.9311638868178778  0.8562539168271145  0.7870644576950099  1.0000
  H   H5        1.0  0.5409250134432854  0.8337524196274373  0.6042701520867126  1.0000
  H   H6        1.0  0.37562424576098863  0.16622066217134798  0.1042927407981153  1.0000
  H   H7        1.0  0.45909037082802234  0.1662386841864532  0.39573174562119817  1.0000
  H   H8        1.0  0.6243768111460002  0.8337844322528482  0.895706774962072  1.0000
  H   H9        1.0  0.8056246599502193  0.5660745454900463  0.5580749367840028  1.0000
  H   H10       1.0  0.3722740887812392  0.43389324642343036  0.0580560334290467  1.0000
  H   H11       1.0  0.19438974522641675  0.4339130669528259  0.4419356709772018  1.0000
  H   H12       1.0  0.6277254764659473  0.5661118466844499  0.9419417964154775  1.0000
  H   H13       1.0  0.7269020476664139  0.3350922835058086  0.6207794877593997  1.0000
  H   H14       1.0  0.06209823900643138  0.6648940490080335  0.12061265796693019  1.0000
  H   H15       1.0  0.2731041862073696  0.6648999925311969  0.3792304200063228  1.0000
  H   H16       1.0  0.9379019639497416  0.3351098800696307  0.8793877606759322  1.0000
  Pt  Pt1       1.0  0.9999905934381704  4.7144114390001e-06  0.9999994288574072  1.0000
  Pt  Pt2       1.0  0.9999932720276236  0.9999968762451633  0.49999916274401807  1.0000
  C   C1        1.0  0.7440384543858727  0.1681708640254129  0.9450731094515419  1.0000
  C   C2        1.0  0.9123568435714876  0.8316457836979511  0.44495529041802934  1.0000
  C   C3        1.0  0.2559480272855979  0.8318400601328194  0.05492586792931319  1.0000
  C   C4        1.0  0.08763976619531631  0.1683476471305028  0.5550401868595216  1.0000
  C   C5        1.0  0.17573832641555504  0.07316591699187573  0.8939349829305456  1.0000
  C   C6        1.0  0.24913314912114246  0.9267966305988935  0.3939850955263466  1.0000
  C   C7        1.0  0.8242408791528607  0.9268450072892802  0.10606419585120357  1.0000
  C   C8        1.0  0.7508556197119917  0.07319796706449473  0.6060114467454625  1.0000
  C   C9        1.0  0.29083315798397563  0.6070227788784023  0.719110543795658  1.0000
  C   C10       1.0  0.8983574621575698  0.39297473177136777  0.2189596830279967  1.0000
  C   C11       1.0  0.7091687941228176  0.3929776520745847  0.28088987336091975  1.0000
  C   C12       1.0  0.10164390689902089  0.6070268652231833  0.7810407346240069  1.0000
  C   C13       1.0  0.3265046907264095  0.7422735131032924  0.6890548129726993  1.0000
  C   C14       1.0  0.0695334823326306  0.2577215114479188  0.1889631130603462  1.0000
  C   C15       1.0  0.6735013014828369  0.2577245843765112  0.3109437964368169  1.0000
  C   C16       1.0  0.9304701958953817  0.7422812508685722  0.8110363614288048  1.0000
  C   C17       1.0  0.5112717628206981  0.7296241462386776  0.6292509851257222  1.0000
  C   C18       1.0  0.24173099032689296  0.27034964399007316  0.1292345904866039  1.0000
  C   C19       1.0  0.4887415649601934  0.2703681229709148  0.37075009025987526  1.0000
  C   C20       1.0  0.7582741066825421  0.7296531169609323  0.8707631175265219  1.0000
  C   C21       1.0  0.6581282299360468  0.5818216284304186  0.6035508495392888  1.0000
  C   C22       1.0  0.24056976994828735  0.41815138630590104  0.10353022463744568  1.0000
  C   C23       1.0  0.3418848816030223  0.4181683114024323  0.39645371752731506  1.0000
  C   C24       1.0  0.7594297770793051  0.5818537061315325  0.8964667421091619  1.0000
  C   C25       1.0  0.6142027337335209  0.4519131140561257  0.6373957286903646  1.0000
  C   C26       1.0  0.0664462561807825  0.5480554366957548  0.1372921654714787  1.0000
  C   C27       1.0  0.385803354383505  0.5480791566172911  0.3626072742919817  1.0000
  C   C28       1.0  0.9335524551155955  0.4519484910656004  0.8627065672557207  1.0000
  N   N1        1.0  0.5934136345875344  0.26746893243885944  0.9115720699581686  1.0000
  N   N2        1.0  0.8611060178080122  0.7321386354478463  0.4116341147572413  1.0000
  N   N3        1.0  0.4065753773069929  0.7325396562594195  0.0884225506620311  1.0000
  N   N4        1.0  0.13888746527575074  0.2678524660530429  0.5883649347616782  1.0000
  N   N5        1.0  0.2720856418801461  0.12627354857374232  0.833523584295669  1.0000
  N   N6        1.0  0.3986785857403208  0.873754830755459  0.33352266349348975  1.0000
  N   N7        1.0  0.7279096488031772  0.8737315479601406  0.1664786818790063  1.0000
  N   N8        1.0  0.6013122712126063  0.126244433011756  0.666476349213255  1.0000
  N   N9        1.0  0.43436423013498887  0.46370740875394023  0.6922003834324569  1.0000
  N   N10       1.0  0.8983414433994882  0.5362722549358525  0.192015400879427  1.0000
  N   N11       1.0  0.5656371389216022  0.5362941882406033  0.30780003421954655  1.0000
  N   N12       1.0  0.10165292045464722  0.4637316735697112  0.8079843157862355  1.0000
