data_image0
_chemical_formula_structural       Zn2H14C33Br6N6O11
_chemical_formula_sum              "Zn2 H14 C33 Br6 N6 O11"
_cell_length_a       11.205188719977494
_cell_length_b       15.999974585380638
_cell_length_c       17.201794287639842
_cell_angle_alpha    83.98658735358464
_cell_angle_beta     90.40690536928889
_cell_angle_gamma    86.44748733691313

_space_group_name_H-M_alt    "P 1"
_space_group_IT_number       1

loop_
  _space_group_symop_operation_xyz
  'x, y, z'

loop_
  _atom_site_type_symbol
  _atom_site_label
  _atom_site_symmetry_multiplicity
  _atom_site_fract_x
  _atom_site_fract_y
  _atom_site_fract_z
  _atom_site_occupancy
  Zn  Zn1       1.0  0.48195420132048383  0.5873653947297156  0.5059179605953618  1.0000
  Zn  Zn2       1.0  0.4963405554789516  0.4088811223252691  0.5069124352855853  1.0000
  H   H1        1.0  0.11536835674243663  0.38974199947789157  0.5535874681788258  1.0000
  H   H2        1.0  0.3979047556773451  0.5747732182266108  0.8987807389629907  1.0000
  H   H3        1.0  0.3484595337269453  0.5883971564836873  0.1014343036970971  1.0000
  H   H4        1.0  0.1244940001501931  0.6255516638821634  0.41301991790225406  1.0000
  H   H5        1.0  0.36847248261023674  0.31719611032882983  0.6145816076250201  1.0000
  H   H6        1.0  0.6971216707759352  0.38089184569201967  0.6832229843712199  1.0000
  H   H7        1.0  0.6744787223792129  0.3755490049854587  0.8985189091912531  1.0000
  H   H8        1.0  0.6263146682762794  0.7121308449216174  0.43393250163241254  1.0000
  H   H9        1.0  0.6583745550414334  0.1514538676443422  0.3819673736319019  1.0000
  H   H10       1.0  0.6347851335591698  0.3031807632257398  0.410056550617739  1.0000
  H   H11       1.0  0.3921777203344732  0.09689361474741533  0.5580457057814885  1.0000
  H   H12       1.0  0.3596693019933497  0.8905646650431083  0.5812151214519687  1.0000
  H   H13       1.0  0.886697793218012  0.5571675571089616  0.5281616703005626  1.0000
  H   H14       1.0  0.3743753891200541  0.5760306102623787  0.7533665688951461  1.0000
  C   C1        1.0  0.5073985630190805  0.5204129170758736  0.35479281400202484  1.0000
  C   C2        1.0  0.5109602444364042  0.47714526560748294  0.7449197651103746  1.0000
  C   C3        1.0  0.5962310085620501  0.419829603430749  0.785704162375197  1.0000
  C   C4        1.0  0.7209068576177203  0.49622893312423594  0.5162464834407532  1.0000
  C   C5        1.0  0.608272621436761  0.4193896511117573  0.866841799692729  1.0000
  C   C6        1.0  0.44144152990989477  0.2244192227946941  0.5366984867854896  1.0000
  C   C7        1.0  0.44929389012423104  0.13978371510798135  0.5248081283209275  1.0000
  C   C8        1.0  0.529763778588645  0.11211570877845392  0.4698293456947554  1.0000
  C   C9        1.0  0.5969177101832911  0.17087696011684983  0.4264084684642526  1.0000
  C   C10       1.0  0.5842326428247661  0.2547922494100306  0.44194547063668926  1.0000
  C   C11       1.0  0.5852357048157373  0.8403974568319017  0.4599918725385094  1.0000
  C   C12       1.0  0.6204553392263462  0.49831417615482115  0.2302449376137972  1.0000
  C   C13       1.0  0.5679027146123302  0.7544135097434578  0.46455465636029203  1.0000
  C   C14       1.0  0.5079004158394298  0.8912798036778042  0.502497311810302  1.0000
  C   C15       1.0  0.40453051748600893  0.767120654929265  0.5450751229671055  1.0000
  C   C16       1.0  0.49163835097684216  0.480557280669494  0.6583508527750226  1.0000
  C   C17       1.0  0.4181232372078441  0.8525788067076123  0.5466834360813237  1.0000
  C   C18       1.0  0.25939671812253096  0.4980183444826595  0.4906525782131156  1.0000
  C   C19       1.0  0.06428777971567708  0.43920015871068346  0.516242538099654  1.0000
  C   C20       1.0  0.12675079662323438  0.49915406172225835  0.47621128321403466  1.0000
  C   C21       1.0  0.9351781469852868  0.4324565565497381  0.5141636153302757  1.0000
  C   C22       1.0  0.8526485269204682  0.49609703376356157  0.520437072231033  1.0000
  C   C23       1.0  0.6259173032721819  0.497053554077155  0.1487704815528303  1.0000
  C   C24       1.0  0.5161166516681278  0.5272521385919049  0.2667464928341658  1.0000
  C   C25       1.0  0.07592830221767598  0.5667105412464084  0.4168575095658085  1.0000
  C   C26       1.0  0.3562683660936301  0.25377348594455634  0.5967512723647843  1.0000
  C   C27       1.0  0.6808305672881899  0.36263044659360605  0.7461242264749117  1.0000
  C   C28       1.0  0.5239869477565335  0.5275492458946758  0.10271686681499399  1.0000
  C   C29       1.0  0.4235148117321898  0.5624578316505193  0.13874859186871194  1.0000
  C   C30       1.0  0.41893767037134205  0.5605737791798832  0.219375026161714  1.0000
  C   C31       1.0  0.45281865257351933  0.5322555883472475  0.8662999302232707  1.0000
  C   C32       1.0  0.43998625419288817  0.5326472369984574  0.7860906020014513  1.0000
  C   C33       1.0  0.5387138950235268  0.4758081808776211  0.9070394275391038  1.0000
  Br  Br1       1.0  0.770444051331381  0.4614217755901181  0.10278171776442237  1.0000
  Br  Br2       1.0  0.7558328732626977  0.46340649534676714  0.29533309316465056  1.0000
  Br  Br3       1.0  0.7145929745782311  0.8804522786729763  0.40083290945580796  1.0000
  Br  Br4       1.0  0.27711202000351426  0.719088568506102  0.6010525784179563  1.0000
  Br  Br5       1.0  0.9007265399978978  0.3186101487998628  0.5045985390147295  1.0000
  Br  Br6       1.0  0.27571814502312003  0.6027838933040431  0.26405693388250023  1.0000
  N   N1        1.0  0.5083471438964011  0.5303455224593422  0.020978934935079994  1.0000
  N   N2        1.0  0.5602131431534758  0.47086633424702035  0.9887759915471719  1.0000
  N   N3        1.0  0.5089638743622941  0.28098533891690647  0.49637035554277287  1.0000
  N   N4        1.0  0.5398818427177615  0.02644669826881339  0.45359005369176236  1.0000
  N   N5        1.0  0.5109314583207052  0.9775765735350749  0.5116598140765306  1.0000
  N   N6        1.0  0.4789644831101184  0.7184979872345991  0.5056585704028153  1.0000
  O   O1        1.0  0.5191764746479066  0.5867709938036685  0.38765312631683463  1.0000
  O   O2        1.0  0.2795473447745209  0.2089474572202548  0.6246422595084411  1.0000
  O   O3        1.0  0.7329667660979452  0.2999160070854431  0.7808442118671196  1.0000
  O   O4        1.0  0.48580723470811193  0.4481331377066908  0.3871800945891479  1.0000
  O   O5        1.0  0.6647869560889319  0.5664311723792679  0.525786914954324  1.0000
  O   O6        1.0  0.6732412564718118  0.4287153214320299  0.5033231328978189  1.0000
  O   O7        1.0  0.4601706143914583  0.5523073696804418  0.6227005320837264  1.0000
  O   O8        1.0  0.5074688413255258  0.41193087344568374  0.6271593867656124  1.0000
  O   O9        1.0  0.3061956290497747  0.5686930090461076  0.4804379650342483  1.0000
  O   O10       1.0  0.3138981456065011  0.42688538392834385  0.5109490172991826  1.0000
  O   O11       1.0  0.9921080465229508  0.5587912587596194  0.37272174864894236  1.0000
