data_image0
_chemical_formula_structural       Gd4Cd4H28C20S4N8O44
_chemical_formula_sum              "Gd4 Cd4 H28 C20 S4 N8 O44"
_cell_length_a       8.577891760587008
_cell_length_b       10.54440477500205
_cell_length_c       13.837641326169976
_cell_angle_alpha    89.99994806188712
_cell_angle_beta     101.88323226431496
_cell_angle_gamma    89.99996187680412

_space_group_name_H-M_alt    "P 1"
_space_group_IT_number       1

loop_
  _space_group_symop_operation_xyz
  'x, y, z'

loop_
  _atom_site_type_symbol
  _atom_site_label
  _atom_site_symmetry_multiplicity
  _atom_site_fract_x
  _atom_site_fract_y
  _atom_site_fract_z
  _atom_site_occupancy
  Gd  Gd1       1.0  0.9334416739043689  0.8950127400796859  0.10942399900453373  1.0000
  Gd  Gd2       1.0  0.0665564867637869  0.3950130363632667  0.3905771487740849  1.0000
  Gd  Gd3       1.0  0.06655910477826411  0.10498878034612605  0.890577995838491  1.0000
  Gd  Gd4       1.0  0.9334407111109473  0.604987535693958  0.6094236789147727  1.0000
  Cd  Cd1       1.0  0.6224373001118978  0.4848284434558467  0.1341360719524687  1.0000
  Cd  Cd2       1.0  0.3775619409429609  0.9848300425067863  0.3658637024698874  1.0000
  Cd  Cd3       1.0  0.3775634509173713  0.5151730769716992  0.8658630287432982  1.0000
  Cd  Cd4       1.0  0.622437604961263  0.015171477922045503  0.6341338032796597  1.0000
  H   H1        1.0  0.6278924877039032  0.2612680483777723  0.3375615133357285  1.0000
  H   H2        1.0  0.3721081863033079  0.7612670483932438  0.16243859353879486  1.0000
  H   H3        1.0  0.3721106390077082  0.7387353687899179  0.6624371595676095  1.0000
  H   H4        1.0  0.6278913872553106  0.2387325752933124  0.8375618063587991  1.0000
  H   H5        1.0  0.9995273628968135  0.8980824613532906  0.33563967825198643  1.0000
  H   H6        1.0  0.0004719719257337991  0.3980811674754321  0.16436016779178425  1.0000
  H   H7        1.0  0.0004710193629335965  0.10191811070394863  0.6643605737726401  1.0000
  H   H8        1.0  0.9995275947195453  0.601918456211557  0.8356395085689953  1.0000
  H   H9        1.0  0.8112699885567382  0.9109945928788152  0.3044199006543379  1.0000
  H   H10       1.0  0.1887269427982332  0.41099410676462617  0.19557891544645395  1.0000
  H   H11       1.0  0.18872838679069304  0.089004082438322  0.6955796278342489  1.0000
  H   H12       1.0  0.811271432549198  0.589004568552511  0.8044206130421327  1.0000
  H   H13       1.0  0.016548807490544007  0.6329763540862102  0.1685135784335472  1.0000
  H   H14       1.0  0.9834484243823243  0.13297526948601765  0.3314854672081181  1.0000
  H   H15       1.0  0.9834507591542234  0.3670242179710428  0.8314860979268415  1.0000
  H   H16       1.0  0.016549950965106995  0.8670234058311196  0.6685140612804756  1.0000
  H   H17       1.0  0.05287971806216521  0.6881809140388669  0.2747561384992493  1.0000
  H   H18       1.0  0.9471186523501913  0.1881799763277954  0.22524373297312641  1.0000
  H   H19       1.0  0.9471198624097996  0.31181870964725533  0.725244984935166  1.0000
  H   H20       1.0  0.05287972299723981  0.8118186989893348  0.7747557955154672  1.0000
  H   H21       1.0  0.5585524472961367  0.8863608838294752  0.07115603380284337  1.0000
  H   H22       1.0  0.441445708897497  0.38636092867389504  0.42884367404549534  1.0000
  H   H23       1.0  0.44144712626248156  0.1136387398570804  0.9288443660947505  1.0000
  H   H24       1.0  0.5585526733627618  0.61363869501308  0.571156577979522  1.0000
  H   H25       1.0  0.6246028140600046  0.026523798791508606  0.08291995507796905  1.0000
  H   H26       1.0  0.37539572417934863  0.5265215443496131  0.41707932632734657  1.0000
  H   H27       1.0  0.3753967525852744  0.9734758248954807  0.9170797212828102  1.0000
  H   H28       1.0  0.624603842467458  0.47347523422656923  0.5829203500346123  1.0000
  C   C1        1.0  0.5318810524528531  0.24385508589540453  0.2744673935841248  1.0000
  C   C2        1.0  0.46811727160654476  0.7438539578326555  0.2255338789956055  1.0000
  C   C3        1.0  0.46811733671972183  0.7561464345316723  0.7255335819769184  1.0000
  C   C4        1.0  0.5318846707220998  0.25614566585393556  0.7744653695735265  1.0000
  C   C5        1.0  0.3329968747746149  0.1538586542561617  0.17587718963891766  1.0000
  C   C6        1.0  0.6670015396506699  0.6538582476208958  0.3241234337075979  1.0000
  C   C7        1.0  0.6670074570630717  0.8461428661697072  0.8241230782114141  1.0000
  C   C8        1.0  0.33299565822508737  0.34614042769578657  0.6758773939820413  1.0000
  C   C9        1.0  0.37643262951616663  0.26303790055803944  0.12957622908479743  1.0000
  C   C10       1.0  0.623564468683604  0.763035565690373  0.3704234327112842  1.0000
  C   C11       1.0  0.6235705110231607  0.7369636198682414  0.8704238908929508  1.0000
  C   C12       1.0  0.3764327153659792  0.23696216125691197  0.6295759479051168  1.0000
  C   C13       1.0  0.2133625541468263  0.055747904078437216  0.14552082844753755  1.0000
  C   C14       1.0  0.7866359732429873  0.5557464471515772  0.3544805994395474  1.0000
  C   C15       1.0  0.7866382176214444  0.9442555130883504  0.8544804428578912  1.0000
  C   C16       1.0  0.2133612177189121  0.44425317653580976  0.6455195047128794  1.0000
  C   C17       1.0  0.31664102662546156  0.32399542229157413  0.03270922336687219  1.0000
  C   C18       1.0  0.6833583813676185  0.8239919904931272  0.4672899603095572  1.0000
  C   C19       1.0  0.6833609157011368  0.6760079948761019  0.9672900252006894  1.0000
  C   C20       1.0  0.3166388026819647  0.17600573645415812  0.5327094203068368  1.0000
  S   S1        1.0  0.7961628807242961  0.21930374171989805  0.04370383555431088  1.0000
  S   S2        1.0  0.2038378524690856  0.7193043796653028  0.4562977530402249  1.0000
  S   S3        1.0  0.2038366928343223  0.7806958819666578  0.9562965643432901  1.0000
  S   S4        1.0  0.7961617210890141  0.2806961923915239  0.5437026468569781  1.0000
  N   N1        1.0  0.5019774255596445  0.31764972984781537  0.19358643830996405  1.0000
  N   N2        1.0  0.49801963434762103  0.8176494370980267  0.30641534900647116  1.0000
  N   N3        1.0  0.4980257218925104  0.6823527389483032  0.8064144052042079  1.0000
  N   N4        1.0  0.5019775497019624  0.18234828984925142  0.69358403160993  1.0000
  N   N5        1.0  0.43081133714141373  0.14522840298559464  0.26789775236377267  1.0000
  N   N6        1.0  0.5691882779108184  0.645228159983006  0.2321030259806632  1.0000
  N   N7        1.0  0.5691906190144352  0.8547702723298586  0.7321029432793863  1.0000
  N   N8        1.0  0.4308112887354768  0.35476956696344797  0.7678966503809048  1.0000
  O   O1        1.0  0.18118877881502732  0.9793950788793565  0.21102759846424135  1.0000
  O   O2        1.0  0.8188104681137675  0.4793950837928237  0.2889721804447375  1.0000
  O   O3        1.0  0.8188143686376393  0.020606441546490804  0.7889732450503286  1.0000
  O   O4        1.0  0.1811855246359215  0.5206054882656801  0.7110270522979005  1.0000
  O   O5        1.0  0.13878341900635857  0.0431062022364088  0.056159657166745085  1.0000
  O   O6        1.0  0.8612151151339307  0.5431064943451035  0.44384105762019727  1.0000
  O   O7        1.0  0.8612161614650944  0.9568943698199776  0.9438414662672794  1.0000
  O   O8        1.0  0.13878326712632827  0.4568931293418643  0.5561591944048202  1.0000
  O   O9        1.0  0.2099363950340063  0.27415708700592495  0.9675124845732339  1.0000
  O   O10       1.0  0.7900596779275305  0.7741569613321317  0.5324900539647643  1.0000
  O   O11       1.0  0.7900667593340531  0.7258406399384114  0.03248908247971368  1.0000
  O   O12       1.0  0.2099339598808641  0.22583981724439184  0.4675117771815421  1.0000
  O   O13       1.0  0.3798868935770514  0.43119823996627105  0.0191294079259592  1.0000
  O   O14       1.0  0.620119539412805  0.9311976717542266  0.4808698509379495  1.0000
  O   O15       1.0  0.6201174451739746  0.5688032804591644  0.9808715834611871  1.0000
  O   O16       1.0  0.3798859629837211  0.0688029003022592  0.5191283941749132  1.0000
  O   O17       1.0  0.6256763821723086  0.18560441702389602  0.014093714015736171  1.0000
  O   O18       1.0  0.37432556491985747  0.6856039776663962  0.48590660320142104  1.0000
  O   O19       1.0  0.3743219862607462  0.8143961550342171  0.9859050909352615  1.0000
  O   O20       1.0  0.6256752068504596  0.31439564601930664  0.5140946681055707  1.0000
  O   O21       1.0  0.8188598587696349  0.34577077778479287  0.09376333325720754  1.0000
  O   O22       1.0  0.18114073080968754  0.8457695912630641  0.40623742738609525  1.0000
  O   O23       1.0  0.18114089226013866  0.6542297942724887  0.90623576743895  1.0000
  O   O24       1.0  0.8188612391723354  0.15423003242179328  0.5937647153303016  1.0000
  O   O25       1.0  0.8763149928850211  0.1228458833913209  0.11831749549428137  1.0000
  O   O26       1.0  0.12368346888938221  0.6228457061077465  0.3816846005308887  1.0000
  O   O27       1.0  0.1236845806730784  0.8771546886655059  0.8816829044029216  1.0000
  O   O28       1.0  0.8763137358992026  0.37715391757877376  0.618316950695174  1.0000
  O   O29       1.0  0.8732530530073034  0.22181445922346654  0.9572506300104276  1.0000
  O   O30       1.0  0.12674901919773873  0.7218146852658407  0.5427512440324305  1.0000
  O   O31       1.0  0.12674652055080324  0.7781861128333603  0.042749769886775396  1.0000
  O   O32       1.0  0.8732505474480518  0.2781839900508771  0.4572484323287468  1.0000
  O   O33       1.0  0.9107289496786632  0.93770447635562  0.2868631824816886  1.0000
  O   O34       1.0  0.0892703492282365  0.4377040238362397  0.21313735438536696  1.0000
  O   O35       1.0  0.08927062387995481  0.0622951473309357  0.7131372174159052  1.0000
  O   O36       1.0  0.910729224330382  0.5622955998503159  0.7868630455122338  1.0000
  O   O37       1.0  0.0020999564625369996  0.7097279421021839  0.20512247826336244  1.0000
  O   O38       1.0  0.9979007732553102  0.2097278416878439  0.2948776711639311  1.0000
  O   O39       1.0  0.997900808394441  0.29027168158395267  0.794878069506822  1.0000
  O   O40       1.0  0.0020988003033081985  0.7902717819987117  0.70512272873367  1.0000
  O   O41       1.0  0.648350475712661  0.9383941220349854  0.10525467261808787  1.0000
  O   O42       1.0  0.3516476173239341  0.43839330853026587  0.39474426873351104  1.0000
  O   O43       1.0  0.3516490978459572  0.0616055016515702  0.8947457272795132  1.0000
  O   O44       1.0  0.6483507511106625  0.5616044184170335  0.605254536218652  1.0000
