data_image0
_chemical_formula_structural       CuSiH20C24N4F6
_chemical_formula_sum              "Cu1 Si1 H20 C24 N4 F6"
_cell_length_a       8.140712742683062
_cell_length_b       13.47672491658075
_cell_length_c       13.476716767874759
_cell_angle_alpha    89.71338921041277
_cell_angle_beta     85.82197072522565
_cell_angle_gamma    85.82111933887919

_space_group_name_H-M_alt    "P 1"
_space_group_IT_number       1

loop_
  _space_group_symop_operation_xyz
  'x, y, z'

loop_
  _atom_site_type_symbol
  _atom_site_label
  _atom_site_symmetry_multiplicity
  _atom_site_fract_x
  _atom_site_fract_y
  _atom_site_fract_z
  _atom_site_occupancy
  Cu  Cu1       1.0  0.5000042600991818  0.4999987566893864  0.49999581585525027  1.0000
  Si  Si1       1.0  0.9999955064311475  0.49999914079592145  0.5000048134658712  1.0000
  H   H1        1.0  0.2639805345329335  0.4999508186174851  0.3415161486634304  1.0000
  H   H2        1.0  0.27368739115571117  0.4999612728773429  0.1587106447024667  1.0000
  H   H3        1.0  0.8064420208398885  0.5002039204203541  0.15642015205166618  1.0000
  H   H4        1.0  0.7752452682256956  0.5000766570765194  0.3408442741135218  1.0000
  H   H5        1.0  0.19353993445630374  0.49977947156325797  0.8435615161439144  1.0000
  H   H6        1.0  0.7262920092948235  0.5000422091104754  0.8412932940634192  1.0000
  H   H7        1.0  0.7360171485401208  0.5000541414019395  0.6584892524713837  1.0000
  H   H8        1.0  0.22475937006660016  0.49991267414429785  0.6591379109920226  1.0000
  H   H9        1.0  0.6892606504944822  0.4999812614281183  0.9993331407929916  1.0000
  H   H10       1.0  0.3107142730235068  0.5000088308890014  0.0006591747931707964  1.0000
  H   H11       1.0  0.26397112820837526  0.34151782904806544  0.49994993767245427  1.0000
  H   H12       1.0  0.2736831531398636  0.1587107932845342  0.4999613983881446  1.0000
  H   H13       1.0  0.8064390358123745  0.15642275015664348  0.5002102914305198  1.0000
  H   H14       1.0  0.7752349573815848  0.34084845725393353  0.5000780956564128  1.0000
  H   H15       1.0  0.19353984888627454  0.8435651081331274  0.49978187089104853  1.0000
  H   H16       1.0  0.7262938160586286  0.8412926896463732  0.500038188828789  1.0000
  H   H17       1.0  0.7360227253023053  0.6584886204503277  0.5000496786170459  1.0000
  H   H18       1.0  0.22476723091271109  0.6591401322887619  0.4999145827748208  1.0000
  H   H19       1.0  0.6892592269954035  0.9993366872359674  0.4999869275822633  1.0000
  H   H20       1.0  0.3107146568529089  0.0006615898823839002  0.5000142962548892  1.0000
  C   C1        1.0  0.38175598240984937  0.49996361429431607  0.2976237549733369  1.0000
  C   C2        1.0  0.38926125371815345  0.4999741704987316  0.19459125001414182  1.0000
  C   C3        1.0  0.5426278214106047  0.5000527899107824  0.13928164341604804  1.0000
  C   C4        1.0  0.6832024344441904  0.500156356822245  0.19402459311444184  1.0000
  C   C5        1.0  0.6675377972550081  0.5000714320771921  0.29737955743012623  1.0000
  C   C6        1.0  0.5617012083379153  0.5000014971832556  0.03093933035259509  1.0000
  C   C7        1.0  0.43827429409609653  0.49999380285308354  0.9690573885566849  1.0000
  C   C8        1.0  0.3167832361842215  0.4998367051771809  0.8059650374158452  1.0000
  C   C9        1.0  0.45735155354698515  0.49994102009596736  0.8607149223429572  1.0000
  C   C10       1.0  0.6107200259191642  0.5000241024826408  0.8054089257303332  1.0000
  C   C11       1.0  0.6182376978791453  0.5000339079778655  0.7023766531675477  1.0000
  C   C12       1.0  0.33245825511520616  0.49992757573321717  0.7026088730004929  1.0000
  C   C13       1.0  0.3817483394303451  0.29762589161604314  0.4999637674803594  1.0000
  C   C14       1.0  0.38925585213632974  0.1945929973822871  0.4999754319565355  1.0000
  C   C15       1.0  0.542625359519647  0.13928355772878123  0.5000570602226304  1.0000
  C   C16       1.0  0.6831995302725603  0.1940268358847987  0.5001579850137929  1.0000
  C   C17       1.0  0.6675300447671615  0.29738259671041334  0.5000722311272057  1.0000
  C   C18       1.0  0.5616997103095115  0.0309422070332914  0.5000079118648344  1.0000
  C   C19       1.0  0.4382738807168066  0.969058302422461  0.4999970235625426  1.0000
  C   C20       1.0  0.3167846829738536  0.8059677154076041  0.49983837696405686  1.0000
  C   C21       1.0  0.4573519750474658  0.8607169490734494  0.49994104203809536  1.0000
  C   C22       1.0  0.6107213158569349  0.8054089972778016  0.5000211860339547  1.0000
  C   C23       1.0  0.6182422836369098  0.7023768396523448  0.5000330321613262  1.0000
  C   C24       1.0  0.3324640116307549  0.702611949295445  0.4999252075585758  1.0000
  N   N1        1.0  0.5188889128922868  0.4999891086577363  0.34840313615205076  1.0000
  N   N2        1.0  0.4811118515186123  0.5000113849178689  0.6515902863578802  1.0000
  N   N3        1.0  0.5188786278688439  0.34840579637351954  0.49998722646491695  1.0000
  N   N4        1.0  0.4811174540867852  0.6515924681962275  0.5000093685953075  1.0000
  F   F1        1.0  0.2137301110178456  0.49968582823284885  0.4996781357251122  1.0000
  F   F2        1.0  0.7862645230183957  0.5003035103393358  0.5003252401559521  1.0000
  F   F3        1.0  0.9999760722546681  0.5900514239866581  0.40995325781704384  1.0000
  F   F4        1.0  1.4208381536183838e-05  0.4099431250856754  0.5900554675320748  1.0000
  F   F5        1.0  0.020960768775076095  0.4099409771731075  0.40994366433908164  1.0000
  F   F6        1.0  0.9790335576064068  0.5900610090958552  0.5900641160083779  1.0000
