data_image0
_chemical_formula_structural       Na2H40C34N2O8
_chemical_formula_sum              "Na2 H40 C34 N2 O8"
_cell_length_a       5.694020993178515
_cell_length_b       8.7445659269839
_cell_length_c       16.5781381222841
_cell_angle_alpha    92.60974685534707
_cell_angle_beta     90.00212151359236
_cell_angle_gamma    89.99972365113378

_space_group_name_H-M_alt    "P 1"
_space_group_IT_number       1

loop_
  _space_group_symop_operation_xyz
  'x, y, z'

loop_
  _atom_site_type_symbol
  _atom_site_label
  _atom_site_symmetry_multiplicity
  _atom_site_fract_x
  _atom_site_fract_y
  _atom_site_fract_z
  _atom_site_occupancy
  Na  Na1       1.0  0.1306052082983626  0.4186348170691119  0.9699097505364801  1.0000
  Na  Na2       1.0  0.6305975952194559  0.5813699066379884  0.030099283405391496  1.0000
  H   H1        1.0  0.846957849671753  0.46544195801580207  0.652828606568299  1.0000
  H   H2        1.0  0.34694269215057005  0.5345622647371114  0.3471851953164133  1.0000
  H   H3        1.0  0.20796227011648935  0.6056867524123748  0.7735253293456947  1.0000
  H   H4        1.0  0.7079501814216298  0.3943060239757872  0.2264636353987085  1.0000
  H   H5        1.0  0.8197852663832705  0.6975683112599214  0.3994678253217287  1.0000
  H   H6        1.0  0.3198004067350483  0.3024146277531514  0.6005386326540856  1.0000
  H   H7        1.0  0.19710477862329154  0.8632014293153887  0.5241803638943878  1.0000
  H   H8        1.0  0.6971006925293891  0.13679336945075704  0.4758069913983717  1.0000
  H   H9        1.0  0.9422671512310714  0.5617757066213828  0.5205260273708561  1.0000
  H   H10       1.0  0.4422772267038226  0.43820333508225656  0.47948705221391197  1.0000
  H   H11       1.0  0.1119261277439776  0.774679067236633  0.6625372606898308  1.0000
  H   H12       1.0  0.6119252120043441  0.22531940803455092  0.3374507816037776  1.0000
  H   H13       1.0  0.3677078745796791  0.2231340396032735  0.7254084928044974  1.0000
  H   H14       1.0  0.8677397549926766  0.7768557521900378  0.27459141241908464  1.0000
  H   H15       1.0  0.2136662578415951  0.3417648611907182  0.7974420395597758  1.0000
  H   H16       1.0  0.71367221569745  0.6582280872333257  0.20255649956440885  1.0000
  H   H17       1.0  0.41334609611685375  0.20306255714811533  0.8307948650134943  1.0000
  H   H18       1.0  0.91333582969299  0.7969351984160654  0.1692045778279265  1.0000
  H   H19       1.0  0.2449883628641771  0.0023452605221195  0.3236108752076631  1.0000
  H   H20       1.0  0.7449930119918162  0.9976564422932412  0.6763844060451516  1.0000
  H   H21       1.0  0.26911900728419613  0.0527053659059646  0.42929551197577337  1.0000
  H   H22       1.0  0.7690989303897381  0.9473003589575556  0.5707019332933  1.0000
  H   H23       1.0  0.0924495724423977  0.8927483029184842  0.3958367351488476  1.0000
  H   H24       1.0  0.5924345779581444  0.10726003566013283  0.6041596515799199  1.0000
  H   H25       1.0  0.2740981784040457  0.9026858336861354  0.9429787960751523  1.0000
  H   H26       1.0  0.7741056746898849  0.09731089226298201  0.05702922911160609  1.0000
  H   H27       1.0  0.15244615333322997  0.7412156216330815  0.8872268179732783  1.0000
  H   H28       1.0  0.6524814600487047  0.2587987370614685  0.11276885775926357  1.0000
  H   H29       1.0  0.029885699868742698  0.8022824894022591  0.9825262056452357  1.0000
  H   H30       1.0  0.5299023192222735  0.19771747889869573  0.017470873749836392  1.0000
  H   H31       1.0  0.6578344910110232  0.9680264128670971  0.8137170446815387  1.0000
  H   H32       1.0  0.15787109471447278  0.03199266076356369  0.18628047290234656  1.0000
  H   H33       1.0  0.6550230982015817  0.803192639293009  0.8733861226720874  1.0000
  H   H34       1.0  0.15502216414051867  0.1968183465805496  0.12660943921946444  1.0000
  H   H35       1.0  0.8387941722264217  0.806193807728299  0.7865537468651737  1.0000
  H   H36       1.0  0.3388085695629641  0.19383192608536606  0.21344860132030155  1.0000
  H   H37       1.0  0.7478703527882543  0.34821485266979824  0.7667864440511847  1.0000
  H   H38       1.0  0.2478819899777704  0.6517697830048449  0.23321805485271332  1.0000
  H   H39       1.0  0.8382471134893236  0.16204769863160354  0.8691274376964342  1.0000
  H   H40       1.0  0.3382720362112579  0.8379757457440675  0.13087848469838548  1.0000
  C   C1        1.0  0.633658029031423  0.6266051285193869  0.5904803863154341  1.0000
  C   C2        1.0  0.13365469145671233  0.3733927782285562  0.409522415446986  1.0000
  C   C3        1.0  0.5019717898198478  0.7899138944673966  0.4548058883798446  1.0000
  C   C4        1.0  0.0019664184730175  0.21008312911369842  0.5451957409284275  1.0000
  C   C5        1.0  0.581011745022863  0.4050101120061457  0.7830880010916629  1.0000
  C   C6        1.0  0.0810221221598084  0.5949796514716466  0.21691234228924114  1.0000
  C   C7        1.0  0.6862960685711315  0.5335956655722569  0.6558049351168262  1.0000
  C   C8        1.0  0.18629199307058997  0.46640122638319076  0.3442001142845753  1.0000
  C   C9        1.0  0.6153328584592828  0.480801610969607  0.8679754383592024  1.0000
  C   C10       1.0  0.11533089291242497  0.5191855465015678  0.13202556576371896  1.0000
  C   C11       1.0  0.5340353163814627  0.5216976879599786  0.7202048269133527  1.0000
  C   C12       1.0  0.0340368313641619  0.4782920791970255  0.27979256228693566  1.0000
  C   C13       1.0  0.3273892134375913  0.6132688574479916  0.7224006070428571  1.0000
  C   C14       1.0  0.8273860741908264  0.38672565913795864  0.2775915329639034  1.0000
  C   C15       1.0  0.7136390076756528  0.7038611220052289  0.4541787356367805  1.0000
  C   C16       1.0  0.21363799902923825  0.29613070490011484  0.5458264133678623  1.0000
  C   C17       1.0  0.3593332802361715  0.7972347536524041  0.5226700799651453  1.0000
  C   C18       1.0  0.859326563116447  0.2027628280812053  0.4773240912947755  1.0000
  C   C19       1.0  0.42056474349603684  0.7138639468300171  0.5913120446868874  1.0000
  C   C20       1.0  0.9205691834039056  0.28612480895324666  0.4086828663173562  1.0000
  C   C21       1.0  0.7793570854360254  0.6270323766580503  0.5209999558723695  1.0000
  C   C22       1.0  0.2793507686755348  0.37296104767026617  0.4790097286083179  1.0000
  C   C23       1.0  0.2738525012107687  0.7077248251744166  0.6604698108891967  1.0000
  C   C24       1.0  0.7738560924439427  0.29227068251984173  0.3395194904057347  1.0000
  C   C25       1.0  0.38285934402538396  0.28591986022261306  0.784037814536198  1.0000
  C   C26       1.0  0.8828674147002431  0.7140725758557026  0.21595952443856695  1.0000
  C   C27       1.0  0.2536704459037438  0.9574207545190133  0.3840184933189262  1.0000
  C   C28       1.0  0.7536589507886119  0.0425868868575847  0.6159786114501172  1.0000
  C   C29       1.0  0.9695963979400942  0.09510489094249408  0.9020131893160508  1.0000
  C   C30       1.0  0.4696123348616509  0.9049136980769888  0.09799196869602157  1.0000
  C   C31       1.0  0.11226135589012638  0.8410928093710128  0.9269980263462256  1.0000
  C   C32       1.0  0.6122766708750264  0.15891831436546514  0.07300357269772917  1.0000
  C   C33       1.0  0.7664592907951971  0.8765506900383359  0.8373184131172805  1.0000
  C   C34       1.0  0.2664776681802862  0.12347099578435919  0.16267883365205896  1.0000
  N   N1        1.0  0.9542286983508532  0.9436602894618746  0.8866137036561736  1.0000
  N   N2        1.0  0.4542477975727763  0.056360213588590106  0.11338990628229337  1.0000
  O   O1        1.0  0.4332395848035304  0.5270213999668983  0.9065133610115408  1.0000
  O   O2        1.0  0.9332314475105219  0.4729528065318859  0.09348887750609688  1.0000
  O   O3        1.0  0.8225034947915189  0.4929174625953297  0.8957070901244035  1.0000
  O   O4        1.0  0.3224966285158715  0.5070746798247259  0.10429411249812398  1.0000
  O   O5        1.0  0.45682931973371405  0.861150441410075  0.38459610082153256  1.0000
  O   O6        1.0  0.9568245368960504  0.1388517968566703  0.6154040360979776  1.0000
  O   O7        1.0  0.1165420966430872  0.15853526506516155  0.9483550884487356  1.0000
  O   O8        1.0  0.616547005936461  0.8414725445021605  0.05165119944688709  1.0000
