data_image0
_chemical_formula_structural       Cu12H18C18Br12N18
_chemical_formula_sum              "Cu12 H18 C18 Br12 N18"
_cell_length_a       6.356463318196756
_cell_length_b       14.151949356857715
_cell_length_c       14.152111008134478
_cell_angle_alpha    120.00045539044582
_cell_angle_beta     90.00061024208833
_cell_angle_gamma    89.9990431133656

_space_group_name_H-M_alt    "P 1"
_space_group_IT_number       1

loop_
  _space_group_symop_operation_xyz
  'x, y, z'

loop_
  _atom_site_type_symbol
  _atom_site_label
  _atom_site_symmetry_multiplicity
  _atom_site_fract_x
  _atom_site_fract_y
  _atom_site_fract_z
  _atom_site_occupancy
  Cu  Cu1       1.0  0.12331979550044991  0.9019653777269667  0.8039273805619371  1.0000
  Cu  Cu2       1.0  0.1233373937327187  0.1960800948721086  0.0980489931389386  1.0000
  Cu  Cu3       1.0  0.1233177470234423  0.9019509556585701  0.0980304266791164  1.0000
  Cu  Cu4       1.0  0.6233196940822552  0.098049413701311  0.1960773937840443  1.0000
  Cu  Cu5       1.0  0.6233304140324236  0.8039077706706194  0.9019536240629831  1.0000
  Cu  Cu6       1.0  0.6233311821051117  0.09804751707000038  0.9019732544179744  1.0000
  Cu  Cu7       1.0  0.14068359475562886  0.464962403845952  0.5350346180585106  1.0000
  Cu  Cu8       1.0  0.14068580780069337  0.46496679185862183  0.9299241894297126  1.0000
  Cu  Cu9       1.0  0.14073599514445329  0.0700683934375448  0.5350328366868453  1.0000
  Cu  Cu10      1.0  0.6406953387979044  0.5350408806524952  0.4649659150214944  1.0000
  Cu  Cu11      1.0  0.6407072847166759  0.5350283332655437  0.07007367721543997  1.0000
  Cu  Cu12      1.0  0.6407263181073333  0.9299308111835244  0.46495859060603084  1.0000
  H   H1        1.0  0.9541356995825937  0.6774843604081583  0.6504161131650791  1.0000
  H   H2        1.0  0.954155535233575  0.3495886357468905  0.02708429630808952  1.0000
  H   H3        1.0  0.9541640649306942  0.9729182317531837  0.32251725244958607  1.0000
  H   H4        1.0  0.4541217039610146  0.32252801809207204  0.3495935796253065  1.0000
  H   H5        1.0  0.4541349060443024  0.6503984487224415  0.9729212288465161  1.0000
  H   H6        1.0  0.4541562670552963  0.027073748244866604  0.6774857742988728  1.0000
  H   H7        1.0  0.9541379161150163  0.34960763297101477  0.3225373508026336  1.0000
  H   H8        1.0  0.9541593425812066  0.9729225674519951  0.6503892340124791  1.0000
  H   H9        1.0  0.9541297230658474  0.6774659231362392  0.027065260520785683  1.0000
  H   H10       1.0  0.4541430858649989  0.6503851630605054  0.6774717367178839  1.0000
  H   H11       1.0  0.45416885506453747  0.027080019656310093  0.3496007245022881  1.0000
  H   H12       1.0  0.4541324001416527  0.3225358481996352  0.9729271163524655  1.0000
  H   H13       1.0  0.012752690154947302  0.46627162514744197  0.7331322003154952  1.0000
  H   H14       1.0  0.01276791937876  0.2668631151034262  0.733127442091117  1.0000
  H   H15       1.0  0.0127738734212102  0.2668678549947643  0.5337327045575293  1.0000
  H   H16       1.0  0.5127779957738595  0.5337396203167373  0.2668694643953273  1.0000
  H   H17       1.0  0.5127753524450256  0.7331301797785841  0.26686383413723996  1.0000
  H   H18       1.0  0.5127788375343839  0.7331327832748684  0.4662664830460272  1.0000
  C   C1        1.0  0.3893298214321134  0.6221492817128862  0.8918622602752463  1.0000
  C   C2        1.0  0.3893312759473487  0.1081337055733513  0.7302837501773637  1.0000
  C   C3        1.0  0.3893323458902813  0.2697054580412511  0.3778417739778347  1.0000
  C   C4        1.0  0.8893445173145836  0.3778462749585501  0.10814289199814202  1.0000
  C   C5        1.0  0.8893477823762126  0.891855323602684  0.2697040061906791  1.0000
  C   C6        1.0  0.889346712154115  0.7303047854274709  0.6221636556326188  1.0000
  C   C7        1.0  0.3893546409719519  0.1081391418533997  0.3778464686457426  1.0000
  C   C8        1.0  0.38935772626739157  0.26969851594773087  0.8918619702732611  1.0000
  C   C9        1.0  0.38934872383291724  0.6221507873730018  0.7302920645780729  1.0000
  C   C10       1.0  0.8893543079400529  0.8918637581288988  0.6221461033936462  1.0000
  C   C11       1.0  0.8893449301183551  0.7302913291093275  0.10813114036155008  1.0000
  C   C12       1.0  0.8893539325475005  0.37784476923008736  0.2697130877418346  1.0000
  C   C13       1.0  0.15238452212059173  0.5180488356144508  0.7590191139560502  1.0000
  C   C14       1.0  0.15240296683514026  0.24098627364211467  0.7590302526023576  1.0000
  C   C15       1.0  0.1524034567078445  0.2409770820127548  0.4819517984890922  1.0000
  C   C16       1.0  0.6524020820758025  0.48195847205650466  0.24098703045381595  1.0000
  C   C17       1.0  0.6524151014447029  0.7590153224101783  0.24096808982594098  1.0000
  C   C18       1.0  0.6524161848342231  0.7590220662350261  0.5180474398650928  1.0000
  Br  Br1       1.0  0.0005500403895127  0.8096779281602835  0.9048312787304978  1.0000
  Br  Br2       1.0  0.0005525649634563  0.09515408943889271  0.9048605132364712  1.0000
  Br  Br3       1.0  0.0005252621052776  0.09514292440067607  0.19029863621987178  1.0000
  Br  Br4       1.0  0.5005503936993989  0.1903309284717736  0.09517053516635342  1.0000
  Br  Br5       1.0  0.5005226976739792  0.904862926587974  0.09513619438211407  1.0000
  Br  Br6       1.0  0.5005405616302879  0.9048651163868726  0.8097105423476306  1.0000
  Br  Br7       1.0  0.7520463297411055  0.44039970798619515  0.559600384295713  1.0000
  Br  Br8       1.0  0.7520431167489221  0.4403966950651466  0.8807976019884832  1.0000
  Br  Br9       1.0  0.7520798664990734  0.1192008387430477  0.5595994169332315  1.0000
  Br  Br10      1.0  0.25205393949360655  0.5596014070463226  0.44040181851266874  1.0000
  Br  Br11      1.0  0.2520555794033825  0.5595946287583901  0.11919546555500199  1.0000
  Br  Br12      1.0  0.2520833308232966  0.8807970123977784  0.44039691445651385  1.0000
  N   N1        1.0  0.23334966510007146  0.5482170537105021  0.8577355174820552  1.0000
  N   N2        1.0  0.23339125653195944  0.1422645618987843  0.6904893922065014  1.0000
  N   N3        1.0  0.2333539668429765  0.3095169344089399  0.4517835524315359  1.0000
  N   N4        1.0  0.7333713275867807  0.451784967479668  0.14226491206950706  1.0000
  N   N5        1.0  0.7333832252718935  0.8577211404787377  0.30950146486485147  1.0000
  N   N6        1.0  0.7333560133174546  0.6904924302154639  0.5482212554184329  1.0000
  N   N7        1.0  0.23338110153122224  0.14227661454199847  0.4517896877435063  1.0000
  N   N8        1.0  0.23332796834426253  0.3095099080364676  0.8577124118535835  1.0000
  N   N9        1.0  0.2333433420721249  0.5482030522487378  0.6904785567251962  1.0000
  N   N10       1.0  0.7333823676326858  0.8577229587421725  0.5482081047579257  1.0000
  N   N11       1.0  0.7333521210322755  0.6904896654417951  0.14227619459857976  1.0000
  N   N12       1.0  0.7333461866187321  0.4518022327615939  0.3095333971657936  1.0000
  N   N13       1.0  0.463894959598754  0.6655404152458573  0.8327651712730171  1.0000
  N   N14       1.0  0.4638818991099143  0.1672496415902103  0.8327936259421518  1.0000
  N   N15       1.0  0.4638944263747645  0.1672353815573118  0.3344537739998755  1.0000
  N   N16       1.0  0.9639110509335609  0.33444743805360116  0.16724362033956197  1.0000
  N   N17       1.0  0.963878488206575  0.8327553464293088  0.1672152536101379  1.0000
  N   N18       1.0  0.9638895589217712  0.8327671585957079  0.6655446957762479  1.0000
