data_image0
_chemical_formula_structural       Cd2H44C66N4O10
_chemical_formula_sum              "Cd2 H44 C66 N4 O10"
_cell_length_a       10.139977140942847
_cell_length_b       11.10754453807217
_cell_length_c       12.634897806894934
_cell_angle_alpha    104.03472204261115
_cell_angle_beta     105.4930584896461
_cell_angle_gamma    95.18612165996879

_space_group_name_H-M_alt    "P 1"
_space_group_IT_number       1

loop_
  _space_group_symop_operation_xyz
  'x, y, z'

loop_
  _atom_site_type_symbol
  _atom_site_label
  _atom_site_symmetry_multiplicity
  _atom_site_fract_x
  _atom_site_fract_y
  _atom_site_fract_z
  _atom_site_occupancy
  Cd  Cd1       1.0  0.5769474990362156  0.8657452728401224  0.5118699587415563  1.0000
  Cd  Cd2       1.0  0.42305387585552273  0.13424732480635976  0.48812489130343545  1.0000
  H   H1        1.0  0.3655913223470293  0.6706551125284861  0.15281648042157056  1.0000
  H   H2        1.0  0.6344039240039409  0.3293431376257132  0.8471798293592485  1.0000
  H   H3        1.0  0.2043595731440604  0.5286076820144672  0.9690139809715674  1.0000
  H   H4        1.0  0.795635318383816  0.471388692322847  0.030986603328741993  1.0000
  H   H5        1.0  0.964298921896969  0.5727582590300316  0.8947330204106121  1.0000
  H   H6        1.0  0.03569460207352649  0.42723623277307604  0.10526607835946318  1.0000
  H   H7        1.0  0.05537698421655085  0.9038634308646679  0.1824997776517137  1.0000
  H   H8        1.0  0.9446216792461827  0.09613669854456929  0.8174968760446077  1.0000
  H   H9        1.0  0.8837545464682675  0.948628053414879  0.0379882317320579  1.0000
  H   H10       1.0  0.1162471747670537  0.051372082566359695  0.9620154144706631  1.0000
  H   H11       1.0  0.8234167127538823  0.8722451893910232  0.12869572485411146  1.0000
  H   H12       1.0  0.1765850084814389  0.12775494659021547  0.8713079213486097  1.0000
  H   H13       1.0  0.7185449626571413  0.0316087559839318  0.9220132090467174  1.0000
  H   H14       1.0  0.28145847493721027  0.9683951425268518  0.07799081359528512  1.0000
  H   H15       1.0  0.4790715017817035  0.030870048999013  0.8103708904542443  1.0000
  H   H16       1.0  0.5209338184930132  0.9691329010118607  0.18962858833283042  1.0000
  H   H17       1.0  0.3449635965684834  0.6898763815767452  0.8850783790765604  1.0000
  H   H18       1.0  0.6550376291135578  0.31012657185862486  0.11492100886856353  1.0000
  H   H19       1.0  0.5842330775812528  0.6957450693976241  0.0033998055160822105  1.0000
  H   H20       1.0  0.41576541504404224  0.30425977417490907  0.9966041425458485  1.0000
  H   H21       1.0  0.1692090872580607  0.8006846540045628  0.8966606654679694  1.0000
  H   H22       1.0  0.8307953811349266  0.1993192386881759  0.10333962093812236  1.0000
  H   H23       1.0  0.9228287344693201  0.8009383041232069  0.7981090685575509  1.0000
  H   H24       1.0  0.07717640989920942  0.1990637069346093  0.2018917561321274  1.0000
  H   H25       1.0  0.8620924858221101  0.8682951589680955  0.6185179912245147  1.0000
  H   H26       1.0  0.1379090715499274  0.13170402970317235  0.381480670023727  1.0000
  H   H27       1.0  0.04786575869445642  0.9220467819246991  0.5350443038192338  1.0000
  H   H28       1.0  0.9521356257821196  0.0779514657042952  0.4649541206173495  1.0000
  H   H29       1.0  0.6964682610595362  0.8226752779562004  0.28111093467163073  1.0000
  H   H30       1.0  0.3035295303990964  0.1773201514646985  0.718888491752061  1.0000
  H   H31       1.0  0.8259057629879935  0.6790454546920868  0.17496330854492462  1.0000
  H   H32       1.0  0.17409100519881096  0.3209499753237779  0.825035897329002  1.0000
  H   H33       1.0  0.8961164493477368  0.4929743635417481  0.24326554804972034  1.0000
  H   H34       1.0  0.10388373294011188  0.5070229478183846  0.7567355844539704  1.0000
  H   H35       1.0  0.8968511371494756  0.3665436606012804  0.3822067036912101  1.0000
  H   H36       1.0  0.10314734288026271  0.6334555350779709  0.6177952526933979  1.0000
  H   H37       1.0  0.8244793910294987  0.3302643628162798  0.5459979831013513  1.0000
  H   H38       1.0  0.17552198893099563  0.6697338879465562  0.45400281540663906  1.0000
  H   H39       1.0  0.70287580879004  0.39480901239287663  0.6933302595504358  1.0000
  H   H40       1.0  0.29712454488790024  0.6051892410541555  0.30667190112205134  1.0000
  H   H41       1.0  0.5854912391490289  0.5581299401199757  0.7912603741073241  1.0000
  H   H42       1.0  0.41450946182519016  0.44187019436700575  0.20874146883135578  1.0000
  H   H43       1.0  0.5410366123927801  0.7443427578451889  0.7160550031415694  1.0000
  H   H44       1.0  0.45896715839692354  0.2556573748568808  0.283947501446427  1.0000
  C   C1        1.0  0.31490454776326976  0.8775610859461338  0.28862582020903454  1.0000
  C   C2        1.0  0.6850845976960966  0.12244845416290669  0.7113660274135896  1.0000
  C   C3        1.0  0.21780201215119632  0.7936620783731952  0.17719264010386837  1.0000
  C   C4        1.0  0.782194780674061  0.20633899117903098  0.8228022265903049  1.0000
  C   C5        1.0  0.26123317264163154  0.6888357728735387  0.11787266842885911  1.0000
  C   C6        1.0  0.7387615706292435  0.31116529995786374  0.8821233398800389  1.0000
  C   C7        1.0  0.1708145865037523  0.6103445500024023  0.015526201932637176  1.0000
  C   C8        1.0  0.8291798034493993  0.3896546459675037  0.984473289538613  1.0000
  C   C9        1.0  0.0372902421450476  0.6342353230193538  0.9733407033318568  1.0000
  C   C10       1.0  0.9627012337764356  0.3657591710183183  0.026658745695812076  1.0000
  C   C11       1.0  0.9933075575281691  0.7387883416800562  0.03354701652242642  1.0000
  C   C12       1.0  0.0066863152439608975  0.2612080301183966  0.9664509731567037  1.0000
  C   C13       1.0  0.08443412351595472  0.8203773592855725  0.13454537260690813  1.0000
  C   C14       1.0  0.9155626662985769  0.17962371235589095  0.8654510768015342  1.0000
  C   C15       1.0  0.8147885328507626  0.866521414341129  0.038512495087374504  1.0000
  C   C16       1.0  0.18521166052727978  0.13348154595689718  0.961491420450784  1.0000
  C   C17       1.0  0.6683435341725  0.8641717974485773  0.970567956779675  1.0000
  C   C18       1.0  0.3316590545508403  0.13583304165484117  0.029435290767075625  1.0000
  C   C19       1.0  0.6363719575877269  0.9571576972637313  0.9150910101780525  1.0000
  C   C20       1.0  0.36363267617390704  0.04284714169435941  0.08491346982538062  1.0000
  C   C21       1.0  0.5011518858720336  0.9557617851300079  0.8508436404441467  1.0000
  C   C22       1.0  0.498852753911045  0.04424304964963  0.14915767413074124  1.0000
  C   C23       1.0  0.3939118892725872  0.8591986379099765  0.8377399978727452  1.0000
  C   C24       1.0  0.6060920715242233  0.140808080593807  0.16226236113283224  1.0000
  C   C25       1.0  0.42649571056839625  0.766012056776276  0.8941247997115056  1.0000
  C   C26       1.0  0.5735067097755646  0.2339918381510202  0.10587583695217972  1.0000
  C   C27       1.0  0.5613351344329162  0.7690613334037977  0.9604443744109331  1.0000
  C   C28       1.0  0.43866540774676827  0.23094350688956664  0.03955843203627298  1.0000
  C   C29       1.0  0.2491696815381133  0.8573526072531905  0.7712360356289238  1.0000
  C   C30       1.0  0.7508329117013093  0.14265222871638628  0.22876483784641982  1.0000
  C   C31       1.0  0.14205790253657113  0.8247991074429633  0.815808974300637  1.0000
  C   C32       1.0  0.8579465643510461  0.175204786294394  0.1841921034625927  1.0000
  C   C33       1.0  0.0033893119329916964  0.8258959797482813  0.7610149209476019  1.0000
  C   C34       1.0  0.9966148076583538  0.1741060329491191  0.23898647454944213  1.0000
  C   C35       1.0  0.968931071252406  0.8623355543756974  0.6600624203165566  1.0000
  C   C36       1.0  0.031072875443477706  0.137665517279423  0.3399387383688222  1.0000
  C   C37       1.0  0.07324126749839617  0.8944618271441979  0.6143229226899223  1.0000
  C   C38       1.0  0.9267635325845874  0.1055383007844455  0.38567663701930144  1.0000
  C   C39       1.0  0.21278554020246082  0.8907272136545004  0.6672055800482681  1.0000
  C   C40       1.0  0.787218063713233  0.1092719738268286  0.332793522299525  1.0000
  C   C41       1.0  0.3139454718544243  0.9173941550151451  0.6034233275153581  1.0000
  C   C42       1.0  0.6860547410933151  0.0826087917028886  0.3965703003800413  1.0000
  C   C43       1.0  0.7269346477225582  0.7397514056742978  0.30653645454342643  1.0000
  C   C44       1.0  0.2730643414087197  0.2602449631492973  0.693462637884565  1.0000
  C   C45       1.0  0.7998696193539274  0.6593512570346362  0.24801568363223933  1.0000
  C   C46       1.0  0.20012834500015947  0.3406451134285362  0.7519839796031178  1.0000
  C   C47       1.0  0.8388770480197321  0.5572743277653345  0.2857993084881087  1.0000
  C   C48       1.0  0.1611231342681094  0.4427229835947983  0.7142018240155821  1.0000
  C   C49       1.0  0.803899290662585  0.5351539912863359  0.3811096398572785  1.0000
  C   C50       1.0  0.19610071722443934  0.4648423800761278  0.6188920471918918  1.0000
  C   C51       1.0  0.8394888117832977  0.43089292661733225  0.4242313281821382  1.0000
  C   C52       1.0  0.16051034422199706  0.5691043874269965  0.5757711664860565  1.0000
  C   C53       1.0  0.800486112217655  0.41141753647756457  0.5148592569799035  1.0000
  C   C54       1.0  0.19951406705946076  0.5885797769717982  0.48514345823806326  1.0000
  C   C55       1.0  0.7268757952534769  0.4965688923949113  0.571330773755278  1.0000
  C   C56       1.0  0.27312540880083  0.5034284194148668  0.42867137065532296  1.0000
  C   C57       1.0  0.6847410429844274  0.4789587093864753  0.665188851849983  1.0000
  C   C58       1.0  0.31525948358897443  0.5210404851028372  0.3348135456341693  1.0000
  C   C59       1.0  0.6184563660695659  0.5675350679193228  0.7180581343575412  1.0000
  C   C60       1.0  0.38154535667111844  0.43246506701730425  0.281944720488042  1.0000
  C   C61       1.0  0.5933370092705135  0.6727314806128177  0.6769012335288238  1.0000
  C   C62       1.0  0.4066657382473622  0.32726865268422495  0.3231010505093934  1.0000
  C   C63       1.0  0.6938292829903431  0.6037457652245807  0.5334636233620529  1.0000
  C   C64       1.0  0.3061720939594252  0.39625248762747844  0.4665387578602065  1.0000
  C   C65       1.0  0.7303941284838587  0.6219377219228547  0.43475639776580977  1.0000
  C   C66       1.0  0.2696072499712727  0.3780605298845927  0.5652451920993187  1.0000
  N   N1        1.0  0.628811766682972  0.6895685049080811  0.5867061608192116  1.0000
  N   N2        1.0  0.3711908079394419  0.310430687346674  0.41329588640734727  1.0000
  N   N3        1.0  0.6937808762928552  0.7217235901774045  0.39710305356063447  1.0000
  N   N4        1.0  0.3062194788904407  0.27827466222501573  0.6028983157547215  1.0000
  O   O1        1.0  0.4081324789101473  0.825250557314085  0.34093910624223867  1.0000
  O   O2        1.0  0.5918578335619673  0.1747542868397503  0.6590599119929834  1.0000
  O   O3        1.0  0.2952662673503852  0.9903988604092147  0.318513993102563  1.0000
  O   O4        1.0  0.7047324312883279  0.009606901224081801  0.68147278191406  1.0000
  O   O5        1.0  0.8589061316717235  0.7522284342720836  0.9869676124014929  1.0000
  O   O6        1.0  0.14108621173777183  0.24777076288776098  0.013031437970212788  1.0000
  O   O7        1.0  0.40449840198151327  0.8464338300436721  0.5971313369685021  1.0000
  O   O8        1.0  0.5955081033702854  0.1535644114766228  0.40286581614553535  1.0000
  O   O9        1.0  0.29416554227860564  0.006649164734398  0.5577939223325785  1.0000
  O   O10       1.0  0.7058320777899284  0.9933453225996018  0.44220447592231693  1.0000
