data_image0
_chemical_formula_structural       Cu4H56C80N16O16
_chemical_formula_sum              "Cu4 H56 C80 N16 O16"
_cell_length_a       12.74923748158973
_cell_length_b       15.70339816267613
_cell_length_c       15.704937433617836
_cell_angle_alpha    80.49053699561652
_cell_angle_beta     66.03191477133623
_cell_angle_gamma    66.04895936066445

_space_group_name_H-M_alt    "P 1"
_space_group_IT_number       1

loop_
  _space_group_symop_operation_xyz
  'x, y, z'

loop_
  _atom_site_type_symbol
  _atom_site_label
  _atom_site_symmetry_multiplicity
  _atom_site_fract_x
  _atom_site_fract_y
  _atom_site_fract_z
  _atom_site_occupancy
  Cu  Cu1       1.0  0.9999989879435205  0.49999914854228683  0.5000008054308721  1.0000
  Cu  Cu2       1.0  0.4999994343425412  4.518819239001031e-07  0.9999999931812409  1.0000
  Cu  Cu3       1.0  0.5000004343272623  0.5000005198346288  2.4987605226032185e-07  1.0000
  Cu  Cu4       1.0  0.5000004304858051  0.9999990510455847  0.5000004397278132  1.0000
  H   H1        1.0  0.6188635949747764  0.4652368026321341  0.15022035134614234  1.0000
  H   H2        1.0  0.7343639591001435  0.0347887751917639  0.3497793710327031  1.0000
  H   H3        1.0  0.7693512487864923  0.8497791768605296  0.9651716559202155  1.0000
  H   H4        1.0  0.08423801422867447  0.6502550410084921  0.5346943826046553  1.0000
  H   H5        1.0  0.38113687566665516  0.5347639508289178  0.8497795790925904  1.0000
  H   H6        1.0  0.2656364007963532  0.9652098879669141  0.6502199992290371  1.0000
  H   H7        1.0  0.23064644837231907  0.15022227329347967  0.03482898979637376  1.0000
  H   H8        1.0  0.9157617081775699  0.34974571200408633  0.465308022319391  1.0000
  H   H9        1.0  0.4460253772470325  0.7164909439135059  0.02953137689747361  1.0000
  H   H10       1.0  0.6917681294249433  0.7837364275196493  0.470765834390505  1.0000
  H   H11       1.0  0.4755777882212728  0.9704581782092417  0.21626128497217675  1.0000
  H   H12       1.0  0.162460627509887  0.5295733062181897  0.2835900277196258  1.0000
  H   H13       1.0  0.5539757900891615  0.2835084159378026  0.9704685537914981  1.0000
  H   H14       1.0  0.3082343124995433  0.21626153866579767  0.5292343768248742  1.0000
  H   H15       1.0  0.5244214698525412  0.029542575195854695  0.783739003168037  1.0000
  H   H16       1.0  0.8375369073635498  0.4704246595752153  0.7164125325555161  1.0000
  H   H17       1.0  0.5291545445777716  0.7568876504831439  0.14943440985524603  1.0000
  H   H18       1.0  0.9352927697867343  0.7430702592874568  0.35066288595085376  1.0000
  H   H19       1.0  0.6784953452736816  0.8503942735296378  0.25689033333365763  1.0000
  H   H20       1.0  0.2861786859963049  0.6494652581255949  0.24299813699866493  1.0000
  H   H21       1.0  0.4708443651486575  0.24311379972682803  0.8505658781598553  1.0000
  H   H22       1.0  0.0647096101170845  0.2569291006198142  0.6493366870366301  1.0000
  H   H23       1.0  0.3215035644527476  0.14960717668032691  0.7431099546814436  1.0000
  H   H24       1.0  0.7138196538928767  0.3505327082844901  0.7570010305373387  1.0000
  H   H25       1.0  0.5089898551499628  0.7162849346939667  0.31377646136413506  1.0000
  H   H26       1.0  0.039115688633970074  0.7837660646079103  0.18618911792909631  1.0000
  H   H27       1.0  0.8227277421483806  0.6860200721214369  0.2163901122873637  1.0000
  H   H28       1.0  0.22535102273500487  0.8139258622614065  0.28364942772684987  1.0000
  H   H29       1.0  0.4910097512712284  0.2837151219062548  0.6862238269011981  1.0000
  H   H30       1.0  0.9608849008086862  0.2162332952995172  0.8138105324836998  1.0000
  H   H31       1.0  0.17727226134445564  0.3139827716981216  0.7836100980521933  1.0000
  H   H32       1.0  0.7746492803809416  0.18607280072906462  0.7163508607887225  1.0000
  H   H33       1.0  0.6161236493028639  0.6962944923254071  0.42229755658520657  1.0000
  H   H34       1.0  0.2345812586684205  0.8039931300408228  0.07739587160337888  1.0000
  H   H35       1.0  0.038427398944413965  0.5773554213767368  0.19628528699516318  1.0000
  H   H36       1.0  0.3122916650156996  0.9226100521575021  0.30373813565256563  1.0000
  H   H37       1.0  0.38387572757216776  0.3037048675260579  0.5777024515290704  1.0000
  H   H38       1.0  0.7654193875547931  0.19600623003480414  0.9226028605555852  1.0000
  H   H39       1.0  0.9615713299601295  0.42264881610869054  0.8037146428179867  1.0000
  H   H40       1.0  0.6877098506678719  0.07738861088893859  0.6962617951615184  1.0000
  H   H41       1.0  0.9091909484481704  0.4511203944906299  0.27353297353606365  1.0000
  H   H42       1.0  0.1339617110581557  0.0488289350371289  0.22646523516964118  1.0000
  H   H43       1.0  0.18274806751561087  0.7262720326721633  0.9511240359942333  1.0000
  H   H44       1.0  0.36059980787747054  0.7734441606613559  0.5486711477325557  1.0000
  H   H45       1.0  0.09080877153412087  0.548879662445991  0.7264654782216126  1.0000
  H   H46       1.0  0.8660398046254161  0.9511697280093118  0.7735346956444431  1.0000
  H   H47       1.0  0.817251247338753  0.2737287209011328  0.048875333892155426  1.0000
  H   H48       1.0  0.6393980701032262  0.2265545022171978  0.4513298561859854  1.0000
  H   H49       1.0  0.8030902209007497  0.47024835390563163  0.16410653711219672  1.0000
  H   H50       1.0  0.9375849216342473  0.029642388977180197  0.33604538066597195  1.0000
  H   H51       1.0  0.9672017579494252  0.8357681470731606  0.9702486267870041  1.0000
  H   H52       1.0  0.27377652182893564  0.6638790465566442  0.5294833617349822  1.0000
  H   H53       1.0  0.196908745606237  0.5297530964725397  0.8358928326490724  1.0000
  H   H54       1.0  0.06241717194286183  0.9703562740131417  0.6639548304242807  1.0000
  H   H55       1.0  0.032798707451895844  0.1642340002779221  0.029749747170008303  1.0000
  H   H56       1.0  0.7262213561517613  0.3361196163219091  0.4705176421835586  1.0000
  C   C1        1.0  0.5828532117508731  0.5383187573125454  0.13303383442016783  1.0000
  C   C2        1.0  0.7542444324534401  0.9617272803973905  0.3670362347354723  1.0000
  C   C3        1.0  0.7160769944209735  0.8669100124407549  0.03825743404595276  1.0000
  C   C4        1.0  0.12129998072708036  0.6330703927155953  0.4616240207900121  1.0000
  C   C5        1.0  0.417146046322941  0.461681996092544  0.8669664537200532  1.0000
  C   C6        1.0  0.2457571400106885  0.03827138281724269  0.6329627778247868  1.0000
  C   C7        1.0  0.2839222636528408  0.1330907409643345  0.961742854094261  1.0000
  C   C8        1.0  0.8786998604803884  0.3669289667433589  0.5383781041080979  1.0000
  C   C9        1.0  0.4918989363051125  0.6698580469638886  0.07368474734745695  1.0000
  C   C10       1.0  0.7353100233711775  0.8302654899187728  0.426556905120421  1.0000
  C   C11       1.0  0.565669640745412  0.9263180158824228  0.16973422077656844  1.0000
  C   C12       1.0  0.16181207767855463  0.5737106535373543  0.33015153785389356  1.0000
  C   C13       1.0  0.5080999166407737  0.3301434030778765  0.9263164589214694  1.0000
  C   C14       1.0  0.26469207020593183  0.169733173071549  0.5734433059698317  1.0000
  C   C15       1.0  0.4343289206336465  0.073684131132417  0.8302660671134203  1.0000
  C   C16       1.0  0.8381850468268369  0.42628940278274285  0.6698503840682475  1.0000
  C   C17       1.0  0.5324250572623657  0.6913626982154284  0.13290571265897458  1.0000
  C   C18       1.0  0.8566010241496755  0.8086536376753344  0.3672684643792862  1.0000
  C   C19       1.0  0.6653235915035722  0.8670188768898159  0.1913385933938372  1.0000
  C   C20       1.0  0.22393905298851993  0.6329046679948293  0.3085572207297956  1.0000
  C   C21       1.0  0.4675739144847386  0.30863735827271194  0.8670952135840224  1.0000
  C   C22       1.0  0.1434010694274405  0.19134502531498754  0.6327317467109664  1.0000
  C   C23       1.0  0.33467595289694413  0.13298257343222994  0.8086610566436079  1.0000
  C   C24       1.0  0.7760590597784541  0.367093297742457  0.6914456198215219  1.0000
  C   C25       1.0  0.6500106735213791  0.5944649052251522  0.23291665163785064  1.0000
  C   C26       1.0  0.9774443628347742  0.9055188832495418  0.2671128143957233  1.0000
  C   C27       1.0  0.8829485995744976  0.766908636630781  0.0945260023621231  1.0000
  C   C28       1.0  0.2447426067722632  0.7329231071956174  0.40536377856990663  1.0000
  C   C29       1.0  0.3499903750135972  0.4055358481797882  0.7670835590770577  1.0000
  C   C30       1.0  0.022556804501419954  0.09448047660176678  0.7328871162932414  1.0000
  C   C31       1.0  0.11705152271956389  0.23309281363515316  0.9054739279514903  1.0000
  C   C32       1.0  0.7552565405566084  0.26707555590709825  0.5946359493933214  1.0000
  C   C33       1.0  0.596803770941179  0.6585627592467063  0.305001060905269  1.0000
  C   C34       1.0  0.060395114988857454  0.8415124542749409  0.19493500649760878  1.0000
  C   C35       1.0  0.9017723808153802  0.6947749126857732  0.1586256063798997  1.0000
  C   C36       1.0  0.25546586332782806  0.8051332271203647  0.3413456710929381  1.0000
  C   C37       1.0  0.40319543035208494  0.34143799399019065  0.6950001454887766  1.0000
  C   C38       1.0  0.9396069785882516  0.15848620871537383  0.805065204592651  1.0000
  C   C39       1.0  0.09822681523776554  0.3052272344411478  0.8413740435324327  1.0000
  C   C40       1.0  0.744535074462206  0.19486543598219444  0.6586539794449776  1.0000
  C   C41       1.0  0.656540854054903  0.6472483491052472  0.3654592929950269  1.0000
  C   C42       1.0  0.16917716439370903  0.8529690826918993  0.13431155203579684  1.0000
  C   C43       1.0  0.02197470614717649  0.634249386870124  0.14726129130018245  1.0000
  C   C44       1.0  0.30377772281261184  0.8656612519274846  0.35269608413908315  1.0000
  C   C45       1.0  0.3434591007136658  0.35275101069009906  0.634540995395426  1.0000
  C   C46       1.0  0.83082313348212  0.1470309741886027  0.8656871799980479  1.0000
  C   C47       1.0  0.9780240847780348  0.3657534568934722  0.8527392767408556  1.0000
  C   C48       1.0  0.6962228666300446  0.13433810797994283  0.6473035662737131  1.0000
  C   C49       1.0  0.769511263560517  0.5728603036755475  0.3542690712160165  1.0000
  C   C50       1.0  0.19659942843784262  0.9273127862195664  0.14557119642017105  1.0000
  C   C51       1.0  0.12374557137847113  0.6455260369882866  0.0728765066500188  1.0000
  C   C52       1.0  0.34242733463432273  0.8543388829473745  0.4270584554120091  1.0000
  C   C53       1.0  0.23049001209665937  0.4271404504021846  0.6457274664835778  1.0000
  C   C54       1.0  0.8033996568703615  0.07268727060497329  0.8544278933151614  1.0000
  C   C55       1.0  0.8762532195467403  0.3544768067753098  0.9271240613910193  1.0000
  C   C56       1.0  0.6575731980277835  0.1456604767918606  0.5729421132546193  1.0000
  C   C57       1.0  0.8205886158735964  0.5081387395908267  0.2826710114198647  1.0000
  C   C58       1.0  0.1113914284335281  0.9919056929071814  0.2172950458270576  1.0000
  C   C59       1.0  0.10324214814877322  0.717147741562421  0.008141797735653718  1.0000
  C   C60       1.0  0.32893879917436675  0.7826108559480575  0.4917097738117774  1.0000
  C   C61       1.0  0.1794112768743048  0.49186201392635104  0.7173286387426997  1.0000
  C   C62       1.0  0.8886091610091283  0.008093667000252902  0.7827046045857383  1.0000
  C   C63       1.0  0.8967569911238157  0.2828544053963  0.9918587704305037  1.0000
  C   C64       1.0  0.6710615039415799  0.21738780704241384  0.5082905147037947  1.0000
  C   C65       1.0  0.7614705003526228  0.518663049407472  0.2217871594888549  1.0000
  C   C66       1.0  0.0019556836190946342  0.981320707076172  0.278256233399972  1.0000
  C   C67       1.0  0.983244085427124  0.7780587507563013  0.018670461892860018  1.0000
  C   C68       1.0  0.2804739906616121  0.7216639116665605  0.48113613174836434  1.0000
  C   C69       1.0  0.23853101009083122  0.4813370075289925  0.7782112148435089  1.0000
  C   C70       1.0  0.9980454837170994  0.018678652775143703  0.7217436972889925  1.0000
  C   C71       1.0  0.01675534017218184  0.22194409311937593  0.9813294681705144  1.0000
  C   C72       1.0  0.7195248083198821  0.2783354482410303  0.5188635960897442  1.0000
  C   C73       1.0  0.8351362052086484  0.5661379526975027  0.41753605718641035  1.0000
  C   C74       1.0  0.31880373013990493  0.9341457848888836  0.08246251462264091  1.0000
  C   C75       1.0  0.2526652063224829  0.5823012059410433  0.06615095036709562  1.0000
  C   C76       1.0  0.40128428388418075  0.9176032968478438  0.43389577336022  1.0000
  C   C77       1.0  0.1648629421202233  0.433860710405213  0.5824636707768176  1.0000
  C   C78       1.0  0.6811971456294612  0.0658542719354998  0.9175364976873792  1.0000
  C   C79       1.0  0.7473333550565753  0.41770094107379674  0.9338493375228865  1.0000
  C   C80       1.0  0.5987175181261009  0.0823960631155458  0.5661035193510883  1.0000
  N   N1        1.0  0.5235103013583285  0.5744799736913818  0.07505281215234301  1.0000
  N   N2        1.0  0.6730046736846661  0.925635465568881  0.42509348392526636  1.0000
  N   N3        1.0  0.598744079805492  0.9249402710130709  0.07435392482032915  1.0000
  N   N4        1.0  0.09802365505131425  0.575105367201857  0.4255378385382969  1.0000
  N   N5        1.0  0.47648826002072286  0.42552217332345793  0.924947475737646  1.0000
  N   N6        1.0  0.3269968987794553  0.07436319764575933  0.5749055286349857  1.0000
  N   N7        1.0  0.40125367413386925  0.07506117930913798  0.9256458026424282  1.0000
  N   N8        1.0  0.90197722595817  0.4248932957324953  0.5744627302534507  1.0000
  N   N9        1.0  0.5904832738536995  0.6072409823734973  0.1698734131777257  1.0000
  N   N10       1.0  0.8676330473013608  0.892742067987676  0.330197337033816  1.0000
  N   N11       1.0  0.7604138222765755  0.830012463475164  0.10725678348700993  1.0000
  N   N12       1.0  0.19793015336022526  0.6698805643733153  0.3926378871859271  1.0000
  N   N13       1.0  0.40951505797919907  0.39276046789259317  0.8301265945612  1.0000
  N   N14       1.0  0.13236812003484016  0.10725729186363249  0.6698025936551488  1.0000
  N   N15       1.0  0.23958572212394819  0.16998898684688163  0.8927428665504278  1.0000
  N   N16       1.0  0.8020686456212757  0.33011879553427553  0.6073618406521817  1.0000
  O   O1        1.0  0.9451227767776945  0.5008770497923151  0.3965517006417584  1.0000
  O   O2        1.0  0.3423457812284385  0.999477367513883  0.10354808242898629  1.0000
  O   O3        1.0  0.34164004665732534  0.6033886469244009  0.0009043049654522144  1.0000
  O   O4        1.0  0.44600440549110953  0.8964924791387929  0.4991719394409415  1.0000
  O   O5        1.0  0.05487717799087489  0.4991223100030312  0.6034485877486943  1.0000
  O   O6        1.0  0.657653881973303  0.000522689254538  0.896451287582522  1.0000
  O   O7        1.0  0.6583601944379539  0.39661140978790144  0.9990953453222245  1.0000
  O   O8        1.0  0.5539974017592898  0.1035054869345728  0.5008289097520873  1.0000
  O   O9        1.0  0.7837464156306454  0.6212758892533685  0.4843309528119729  1.0000
  O   O10       1.0  0.3896454122173481  0.8789986271860073  0.0157030730126876  1.0000
  O   O11       1.0  0.26814138746531313  0.5154446482259943  0.12126153796173605  1.0000
  O   O12       1.0  0.40505476668854384  0.984472934384783  0.3788116283139614  1.0000
  O   O13       1.0  0.216250487384869  0.37871998646196653  0.5156698487561825  1.0000
  O   O14       1.0  0.6103558118993958  0.12100073283350103  0.9842959394224521  1.0000
  O   O15       1.0  0.7318581569352105  0.48455680209605145  0.8787381120757085  1.0000
  O   O16       1.0  0.5949495224776554  0.015525031968706998  0.6211875872222734  1.0000
