data_image0
_chemical_formula_structural       Cd2H56C56N20O12
_chemical_formula_sum              "Cd2 H56 C56 N20 O12"
_cell_length_a       8.592467949530958
_cell_length_b       8.484118339989216
_cell_length_c       20.96088802600398
_cell_angle_alpha    90.0000035257337
_cell_angle_beta     90.00006824582847
_cell_angle_gamma    102.42988897847565

_space_group_name_H-M_alt    "P 1"
_space_group_IT_number       1

loop_
  _space_group_symop_operation_xyz
  'x, y, z'

loop_
  _atom_site_type_symbol
  _atom_site_label
  _atom_site_symmetry_multiplicity
  _atom_site_fract_x
  _atom_site_fract_y
  _atom_site_fract_z
  _atom_site_occupancy
  Cd  Cd1       1.0  0.499999388135578  0.9999978486378255  0.49999994379991336  1.0000
  Cd  Cd2       1.0  0.49999978817682933  0.49999936347256846  1.28739714e-07  1.0000
  H   H1        1.0  0.792989391430929  0.7843038236530404  0.4723127314602562  1.0000
  H   H2        1.0  0.20700490490426665  0.7156913615932866  0.9723123958678026  1.0000
  H   H3        1.0  0.20700487631295775  0.21569048507751631  0.5276876201932195  1.0000
  H   H4        1.0  0.7929903903914524  0.2843077749925839  0.027687478706958788  1.0000
  H   H5        1.0  0.3053319364176161  0.6591783607112658  0.42283569920715525  1.0000
  H   H6        1.0  0.6946629784381599  0.8408204050832851  0.9228394219273139  1.0000
  H   H7        1.0  0.6946645226010304  0.34082077548806916  0.5771608358147303  1.0000
  H   H8        1.0  0.30533490120770074  0.1591799376976725  0.07716426928028136  1.0000
  H   H9        1.0  0.45542097268281634  0.4133216088264575  0.38434499704501224  1.0000
  H   H10       1.0  0.5445784889300571  0.08668056219600831  0.8843495939242128  1.0000
  H   H11       1.0  0.5445794912941153  0.586679940144535  0.6156501067408015  1.0000
  H   H12       1.0  0.4554233956777552  0.9133221933575869  0.11565505144244527  1.0000
  H   H13       1.0  0.7239733204388372  0.35830597150479077  0.40536182421839567  1.0000
  H   H14       1.0  0.2760265988625719  0.14169259537720788  0.9053629516794782  1.0000
  H   H15       1.0  0.2760263728795351  0.6416919565761247  0.5946370961993848  1.0000
  H   H16       1.0  0.7239750288512283  0.8583089532109509  0.09463787705491457  1.0000
  H   H17       1.0  0.8554767488803918  0.49006858667484454  0.45742740027800705  1.0000
  H   H18       1.0  0.14452035312328357  0.0099324377462295  0.9574284600127994  1.0000
  H   H19       1.0  0.1445199670308028  0.5099317564895357  0.5425719972180969  1.0000
  H   H20       1.0  0.85547855407075  0.9900727328890752  0.042572368720975376  1.0000
  H   H21       1.0  0.04979503657049384  0.726701964550344  0.4151828129965053  1.0000
  H   H22       1.0  0.9502021822025812  0.7732967942321665  0.9151833193398671  1.0000
  H   H23       1.0  0.9502037499086954  0.27329717087982164  0.584816584500089  1.0000
  H   H24       1.0  0.0497971180550891  0.22670475512633453  0.08481750939395027  1.0000
  H   H25       1.0  0.211157824185932  0.8496431809975461  0.3230407655212985  1.0000
  H   H26       1.0  0.7888414386895874  0.6503555018788064  0.8230402356127083  1.0000
  H   H27       1.0  0.7888412191828637  0.15035716139688293  0.6769595861334208  1.0000
  H   H28       1.0  0.21116109586340312  0.34964483936010987  0.17696011604286344  1.0000
  H   H29       1.0  0.9107563812015513  0.519044705112563  0.1958955557284412  1.0000
  H   H30       1.0  0.08924598186723642  0.980953872930698  0.695896123628138  1.0000
  H   H31       1.0  0.08924589646256463  0.4809544291622815  0.8041043188480256  1.0000
  H   H32       1.0  0.9107565526864932  0.0190464683084173  0.3041047051064608  1.0000
  H   H33       1.0  0.7489868396189368  0.39262852970742296  0.28853805895504786  1.0000
  H   H34       1.0  0.25101388415805564  0.10736994152779292  0.7885391732929034  1.0000
  H   H35       1.0  0.25101492426742317  0.6073681906392778  0.7114608614632159  1.0000
  H   H36       1.0  0.7489865798269478  0.8926316074453384  0.21146117836217818  1.0000
  H   H37       1.0  0.08491406721417859  0.7791582368742594  0.15638319539439036  1.0000
  H   H38       1.0  0.9150842900981148  0.7208439313813245  0.6563827290435565  1.0000
  H   H39       1.0  0.9150854899309027  0.22084451944792954  0.8436171562604853  1.0000
  H   H40       1.0  0.0849175945030964  0.27915882417051563  0.3436176226118873  1.0000
  H   H41       1.0  0.22342955771898693  0.8984159191266272  0.20959757929487913  1.0000
  H   H42       1.0  0.7765696131880446  0.6015838782086148  0.7095970421160371  1.0000
  H   H43       1.0  0.7765706493778738  0.101584422882631  0.7904027723601242  1.0000
  H   H44       1.0  0.2234329213642141  0.39841646303010947  0.2904028324605078  1.0000
  H   H45       1.0  0.4409934898873686  0.7005001642093374  0.2560126481392827  1.0000
  H   H46       1.0  0.5590049169143542  0.7995008783233429  0.7560124868253977  1.0000
  H   H47       1.0  0.5590043897533549  0.2995001785702627  0.7439877035151523  1.0000
  H   H48       1.0  0.44099696768685703  0.200501877228497  0.2439878648300463  1.0000
  H   H49       1.0  0.6181355842651683  0.5610478696024757  0.16872965096258236  1.0000
  H   H50       1.0  0.38186539535840325  0.9389555149142126  0.66872892959622  1.0000
  H   H51       1.0  0.38186487972129873  0.43895367937105334  0.8312716548505463  1.0000
  H   H52       1.0  0.6181379098582768  0.06104844721613742  0.3312709449805665  1.0000
  H   H53       1.0  0.202387803251078  0.6406527087240403  0.07849339254579488  1.0000
  H   H54       1.0  0.7976123851065183  0.8593481882840024  0.5784938265271504  1.0000
  H   H55       1.0  0.7976135675723769  0.3593476328996558  0.9215060049514461  1.0000
  H   H56       1.0  0.2023901494464724  0.14065215295491373  0.4215065251284215  1.0000
  C   C1        1.0  0.6788365680479062  0.7201121123966913  0.454120248299695  1.0000
  C   C2        1.0  0.3211579292328183  0.7798842649794224  0.9541214014270022  1.0000
  C   C3        1.0  0.3211582134700635  0.27988461026103545  0.5458786721168634  1.0000
  C   C4        1.0  0.6788396935212333  0.22011487083668868  0.04587990438540149  1.0000
  C   C5        1.0  0.42849394009855507  0.6492349689861213  0.4269891791675206  1.0000
  C   C6        1.0  0.5715025443200049  0.8507601785329156  0.9269918877737804  1.0000
  C   C7        1.0  0.5715040757132641  0.35076054555162983  0.5730083100127386  1.0000
  C   C8        1.0  0.42849507843624934  0.149238957283778  0.07301084927569687  1.0000
  C   C9        1.0  0.5005932974447731  0.5276866211303713  0.4075596748812343  1.0000
  C   C10       1.0  0.4994050616180132  0.9723121310519075  0.907562828483037  1.0000
  C   C11       1.0  0.49940548903074233  0.47231251429881377  0.5924373372202394  1.0000
  C   C12       1.0  0.5005944955307342  0.0276906252712479  0.09243990856695918  1.0000
  C   C13       1.0  0.7838878262894584  0.4842260057554243  0.41383905768090995  1.0000
  C   C14       1.0  0.21610979162540642  0.015772568809687495  0.9138406296475876  1.0000
  C   C15       1.0  0.2161109601897238  0.5157731296747341  0.5861603398156843  1.0000
  C   C16       1.0  0.7838895086330028  0.9842289805490051  0.08616067616525667  1.0000
  C   C17       1.0  0.8873844429585418  0.5522113472857342  0.3578653103058968  1.0000
  C   C18       1.0  0.1126149270106751  0.9477873639882404  0.8578663658467317  1.0000
  C   C19       1.0  0.1126152503598377  0.4477865807951886  0.6421336101118837  1.0000
  C   C20       1.0  0.8873855369750603  0.0522141849850897  0.14213446288737686  1.0000
  C   C21       1.0  0.018958180450788068  0.6796963895888622  0.3672559231817941  1.0000
  C   C22       1.0  0.981039797778351  0.8203011227633823  0.8672559687471942  1.0000
  C   C23       1.0  0.9810403491417147  0.3203015388778141  0.6327444284727688  1.0000
  C   C24       1.0  0.018960666206652398  0.17970042620974877  0.13274438290788737  1.0000
  C   C25       1.0  0.10986733101770345  0.749099353238485  0.3153201696066502  1.0000
  C   C26       1.0  0.8901316512283728  0.7508981163785934  0.8153201689180063  1.0000
  C   C27       1.0  0.8901311985748067  0.25089857522819164  0.6846801820479127  1.0000
  C   C28       1.0  0.10986946270841  0.249101018281614  0.18468018273720324  1.0000
  C   C29       1.0  0.0707424645769805  0.692954327334057  0.2533652460274282  1.0000
  C   C30       1.0  0.9292580046510751  0.8070455053055168  0.7533647888512146  1.0000
  C   C31       1.0  0.9292577425191484  0.30704601467500947  0.7466346285485483  1.0000
  C   C32       1.0  0.07074362306199332  0.1929560432824502  0.2466355628041511  1.0000
  C   C33       1.0  0.9408700612447448  0.5633141396862628  0.2441082156660598  1.0000
  C   C34       1.0  0.05913154324675672  0.9366856850202795  0.7441092447685588  1.0000
  C   C35       1.0  0.059132473306043196  0.4366862015520637  0.7558907047524384  1.0000
  C   C36       1.0  0.9408700844677754  0.0633158635680715  0.2558920610448537  1.0000
  C   C37       1.0  0.850091742983068  0.49356350263676774  0.29601200497405233  1.0000
  C   C38       1.0  0.14990809693680524  0.0064361820417602  0.7960125901722247  1.0000
  C   C39       1.0  0.1499105346803091  0.5064356316378847  0.7039873925233875  1.0000
  C   C40       1.0  0.8500926239356092  0.993566573895059  0.20398728440391514  1.0000
  C   C41       1.0  0.16405224117034586  0.7741722963617408  0.19710190936701358  1.0000
  C   C42       1.0  0.8359468913104707  0.7258274907841624  0.6971014044547201  1.0000
  C   C43       1.0  0.8359479659265148  0.22582804564751777  0.8028984422879899  1.0000
  C   C44       1.0  0.16405473640185872  0.2741740578036058  0.3028984701216188  1.0000
  C   C45       1.0  0.4196359348865003  0.6662354734057417  0.20639785522113382  1.0000
  C   C46       1.0  0.5803625762296605  0.833766735633425  0.7063977052417696  1.0000
  C   C47       1.0  0.5803622016423661  0.3337660763377314  0.7936024964333724  1.0000
  C   C48       1.0  0.4196390514841397  0.16623481295473405  0.2936031234926161  1.0000
  C   C49       1.0  0.5050862739793942  0.5966763282991892  0.16295028849531684  1.0000
  C   C50       1.0  0.494914430984359  0.9033258445411718  0.6629500985508228  1.0000
  C   C51       1.0  0.49491276938940143  0.40332401409524016  0.8370500631594023  1.0000
  C   C52       1.0  0.5050874536168523  0.0966769110106682  0.33705025310462117  1.0000
  C   C53       1.0  0.2941317765640293  0.6350844171756478  0.11348620714726816  1.0000
  C   C54       1.0  0.7058687762903589  0.8649177153304493  0.6134865964191716  1.0000
  C   C55       1.0  0.7058684305320997  0.36491592483341867  0.8865136674287154  1.0000
  C   C56       1.0  0.29413310831159123  0.13508504022158255  0.3865142323152923  1.0000
  N   N1        1.0  0.541353445011346  0.7682367893101727  0.4560733768419423  1.0000
  N   N2        1.0  0.4586436426192151  0.7317607958519473  0.9560741188542604  1.0000
  N   N3        1.0  0.4586427571235633  0.231761139926455  0.5439260206539982  1.0000
  N   N4        1.0  0.5413528164075032  0.26823834034952654  0.043927664036885986  1.0000
  N   N5        1.0  0.6583782487225706  0.5739090384969857  0.4255508411257693  1.0000
  N   N6        1.0  0.3416175813194471  0.9260885221616774  0.9255524851431074  1.0000
  N   N7        1.0  0.3416179534108751  0.4260888907392513  0.5744476022121316  1.0000
  N   N8        1.0  0.658380298323479  0.07391182061850542  0.07444929774840148  1.0000
  N   N9        1.0  0.2863637748995984  0.6904664165709703  0.17398698238842056  1.0000
  N   N10       1.0  0.7136358002759168  0.8095357656542602  0.6739868969363056  1.0000
  N   N11       1.0  0.7136355253566009  0.3095351327871398  0.82601289218735  1.0000
  N   N12       1.0  0.28636608432529453  0.19046698989758679  0.3260134547191384  1.0000
  N   N13       1.0  0.42588374869506407  0.578722318721958  0.10508535408840194  1.0000
  N   N14       1.0  0.5741167783252052  0.9212798069338104  0.6050856804135163  1.0000
  N   N15       1.0  0.5741164584010647  0.4212780232871083  0.8949145204875815  1.0000
  N   N16       1.0  0.425886270004071  0.07872294823285839  0.39491467124221186  1.0000
  N   N17       1.0  0.8802886089252199  0.1518452718751959  0.45714163160295823  1.0000
  N   N18       1.0  0.11970850766618214  0.348144888868589  0.9571450734121638  1.0000
  N   N19       1.0  0.1197095430606296  0.8481454144214879  0.5428549034192256  1.0000
  N   N20       1.0  0.8802919563195531  0.6518566601047411  0.04285575532193769  1.0000
  O   O1        1.0  0.787258711151445  0.12680326303058112  0.505815595950885  1.0000
  O   O2        1.0  0.2127388157551593  0.3731949784357056  0.005819466799529498  1.0000
  O   O3        1.0  0.21273774786720887  0.8731958731687541  0.4941809390709933  1.0000
  O   O4        1.0  0.7872622981838263  0.6268041562250845  0.9941823160927536  1.0000
  O   O5        1.0  0.014212526037809405  0.24837235166884852  0.4629875475024219  1.0000
  O   O6        1.0  0.9857839585810882  0.2516202281553532  0.962992364388931  1.0000
  O   O7        1.0  0.985783812266725  0.7516207493255392  0.537008033361303  1.0000
  O   O8        1.0  0.014216762291326287  0.7483825277814588  0.037007510187208895  1.0000
  O   O9        1.0  0.8378464924031519  0.0822524091028569  0.405124740185009  1.0000
  O   O10       1.0  0.1621521571919686  0.41772925932136207  0.9051262962415759  1.0000
  O   O11       1.0  0.16215167504847022  0.9177274137493611  0.5948737031531334  1.0000
  O   O12       1.0  0.8378528255305326  0.5822771163519603  0.09487453249369787  1.0000
