data_image0
_chemical_formula_structural       MnH44C32N2O4
_chemical_formula_sum              "Mn1 H44 C32 N2 O4"
_cell_length_a       7.559146986098055
_cell_length_b       10.649165692225479
_cell_length_c       14.091331707019124
_cell_angle_alpha    110.91959152170362
_cell_angle_beta     90.0118951259
_cell_angle_gamma    110.77524025908298

_space_group_name_H-M_alt    "P 1"
_space_group_IT_number       1

loop_
  _space_group_symop_operation_xyz
  'x, y, z'

loop_
  _atom_site_type_symbol
  _atom_site_label
  _atom_site_symmetry_multiplicity
  _atom_site_fract_x
  _atom_site_fract_y
  _atom_site_fract_z
  _atom_site_occupancy
  Mn  Mn1       1.0  7.862908120407636e-07  0.9999999874012812  0.9999995065601225  1.0000
  H   H1        1.0  0.05107577679635971  0.10173735456947951  0.6012067596954438  1.0000
  H   H2        1.0  0.9489260059481245  0.8982638108492937  0.39879435282114883  1.0000
  H   H3        1.0  0.9197002660485654  0.8390133681302602  0.5384820638929  1.0000
  H   H4        1.0  0.08030097302754771  0.1609867099980349  0.4615180458718057  1.0000
  H   H5        1.0  0.2403040700206774  0.4800440423286076  0.7453223365370433  1.0000
  H   H6        1.0  0.7596958470119546  0.5199560369745483  0.2546791927819001  1.0000
  H   H7        1.0  0.04437832021470468  0.3237965372447534  0.6656041560393006  1.0000
  H   H8        1.0  0.7202437596807982  0.6763131828467975  0.33445262443774476  1.0000
  H   H9        1.0  0.9556236988661625  0.6762024545986378  0.33439637063197136  1.0000
  H   H10       1.0  0.27975748061754774  0.3236868969168257  0.6655496147364914  1.0000
  H   H11       1.0  0.41091040797229544  0.48605190573521645  0.8971664034492335  1.0000
  H   H12       1.0  0.9241867225729695  0.5137811683022735  0.10289354131533915  1.0000
  H   H13       1.0  0.5890908327334545  0.513948174573514  0.10283654552818434  1.0000
  H   H14       1.0  0.07581109118919482  0.4862199968253196  0.8971068612417383  1.0000
  H   H15       1.0  0.4509999161914564  0.32640492768693014  0.8234396181778648  1.0000
  H   H16       1.0  0.12399693093890118  0.673274713682744  0.1766303018330149  1.0000
  H   H17       1.0  0.548998135944146  0.6735940665908301  0.1765637475497783  1.0000
  H   H18       1.0  0.8760008816010372  0.32672644980952736  0.8233679713145248  1.0000
  H   H19       1.0  0.3365476852517163  0.33485249774545883  0.9350538986697002  1.0000
  H   H20       1.0  0.0012954632700045367  0.6649357545691572  0.06499709008318892  1.0000
  H   H21       1.0  0.6634490436181795  0.6651464960718343  0.0649487572026572  1.0000
  H   H22       1.0  0.9986997051829719  0.33506541127283646  0.9350040221728335  1.0000
  H   H23       1.0  0.7333361878398821  0.46738926845176115  0.5067287452426612  1.0000
  H   H24       1.0  0.2666648148998406  0.5326129832519159  0.49327195036735816  1.0000
  H   H25       1.0  0.9253256255824741  0.6157823658837742  0.49737831130072857  1.0000
  H   H26       1.0  0.3100559641036256  0.3839623190125323  0.5023661698268853  1.0000
  H   H27       1.0  0.07467537674983768  0.38421988527478856  0.5026216745061163  1.0000
  H   H28       1.0  0.6899455823044679  0.6160410199816156  0.49763552853503507  1.0000
  H   H29       1.0  0.992700994263878  0.648445658833481  0.7722674341562765  1.0000
  H   H30       1.0  0.34337615148268713  0.3511567675830207  0.22748627633737328  1.0000
  H   H31       1.0  0.007305535023206753  0.3515544173209122  0.2277305464073436  1.0000
  H   H32       1.0  0.6566285133147786  0.6488422240910763  0.772514250438128  1.0000
  H   H33       1.0  0.10722075790444327  0.6394829509540402  0.660632242718826  1.0000
  H   H34       1.0  0.46714079218647714  0.3600453813421964  0.3390228691013917  1.0000
  H   H35       1.0  0.8927831256660429  0.3605171253696398  0.3393657377405646  1.0000
  H   H36       1.0  0.5328620064917332  0.6399525236711767  0.660977364673279  1.0000
  H   H37       1.0  0.9092409846852834  0.48610082384580977  0.6600243813382392  1.0000
  H   H38       1.0  0.42282348506666534  0.513572444431297  0.3396758114293021  1.0000
  H   H39       1.0  0.09076476459704723  0.5139003385934872  0.3399731823188077  1.0000
  H   H40       1.0  0.5771843678935441  0.4864276327286632  0.6603235887927923  1.0000
  H   H41       1.0  0.21815091028720712  0.7751984819529127  0.9449243719759295  1.0000
  H   H42       1.0  0.4443026698359775  0.22536457352370587  0.05541983926930531  1.0000
  H   H43       1.0  0.781841845526273  0.22480050612212213  0.05507047590512569  1.0000
  H   H44       1.0  0.555689544753598  0.7746333305315077  0.944578264678924  1.0000
  C   C1        1.0  0.955426144793805  0.9103906043805883  0.7923189113240028  1.0000
  C   C2        1.0  0.044579842861963925  0.08960838720886953  0.20768161550361694  1.0000
  C   C3        1.0  0.03299578845633282  0.0657175444154774  0.8296477637129128  1.0000
  C   C4        1.0  0.9670022624570438  0.9342814482269547  0.17035347260519984  1.0000
  C   C5        1.0  0.07045917617485749  0.14060307214035117  0.7622222675335236  1.0000
  C   C6        1.0  0.9295406710844107  0.8593915743568916  0.23777921675242206  1.0000
  C   C7        1.0  0.026198102545308206  0.05199541084507331  0.6578567448940618  1.0000
  C   C8        1.0  0.9737983165481414  0.9480003188357177  0.3421400635620061  1.0000
  C   C9        1.0  0.949784609701105  0.8991267627164701  0.6212806846400625  1.0000
  C   C10       1.0  0.05021717345078973  0.1008744032474098  0.3787211376797117  1.0000
  C   C11       1.0  0.911697704530191  0.8229312129039883  0.6862978818114058  1.0000
  C   C12       1.0  0.08830570840456892  0.1770732132959978  0.3137048193545198  1.0000
  C   C13       1.0  0.15353201648920145  0.3066152384391217  0.8025500854441601  1.0000
  C   C14       1.0  0.846466577685128  0.6933848409486743  0.1974514438226649  1.0000
  C   C15       1.0  0.1805883170379517  0.3606801319079763  0.7143665879642711  1.0000
  C   C16       1.0  0.8194134661139432  0.6393210340559038  0.2856352343555031  1.0000
  C   C17       1.0  0.3499500069151298  0.36657367291984855  0.8686316325456714  1.0000
  C   C18       1.0  0.9828336102099517  0.6332519416896859  0.13142617058699807  1.0000
  C   C19       1.0  0.6500472648083075  0.6334264070977013  0.13137060647222398  1.0000
  C   C20       1.0  0.017164982742144782  0.36674813606278894  0.8685732292702966  1.0000
  C   C21       1.0  0.8287887862049744  0.6573413633656884  0.6483533837415365  1.0000
  C   C22       1.0  0.17121112960543183  0.34265871430214645  0.3516460161678765  1.0000
  C   C23       1.0  0.7928752508860984  0.5862329086943988  0.5308429680484892  1.0000
  C   C24       1.0  0.2071238849195468  0.41376825525833993  0.46915601495434334  1.0000
  C   C25       1.0  0.9687470379626649  0.6053930039518679  0.688110094999935  1.0000
  C   C26       1.0  0.3628236989986392  0.3942955440923228  0.3116374772923365  1.0000
  C   C27       1.0  0.03125949173183787  0.39460707274763257  0.3118885953668666  1.0000
  C   C28       1.0  0.6371788633431877  0.6057045344964321  0.6883633423276619  1.0000
  C   C29       1.0  0.3452646323882791  0.8754830276331373  0.9694731901279781  1.0000
  C   C30       1.0  0.4704433518246773  0.124784339627162  0.0307233599376247  1.0000
  C   C31       1.0  0.6547268009743165  0.1245159610716513  0.030522367504147507  1.0000
  C   C32       1.0  0.5295475386843623  0.8752135628773631  0.9692726145489557  1.0000
  N   N1        1.0  0.3165950680029469  0.00027216572706830004  0.0001949009483724  1.0000
  N   N2        1.0  0.683395822506093  0.9997257367774639  0.9998010735382081  1.0000
  O   O1        1.0  0.9288287216599546  0.8569395117187213  0.8662590166860653  1.0000
  O   O2        1.0  0.07117197415519885  0.14305947966420265  0.133740800129921  1.0000
  O   O3        1.0  0.06543255126121042  0.13092670169691437  0.9322135934152556  1.0000
  O   O4        1.0  0.9345679094397926  0.8690744648967126  0.06778893865558905  1.0000
