data_image0
_chemical_formula_structural       Zn4H84C124N28O24
_chemical_formula_sum              "Zn4 H84 C124 N28 O24"
_cell_length_a       17.67897964466619
_cell_length_b       17.96666860031698
_cell_length_c       18.48102990255864
_cell_angle_alpha    65.48353417941009
_cell_angle_beta     61.42635742087354
_cell_angle_gamma    60.52653202985282

_space_group_name_H-M_alt    "P 1"
_space_group_IT_number       1

loop_
  _space_group_symop_operation_xyz
  'x, y, z'

loop_
  _atom_site_type_symbol
  _atom_site_label
  _atom_site_symmetry_multiplicity
  _atom_site_fract_x
  _atom_site_fract_y
  _atom_site_fract_z
  _atom_site_occupancy
  Zn  Zn1       1.0  0.5743955979324086  0.8372877572397998  0.42111234909045675  1.0000
  Zn  Zn2       1.0  0.8327967032207941  0.6626942794558702  0.07889631966522594  1.0000
  Zn  Zn3       1.0  0.4256010833035262  0.16271794306167917  0.578886352468075  1.0000
  Zn  Zn4       1.0  0.16721101202578134  0.33730967018095015  0.9210953692094748  1.0000
  H   H1        1.0  0.27457668508097305  0.9604948838889485  0.555614306528028  1.0000
  H   H2        1.0  0.10463375988713607  0.986767485122172  0.6077585259831508  1.0000
  H   H3        1.0  0.13771430728025558  0.9733342260530617  0.3671292524272047  1.0000
  H   H4        1.0  0.30671693672874073  0.9479883865438055  0.3150709748661669  1.0000
  H   H5        1.0  0.8424797991924253  0.8136394018167507  0.20490640652108288  1.0000
  H   H6        1.0  0.9700057731171726  0.859164972816217  0.08118371389046776  1.0000
  H   H7        1.0  0.8232917296898776  0.12237272240753329  0.11897616961500998  1.0000
  H   H8        1.0  0.6973927713362829  0.0760157991776893  0.24400851380993763  1.0000
  H   H9        1.0  0.43552617105950037  0.7521414185818215  0.49088057119246986  1.0000
  H   H10       1.0  0.4206773661425416  0.63643211012365  0.4620113632665975  1.0000
  H   H11       1.0  0.7038096198555693  0.5815803614565668  0.28865130837588276  1.0000
  H   H12       1.0  0.7071409498439467  0.6977705396378723  0.32562356518936736  1.0000
  H   H13       1.0  0.38083276334845834  0.4258552467385427  0.40894533465166916  1.0000
  H   H14       1.0  0.42270671417035305  0.3095736828705782  0.33852803076778326  1.0000
  H   H15       1.0  0.586906635250351  0.25188348705480484  0.2393808343129676  1.0000
  H   H16       1.0  0.051215838401695614  0.23313458468329878  0.9741620222724306  1.0000
  H   H17       1.0  0.8930906101853398  0.2361995825166403  0.07296839585380607  1.0000
  H   H18       1.0  0.8778111011953843  0.4271887723017399  0.17058619263797656  1.0000
  H   H19       1.0  0.03479597760702556  0.41505869813547486  0.06983225953804616  1.0000
  H   H20       1.0  0.7468152221190183  0.39432966584689677  0.21543286506434353  1.0000
  H   H21       1.0  0.6195191285047842  0.5076560093370617  0.303481738195778  1.0000
  H   H22       1.0  0.7906893503220759  0.5395126720724476  0.9443761927400942  1.0000
  H   H23       1.0  0.6991647281144324  0.5132357991703174  0.8922348913151125  1.0000
  H   H24       1.0  0.4782144476392458  0.5266360434809414  0.13287935911128562  1.0000
  H   H25       1.0  0.5698156717631946  0.5519751137744892  0.1849329593302897  1.0000
  H   H26       1.0  0.8610408520124793  0.6863312306980517  0.29507695606827156  1.0000
  H   H27       1.0  0.9103456927170728  0.6408360530802995  0.4188073977265173  1.0000
  H   H28       1.0  0.06481455010360551  0.3776410014430169  0.38094868482492217  1.0000
  H   H29       1.0  0.017611599047881985  0.42398719601852974  0.2559042648629344  1.0000
  H   H30       1.0  0.6785318504573823  0.7478387997077577  0.009134642080106  1.0000
  H   H31       1.0  0.5190928848787237  0.8635587056429445  0.0380005466901281  1.0000
  H   H32       1.0  0.5740292896354479  0.9184248484415535  0.21134209561146364  1.0000
  H   H33       1.0  0.7305287828076671  0.8022250297178175  0.1743721785754603  1.0000
  H   H34       1.0  0.21560178654291923  0.0741531842058407  0.09105747033184027  1.0000
  H   H35       1.0  0.07078195494727886  0.19044755721071738  0.1614833100710342  1.0000
  H   H36       1.0  0.07816249681451383  0.24811061491002556  0.26062047021054724  1.0000
  H   H37       1.0  0.25850105876718743  0.2668779138370708  0.5258274148009291  1.0000
  H   H38       1.0  0.20224162407419757  0.26378935755545296  0.42704155161784735  1.0000
  H   H39       1.0  0.47557770240247527  0.0727946297735897  0.32942322276741004  1.0000
  H   H40       1.0  0.5196843361266518  0.0849408458563232  0.4301665643014019  1.0000
  H   H41       1.0  0.3565562213547793  0.10567495827235973  0.2845720098365732  1.0000
  H   H42       1.0  0.4306322750319254  0.9923455148266455  0.19651724203067303  1.0000
  H   H43       1.0  0.725412144919467  0.0395014872908774  0.44439039728130325  1.0000
  H   H44       1.0  0.8953584614868788  0.013234996705016005  0.39223853735190756  1.0000
  H   H45       1.0  0.8622761436890446  0.0266661992262271  0.6328710144230099  1.0000
  H   H46       1.0  0.6932758813615367  0.05200612146945361  0.6849304751930203  1.0000
  H   H47       1.0  0.15752221576284606  0.18636934359942356  0.7950779082402022  1.0000
  H   H48       1.0  0.029989218354650383  0.14085475078591264  0.9188050043945566  1.0000
  H   H49       1.0  0.17670472551041877  0.8776330452445862  0.8810420943368273  1.0000
  H   H50       1.0  0.30260864320683123  0.9239808468821167  0.7560088185038794  1.0000
  H   H51       1.0  0.5644749149844303  0.2478482466394568  0.5091298202815152  1.0000
  H   H52       1.0  0.5793308354843988  0.3635510251259292  0.537998846010822  1.0000
  H   H53       1.0  0.29619709871156635  0.41842256899315083  0.7113525840305925  1.0000
  H   H54       1.0  0.2928534083465665  0.30223760916199893  0.6743806649939897  1.0000
  H   H55       1.0  0.6191771072713479  0.5741398595923997  0.5910579471600029  1.0000
  H   H56       1.0  0.5772964461256153  0.6904254131527098  0.6614729687902283  1.0000
  H   H57       1.0  0.4130935039399048  0.7481217305973829  0.7606121623533184  1.0000
  H   H58       1.0  0.9487795163080579  0.7668860346224874  0.025818613831944625  1.0000
  H   H59       1.0  0.10690881238789983  0.7638238185446228  0.927006643207271  1.0000
  H   H60       1.0  0.12220291927605595  0.5728022766032838  0.8294216334878326  1.0000
  H   H61       1.0  0.9652173632930289  0.5849357288383743  0.9301718820017083  1.0000
  H   H62       1.0  0.25319359227054145  0.6056823511662018  0.78457312351172  1.0000
  H   H63       1.0  0.3804981184969592  0.4923433936516163  0.69650900823639  1.0000
  H   H64       1.0  0.20931150753951755  0.46047432938602384  0.055635855634790225  1.0000
  H   H65       1.0  0.30083926735174055  0.48675782287867975  0.10777430858306765  1.0000
  H   H66       1.0  0.5217866792385596  0.47336165346845155  0.867124712494217  1.0000
  H   H67       1.0  0.43018488517236625  0.44801591557173753  0.815075528053292  1.0000
  H   H68       1.0  0.1389476687768011  0.3136835147249357  0.7049252311780306  1.0000
  H   H69       1.0  0.08964181290386365  0.35917796821726  0.5811971461210774  1.0000
  H   H70       1.0  0.935176941552861  0.6223711894726094  0.6190515111691398  1.0000
  H   H71       1.0  0.9823797472813709  0.5760269268793935  0.7440968858939384  1.0000
  H   H72       1.0  0.321473849927763  0.2521492405766068  0.9908645449307585  1.0000
  H   H73       1.0  0.4809068278023717  0.13642649388960143  0.9620062074352375  1.0000
  H   H74       1.0  0.42596983130498967  0.08157969426215317  0.7886516165010277  1.0000
  H   H75       1.0  0.2694722251965517  0.19778286043440835  0.8256188692006604  1.0000
  H   H76       1.0  0.7843894841891697  0.9258420129838997  0.908942791083149  1.0000
  H   H77       1.0  0.9292153628116469  0.8095582173972672  0.8385129112914526  1.0000
  H   H78       1.0  0.9218421995408768  0.7518879722522556  0.7393757004230322  1.0000
  H   H79       1.0  0.7414988431564854  0.7331133362643455  0.47417370584821567  1.0000
  H   H80       1.0  0.7977594424536679  0.7362006191198275  0.5729584458739653  1.0000
  H   H81       1.0  0.5244260084798783  0.9271999939880401  0.6705743575775428  1.0000
  H   H82       1.0  0.4803182080971809  0.9150550841160765  0.5698310450974944  1.0000
  H   H83       1.0  0.6434431085723135  0.894309657010531  0.7154324324872618  1.0000
  H   H84       1.0  0.5693627984958809  0.0076531543772019985  0.8034761967699637  1.0000
  C   C1        1.0  0.400829513230754  0.9391652497172557  0.39818877010264947  1.0000
  C   C2        1.0  0.2998750736856763  0.9542396140589419  0.43175108385847216  1.0000
  C   C3        1.0  0.2437860804368556  0.9640135518739187  0.5148035158669372  1.0000
  C   C4        1.0  0.15020161588842737  0.9783556095853784  0.5436838249648658  1.0000
  C   C5        1.0  0.11203662872871695  0.9822759080545894  0.4901067869204212  1.0000
  C   C6        1.0  0.16858225842624122  0.9710957249021349  0.407158096679396  1.0000
  C   C7        1.0  0.26146937189992053  0.9573288882603708  0.37877601902753366  1.0000
  C   C8        1.0  0.6860179900483914  0.9171358853758207  0.30455886644341484  1.0000
  C   C9        1.0  0.7623781268577334  0.9427398452894451  0.23112090064230975  1.0000
  C   C10       1.0  0.8390438676396389  0.8810771580116208  0.18540932013227962  1.0000
  C   C11       1.0  0.9092168126626988  0.9058917077081361  0.11674985826853396  1.0000
  C   C12       1.0  0.9025909807157932  0.9936467290494664  0.092554424975887  1.0000
  C   C13       1.0  0.8268155319718958  0.055048987993537024  0.1383756943259513  1.0000
  C   C14       1.0  0.7570059446813177  0.029505924715195402  0.20742176656666808  1.0000
  C   C15       1.0  0.4932014741459768  0.5007361929785078  0.38518263914155426  1.0000
  C   C16       1.0  0.49368580294044057  0.7115806793564873  0.44751002039838284  1.0000
  C   C17       1.0  0.4850729535400194  0.6480050119375135  0.43119011369394394  1.0000
  C   C18       1.0  0.561882140665027  0.5986482667795413  0.3735272921550034  1.0000
  C   C19       1.0  0.643511828367167  0.6165112529788175  0.33537159946286016  1.0000
  C   C20       1.0  0.6455864497052772  0.6812315098677572  0.3555691655327637  1.0000
  C   C21       1.0  0.7253714151640696  0.3033866877325978  0.1968563602987529  1.0000
  C   C22       1.0  0.5185451542846379  0.428182879397106  0.34723126368370316  1.0000
  C   C23       1.0  0.45030717665449077  0.39803871501682403  0.36559854547259335  1.0000
  C   C24       1.0  0.47419130856097524  0.33374662876965283  0.3268206672962677  1.0000
  C   C25       1.0  0.564636062183787  0.3014014128772402  0.2721102254098539  1.0000
  C   C26       1.0  0.6282550397707923  0.3350657735244411  0.2582509837217728  1.0000
  C   C27       1.0  0.010422404579806348  0.27445067401811934  0.019700796043878175  1.0000
  C   C28       1.0  0.9222170953950127  0.27621993845603743  0.07449298634815452  1.0000
  C   C29       1.0  0.8708552593228804  0.33261956765227296  0.1305107635412241  1.0000
  C   C30       1.0  0.9136264423055495  0.38165489089184484  0.12970885253894696  1.0000
  C   C31       1.0  0.0018939641348864993  0.37566683517975724  0.07267880121970191  1.0000
  C   C32       1.0  0.7382012747552551  0.5608161708897867  0.10181411260446549  1.0000
  C   C33       1.0  0.6858844557995241  0.545747397433189  0.06824958974785017  1.0000
  C   C34       1.0  0.722616241122715  0.5359755987412385  0.9851877615895076  1.0000
  C   C35       1.0  0.6722447946076359  0.5216493772793527  0.9563063851902596  1.0000
  C   C36       1.0  0.5844268813430066  0.5177185353038566  0.00989463289256776  1.0000
  C   C37       1.0  0.5468598998696379  0.5288877776897749  0.09284745780016124  1.0000
  C   C38       1.0  0.5975994536946062  0.5426458578297897  0.12123445160471376  1.0000
  C   C39       1.0  0.9077719357884179  0.5828319288641951  0.19541360966572766  1.0000
  C   C40       1.0  0.9363402614418845  0.5572458492908794  0.2688208547863767  1.0000
  C   C41       1.0  0.9055808669889275  0.6189074691554383  0.31456077508772023  1.0000
  C   C42       1.0  0.9319001238540852  0.5940913876040811  0.3832320184031417  1.0000
  C   C43       1.0  0.9888920943112112  0.5063531115691404  0.407403758123543  1.0000
  C   C44       1.0  0.020398254483851054  0.44496217437144736  0.3615515086261781  1.0000
  C   C45       1.0  0.9941229565489214  0.4704992726340507  0.2924806217744728  1.0000
  C   C46       1.0  0.3790989238682982  0.9992700924143068  0.11481377684075512  1.0000
  C   C47       1.0  0.6527599911483649  0.7884008780662485  0.052505407205124796  1.0000
  C   C48       1.0  0.564251061542464  0.8519857908299288  0.06881823200082943  1.0000
  C   C49       1.0  0.5340419531273071  0.9013390770225983  0.12647971618812187  1.0000
  C   C50       1.0  0.5953893832221201  0.8834821079079943  0.1646275233350848  1.0000
  C   C51       1.0  0.6823790529372149  0.8187555593895439  0.1444308122787347  1.0000
  C   C52       1.0  0.22559543299924203  0.19658347726031883  0.30317373025743416  1.0000
  C   C53       1.0  0.29394524068631267  0.07182972416055121  0.15275708806595384  1.0000
  C   C54       1.0  0.21392742957471  0.10197720629775381  0.1343948489248561  1.0000
  C   C55       1.0  0.13473765865297335  0.16626209454484814  0.1731862723567943  1.0000
  C   C56       1.0  0.13812584179132875  0.19859550299336348  0.22790414438793496  1.0000
  C   C57       1.0  0.22155134894279635  0.16491508479366962  0.2417698814757969  1.0000
  C   C58       1.0  0.30456326496926084  0.22555145868548013  0.4802979819040444  1.0000
  C   C59       1.0  0.2729203314341789  0.22377586297920968  0.42550825936570646  1.0000
  C   C60       1.0  0.3339736448107331  0.16737259152075273  0.3694968421739873  1.0000
  C   C61       1.0  0.424979359997515  0.11833680465217362  0.37029487656106136  1.0000
  C   C62       1.0  0.45023216162072544  0.12432999488829208  0.4273227888414226  1.0000
  C   C63       1.0  0.5991730627427078  0.060827408195294204  0.6018089865097236  1.0000
  C   C64       1.0  0.7001195558033971  0.04575353091151871  0.5682522333642765  1.0000
  C   C65       1.0  0.7562072636803167  0.0359796411913322  0.4851981971275804  1.0000
  C   C66       1.0  0.8497902647528336  0.021642852009136994  0.45631654429907104  1.0000
  C   C67       1.0  0.8879552160542731  0.017725891169050108  0.5098912469232603  1.0000
  C   C68       1.0  0.8314110150015498  0.02890412702904401  0.5928394925263162  1.0000
  C   C69       1.0  0.7385250263253411  0.0426616421242372  0.6212273139410273  1.0000
  C   C70       1.0  0.3139855478657694  0.08286387685870272  0.6954417096576576  1.0000
  C   C71       1.0  0.23762164498594276  0.057264542228345795  0.7688779899978471  1.0000
  C   C72       1.0  0.16095739926937827  0.11893014023586088  0.8145796709047346  1.0000
  C   C73       1.0  0.09077933946487353  0.09411535671829802  0.8832469391995871  1.0000
  C   C74       1.0  0.0974024431071783  0.0063653241547144  0.9074503655672926  1.0000
  C   C75       1.0  0.17318434121579457  0.9449597002076684  0.8616323411066134  1.0000
  C   C76       1.0  0.24299647578568076  0.9704915930008794  0.7925882856806155  1.0000
  C   C77       1.0  0.5068141539412354  0.49925912312608034  0.6148136383531194  1.0000
  C   C78       1.0  0.5063152872121252  0.2884089202955238  0.5525025592823808  1.0000
  C   C79       1.0  0.5149349502423703  0.35198210202287333  0.5688181757472534  1.0000
  C   C80       1.0  0.43812881375818347  0.4013409375955277  0.6264766627407993  1.0000
  C   C81       1.0  0.3564913411732462  0.3834876955136295  0.6646343235603852  1.0000
  C   C82       1.0  0.3544160781763425  0.3187674462797645  0.6444365024280643  1.0000
  C   C83       1.0  0.2746301269241302  0.6966312076519044  0.80312793627904  1.0000
  C   C84       1.0  0.48146162264595194  0.5718135888944786  0.6527701878912566  1.0000
  C   C85       1.0  0.5496949592286883  0.6019598044118838  0.6343998872214553  1.0000
  C   C86       1.0  0.5258112847140313  0.6662572017923342  0.6731749986476881  1.0000
  C   C87       1.0  0.4353733978808523  0.6986077670134492  0.7278813950463744  1.0000
  C   C88       1.0  0.3717515180617144  0.6649393347923153  0.7417456576721191  1.0000
  C   C89       1.0  0.9895786483669372  0.7255651822929535  0.9802861200705306  1.0000
  C   C90       1.0  0.07778252582544812  0.723797914324436  0.9254927332491435  1.0000
  C   C91       1.0  0.1291445533546779  0.6673928515936325  0.86948180723045  1.0000
  C   C92       1.0  0.08638207328012733  0.6183469060074883  0.8702892483073796  1.0000
  C   C93       1.0  0.9981128608197097  0.6243375500937346  0.9273201598486268  1.0000
  C   C94       1.0  0.2617960144957225  0.4391813752822955  0.8981949932468323  1.0000
  C   C95       1.0  0.31411433981556763  0.45425287915310975  0.9317556340689278  1.0000
  C   C96       1.0  0.2773876622438963  0.4640135750935031  0.014817216981505475  1.0000
  C   C97       1.0  0.32775998270874157  0.47834238709384636  0.04369937974906426  1.0000
  C   C98       1.0  0.4155733459983679  0.4822797448130416  0.9901117874413145  1.0000
  C   C99       1.0  0.45313995190786466  0.4711098034312471  0.9071604800940493  1.0000
  C   C100      1.0  0.40239666992501816  0.457352978160749  0.8787752303522183  1.0000
  C   C101      1.0  0.09221402042001614  0.41718281439447946  0.8045886514342727  1.0000
  C   C102      1.0  0.06365111047402654  0.4427650999010879  0.7311771608738199  1.0000
  C   C103      1.0  0.09440844181351339  0.3811053202378575  0.6854412595098793  1.0000
  C   C104      1.0  0.06809133502559209  0.4059240917637156  0.616767483325752  1.0000
  C   C105      1.0  0.011100187412743915  0.49365709053216733  0.5925973793252055  1.0000
  C   C106      1.0  0.9795955377128607  0.5550506925748167  0.6384479349948292  1.0000
  C   C107      1.0  0.005866609103996778  0.5295129576391345  0.7075182619806312  1.0000
  C   C108      1.0  0.6208895940675279  0.0007190356499436011  0.8851927389558512  1.0000
  C   C109      1.0  0.34724096693772577  0.2115876765698843  0.9474984275214454  1.0000
  C   C110      1.0  0.43574733298992646  0.1480027452495847  0.9311862236311367  1.0000
  C   C111      1.0  0.4659554988202573  0.09865349459975188  0.8735209233901244  1.0000
  C   C112      1.0  0.4046132766336187  0.11651512935733885  0.8353700781909125  1.0000
  C   C113      1.0  0.3176240560930666  0.18124712014760289  0.8555596460836128  1.0000
  C   C114      1.0  0.7744097055007516  0.803409215601171  0.6968228583978586  1.0000
  C   C115      1.0  0.7060546377728513  0.9281504516453155  0.8472428409414404  1.0000
  C   C116      1.0  0.7860704686261003  0.8980094054545448  0.8656083968818676  1.0000
  C   C117      1.0  0.8652604728659768  0.8337270990086695  0.826818051807507  1.0000
  C   C118      1.0  0.8618731575144242  0.8013963794525055  0.7720976838345097  1.0000
  C   C119      1.0  0.7784487259490761  0.8350710268348537  0.7582282434172286  1.0000
  C   C120      1.0  0.6954412328991001  0.7744412254387713  0.5196988987405149  1.0000
  C   C121      1.0  0.7270825085798907  0.7762161210670228  0.574490175766023  1.0000
  C   C122      1.0  0.6660307394800357  0.8326187525259457  0.63050114044686  1.0000
  C   C123      1.0  0.5750235925669784  0.8816565358639324  0.6297019095426817  1.0000
  C   C124      1.0  0.5497695894541366  0.8756679730753872  0.5726722379477066  1.0000
  N   N1        1.0  0.5719731249980244  0.7287453357205749  0.4109169706570556  1.0000
  N   N2        1.0  0.5619863740410481  0.5335128181759928  0.35169929048883825  1.0000
  N   N3        1.0  0.7803563001347275  0.34392315011582747  0.1853719301032369  1.0000
  N   N4        1.0  0.0503129478402187  0.3231707231679906  0.017666650491193488  1.0000
  N   N5        1.0  0.6058535938572334  0.3968851684946984  0.2952088644221646  1.0000
  N   N6        1.0  0.016759820277663144  0.996344598739917  0.5254721071334886  1.0000
  N   N7        1.0  0.9692734002493212  0.0263552505824407  0.023626271795144788  1.0000
  N   N8        1.0  0.7116231214742542  0.7712430201243522  0.08908999868168624  1.0000
  N   N9        1.0  0.44717668575292197  0.9664789437083458  0.14830249839972254  1.0000
  N   N10       1.0  0.3096331148547976  0.15607837553456963  0.3146357794966833  1.0000
  N   N11       1.0  0.3911422557344082  0.17682887143714507  0.4823366822371399  1.0000
  N   N12       1.0  0.2979283648128686  0.10310355417200871  0.2047988706289203  1.0000
  N   N13       1.0  0.5385826508238695  0.5036475637454885  0.9745264894274113  1.0000
  N   N14       1.0  0.019288251317810493  0.47366180568982946  0.476363618583072  1.0000
  N   N15       1.0  0.4280267247251573  0.2712522781850808  0.5890898731337657  1.0000
  N   N16       1.0  0.43803528377145556  0.46648190269739603  0.648295037621743  1.0000
  N   N17       1.0  0.2196471854187436  0.6560944272417474  0.8146229785923039  1.0000
  N   N18       1.0  0.9496884511352808  0.6768376200953696  0.9823310855000069  1.0000
  N   N19       1.0  0.39415534444935213  0.6031138094559197  0.7047960718527193  1.0000
  N   N20       1.0  0.9832311188059251  0.003657882005114703  0.4745249931284191  1.0000
  N   N21       1.0  0.030723873526412104  0.9736567566912556  0.9763800491225609  1.0000
  N   N22       1.0  0.28837886189158735  0.22875754603285967  0.9109055594133294  1.0000
  N   N23       1.0  0.5528182005866357  0.033513642142004606  0.8516976679805309  1.0000
  N   N24       1.0  0.6903690078354858  0.8439089056754271  0.6853669320725612  1.0000
  N   N25       1.0  0.6088596468306378  0.8231670661903366  0.5176606720993391  1.0000
  N   N26       1.0  0.7020686225527515  0.8968838210632627  0.79520070633756  1.0000
  N   N27       1.0  0.46141617551369046  0.49634945717327383  0.025478334551145662  1.0000
  N   N28       1.0  0.980701204866172  0.5263490189365356  0.5236385553550915  1.0000
  O   O1        1.0  0.6903145642170758  0.8379287148968046  0.3196497928071479  1.0000
  O   O2        1.0  0.6204242239751779  0.970482359175847  0.34873837993382023  1.0000
  O   O3        1.0  0.44141403233272314  0.960436993500231  0.31949442314631676  1.0000
  O   O4        1.0  0.4395196686097052  0.9035738862447004  0.45487472193926254  1.0000
  O   O5        1.0  0.4171467001315819  0.526518343991448  0.44004732934367036  1.0000
  O   O6        1.0  0.7501292332170167  0.24641164675493601  0.16103981100482656  1.0000
  O   O7        1.0  0.8479307847123393  0.6620374304398453  0.1803481494469635  1.0000
  O   O8        1.0  0.9397136449324535  0.5294853397575494  0.15123746074415584  1.0000
  O   O9        1.0  0.72137334471293  0.5395465577891514  0.18050953769795075  1.0000
  O   O10       1.0  0.7979884484066063  0.5963998877485254  0.045124649811093084  1.0000
  O   O11       1.0  0.38369400023063355  0.9734834195314901  0.05994898985367328  1.0000
  O   O12       1.0  0.15754532044962133  0.2535455496464182  0.3390143112809341  1.0000
  O   O13       1.0  0.3096880597803988  0.1620718599976456  0.6803454732985941  1.0000
  O   O14       1.0  0.37957599617606524  0.029516035687258604  0.6512642110382103  1.0000
  O   O15       1.0  0.5585815703034597  0.03956031157866141  0.6805009197447305  1.0000
  O   O16       1.0  0.5604799068012696  0.0964245654504339  0.5451259728152634  1.0000
  O   O17       1.0  0.5828739354826526  0.4734643161839144  0.559956916553553  1.0000
  O   O18       1.0  0.24986217304942243  0.7536303351566643  0.8389258213823111  1.0000
  O   O19       1.0  0.15206669670249798  0.3379775684429731  0.8196455735359791  1.0000
  O   O20       1.0  0.060277212255343326  0.4705267440669516  0.8487663095493332  1.0000
  O   O21       1.0  0.27862756117266946  0.46044836065122746  0.8195000201702953  1.0000
  O   O22       1.0  0.20201335496110331  0.4035944803089819  0.9548814652253838  1.0000
  O   O23       1.0  0.6162945055394573  0.026494453921735293  0.9400623518698198  1.0000
  O   O24       1.0  0.8424608750797451  0.7464558826762868  0.6609741479562742  1.0000
