data_image0
_chemical_formula_structural       Cd2H32C46N8O16
_chemical_formula_sum              "Cd2 H32 C46 N8 O16"
_cell_length_a       7.092768585272376
_cell_length_b       12.95214594250348
_cell_length_c       13.8012
_cell_angle_alpha    112.45105645454157
_cell_angle_beta     102.62655917670376
_cell_angle_gamma    95.14260580723177

_space_group_name_H-M_alt    "P 1"
_space_group_IT_number       1

loop_
  _space_group_symop_operation_xyz
  'x, y, z'

loop_
  _atom_site_type_symbol
  _atom_site_label
  _atom_site_symmetry_multiplicity
  _atom_site_fract_x
  _atom_site_fract_y
  _atom_site_fract_z
  _atom_site_occupancy
  Cd  Cd1       1.0  0.2678927543350085  0.5744175954835598  0.5057837803783798  1.0000
  Cd  Cd2       1.0  0.7321046792985371  0.4255826637128663  0.4942193572515308  1.0000
  H   H1        1.0  0.4227791391198252  0.4945689216292664  0.6719232434174671  1.0000
  H   H2        1.0  0.5772225971573306  0.5054355936661921  0.3280797292392704  1.0000
  H   H3        1.0  0.19306550049783772  0.5168112951468018  0.6696574598761484  1.0000
  H   H4        1.0  0.8069362676230157  0.48318896404962425  0.33034616469672773  1.0000
  H   H5        1.0  0.3107367925416682  0.8401445846040119  0.5418122137415223  1.0000
  H   H6        1.0  0.6892623685180652  0.1598565258122235  0.4581870755791044  1.0000
  H   H7        1.0  0.4573282831656655  0.0330996821366085  0.6910548552672748  1.0000
  H   H8        1.0  0.5426775368454102  0.9668997258400154  0.30893877537867803  1.0000
  H   H9        1.0  0.6003728415428711  0.0490345168954391  0.8820616073965439  1.0000
  H   H10       1.0  0.39962892657798227  0.9509657423009868  0.11793042398154084  1.0000
  H   H11       1.0  0.6633263645858847  0.9532904235897917  0.007294236404220516  1.0000
  H   H12       1.0  0.3366684301428506  0.046714942925468995  0.9927010157586051  1.0000
  H   H13       1.0  0.6334207636609435  0.774116315511705  0.036152265395422434  1.0000
  H   H14       1.0  0.3665717066037502  0.2258907534431671  0.963845509511671  1.0000
  H   H15       1.0  0.477383646421444  0.5888730102204534  0.8790604698276068  1.0000
  H   H16       1.0  0.5226157972353676  0.4111289514155914  0.12094133004148933  1.0000
  H   H17       1.0  0.2829436357064736  0.747971950405784  0.05535887857864443  1.0000
  H   H18       1.0  0.7170584150114581  0.2520291600104514  0.9446429090946467  1.0000
  H   H19       1.0  0.9370972519134712  0.6684084351863291  0.942321775396472  1.0000
  H   H20       1.0  0.06290134395209179  0.3315909727903019  0.057680463148649566  1.0000
  H   H21       1.0  0.705357806587685  0.5659998828270432  0.0047903797445200905  1.0000
  H   H22       1.0  0.29464656859428834  0.4339995251495878  0.9952125080578825  1.0000
  H   H23       1.0  0.8230695138138487  0.5471862226860296  0.1798263889925664  1.0000
  H   H24       1.0  0.1769340135768758  0.45281063163118057  0.8201747637618408  1.0000
  H   H25       1.0  0.9363603413041943  0.9621737534799167  0.13846797667103766  1.0000
  H   H26       1.0  0.0636362445381025  0.0378239520570958  0.8615305276121888  1.0000
  H   H27       1.0  0.0062433775890510705  0.8803136472252433  0.27730325483447155  1.0000
  H   H28       1.0  0.9937532082532455  0.11968405831176909  0.7226945248740789  1.0000
  H   H29       1.0  0.1707266821354381  0.0105576792475333  0.47221653178667106  1.0000
  H   H30       1.0  0.8292771596960691  0.9894357701904538  0.5277805376855936  1.0000
  H   H31       1.0  0.2526213460162907  0.2183804410993062  0.5284491144798196  1.0000
  H   H32       1.0  0.7473850710326388  0.7816164132179039  0.4715509137538731  1.0000
  C   C1        1.0  0.36840054259188554  0.8506826857960235  0.6258845959758759  1.0000
  C   C2        1.0  0.6315994981027799  0.1493167221806075  0.3741141820101888  1.0000
  C   C3        1.0  0.4522993282779026  0.9592276817331111  0.7104433320301878  1.0000
  C   C4        1.0  0.5476998327818238  0.0407734286831314  0.2895523344170669  1.0000
  C   C5        1.0  0.528922206347417  0.9674376967570879  0.814345121689854  1.0000
  C   C6        1.0  0.4710760750773701  0.032565116098759  0.1856517806666389  1.0000
  C   C7        1.0  0.5167049071515848  0.8681556747433845  0.834880602798229  1.0000
  C   C8        1.0  0.483284705298594  0.1318471381124695  0.1651189485457181  1.0000
  C   C9        1.0  0.5918970521435939  0.8715077783374171  0.9401353764213025  1.0000
  C   C10       1.0  0.4080977425851415  0.1284975881778507  0.05986422318957809  1.0000
  C   C11       1.0  0.5758133702917121  0.7724215368789658  0.9554469475437131  1.0000
  C   C12       1.0  0.4241773725468008  0.2275846808561042  0.044553226523319674  1.0000
  C   C13       1.0  0.4865025161522496  0.6671631006108925  0.8664665189652822  1.0000
  C   C14       1.0  0.5134946030405203  0.3328405634647638  0.1335378036480748  1.0000
  C   C15       1.0  0.4119448400857664  0.6591897246928369  0.7619924955638808  1.0000
  C   C16       1.0  0.5880534413390209  0.34081308816301004  0.2380109279646803  1.0000
  C   C17       1.0  0.42564642332439456  0.7615020892140976  0.7445821364613535  1.0000
  C   C18       1.0  0.5743536173702779  0.2384973187625263  0.25541809067406257  1.0000
  C   C19       1.0  0.1838782467329594  0.6133881406186603  0.3167539679494098  1.0000
  C   C20       1.0  0.816129300704297  0.3866121185777729  0.6832503058807403  1.0000
  C   C21       1.0  0.11661923432036758  0.6348107894635078  0.21608245206611085  1.0000
  C   C22       1.0  0.8833834134354248  0.3651877672933139  0.7839177628735072  1.0000
  C   C23       1.0  0.2423562680913918  0.6908627624354367  0.17844523913839075  1.0000
  C   C24       1.0  0.7576432074091173  0.3091349431015828  0.8215535897734723  1.0000
  C   C25       1.0  0.18074461100754038  0.7025397957271906  0.08074525651124993  1.0000
  C   C26       1.0  0.8192586337861057  0.2974562073702103  0.9192526611200191  1.0000
  C   C27       1.0  0.9859320101468327  0.6578882096102348  0.017967303067656717  1.0000
  C   C28       1.0  0.014065455330410308  0.34210779348716613  0.9820335881797104  1.0000
  C   C29       1.0  0.8574388871910086  0.6019817952250435  0.053684886576192456  1.0000
  C   C30       1.0  0.14256435760263736  0.3980142078723574  0.9463166539284487  1.0000
  C   C31       1.0  0.9222249250942625  0.5909491353260492  0.15153116136888653  1.0000
  C   C32       1.0  0.0777786022964619  0.409047718991161  0.8484707159601967  1.0000
  C   C33       1.0  0.18261231859232646  0.3370821917555347  0.40765054699318876  1.0000
  C   C34       1.0  0.8173836702121235  0.6629180674408914  0.5923502545983792  1.0000
  C   C35       1.0  0.1384370669762376  0.2094605087575374  0.36687781078391873  1.0000
  C   C36       1.0  0.8615644185475304  0.7905388992190865  0.6331233032404953  1.0000
  C   C37       1.0  0.049678666587318794  0.1344110121666091  0.2576390335957228  1.0000
  C   C38       1.0  0.9503222537422928  0.8655866933704033  0.742361406779814  1.0000
  C   C39       1.0  0.0016353486980805  0.016711147221443  0.22454168280690817  1.0000
  C   C40       1.0  0.9983623993762407  0.9832857070957672  0.775456646966191  1.0000
  C   C41       1.0  0.04318905337332516  0.9718929812190424  0.3020348437303609  1.0000
  C   C42       1.0  0.9568101395300985  0.028103873098167805  0.697963648357067  1.0000
  C   C43       1.0  0.1340666252920144  0.04502442039176199  0.41120625618111  1.0000
  C   C44       1.0  0.8659389121219762  0.9549741363650597  0.5887935588124762  1.0000
  C   C45       1.0  0.1811415098255651  0.1623139973906831  0.44329348230526466  1.0000
  C   C46       1.0  0.8188570860399976  0.8376854105859408  0.5567073070905053  1.0000
  N   N1        1.0  0.3568524997126445  0.756458611866549  0.6422868146511432  1.0000
  N   N2        1.0  0.6431481061761843  0.2435424985496866  0.35771336155848127  1.0000
  N   N3        1.0  0.3305932121783712  0.55138869486575  0.6713863977557962  1.0000
  N   N4        1.0  0.6694027766260717  0.4486115643306832  0.3286129546864274  1.0000
  N   N5        1.0  0.009638354113008092  0.1794899106259251  0.17437275941965416  1.0000
  N   N6        1.0  0.9903628488136819  0.8205086461308965  0.8256280177803176  1.0000
  N   N7        1.0  0.4433322315999888  0.7479532235700646  0.24588807519049996  1.0000
  N   N8        1.0  0.5566680916917548  0.2520470356263687  0.7541146624933857  1.0000
  O   O1        1.0  0.060695857614973585  0.6167504588503547  0.37256457189816666  1.0000
  O   O2        1.0  0.9393136998455489  0.3832515027856829  0.6274390887458381  1.0000
  O   O3        1.0  0.35362735020800773  0.5909636060627435  0.33996264591459635  1.0000
  O   O4        1.0  0.6463790668409218  0.40903324825446663  0.6600366577444275  1.0000
  O   O5        1.0  0.040670972738617216  0.3898637782347549  0.41492335072925357  1.0000
  O   O6        1.0  0.9593183889581809  0.6101339273022575  0.5850714436836739  1.0000
  O   O7        1.0  0.0908232968401279  0.2786331838113369  0.19927205535881137  1.0000
  O   O8        1.0  0.9091776234894766  0.7213645217256753  0.8007276604420425  1.0000
  O   O9        1.0  0.898093964366403  0.1165941304178304  0.08260826121409082  1.0000
  O   O10       1.0  0.10190635892534768  0.8834061287785957  0.9173908535964157  1.0000
  O   O11       1.0  0.3608172568647419  0.3872513846516981  0.4399014945251593  1.0000
  O   O12       1.0  0.6391778841484594  0.6127463208853143  0.5601004703171242  1.0000
  O   O13       1.0  0.5784896473070376  0.7338161650404302  0.20080052727323047  1.0000
  O   O14       1.0  0.4215077863265079  0.266184094156003  0.7992004366326595  1.0000
  O   O15       1.0  0.4652367979353897  0.8118219480158331  0.3429194078637749  1.0000
  O   O16       1.0  0.5347666976116442  0.18817916240040228  0.6570818175491623  1.0000
