data_image0
_chemical_formula_structural       Fe2Ag6H54C102N12O12
_chemical_formula_sum              "Fe2 Ag6 H54 C102 N12 O12"
_cell_length_a       15.200481046100622
_cell_length_b       15.200488146796333
_cell_length_c       16.791976694013616
_cell_angle_alpha    89.99997235612095
_cell_angle_beta     89.99988955513538
_cell_angle_gamma    120.00005053393522

_space_group_name_H-M_alt    "P 1"
_space_group_IT_number       1

loop_
  _space_group_symop_operation_xyz
  'x, y, z'

loop_
  _atom_site_type_symbol
  _atom_site_label
  _atom_site_symmetry_multiplicity
  _atom_site_fract_x
  _atom_site_fract_y
  _atom_site_fract_z
  _atom_site_occupancy
  Fe  Fe1       1.0  0.3333325107194368  0.6666656267325237  0.3206390027887379  1.0000
  Fe  Fe2       1.0  0.6666671691561773  0.3333342731377161  0.6793624838739446  1.0000
  Ag  Ag1       1.0  0.7524571902988341  0.5980211591881074  0.7775866417313962  1.0000
  Ag  Ag2       1.0  0.8455625192140843  0.24754509883738524  0.7775866370322999  1.0000
  Ag  Ag3       1.0  0.40198216206005827  0.15443936103557138  0.7775858538730487  1.0000
  Ag  Ag4       1.0  0.24754059045461213  0.40198063979620013  0.22241722702253944  1.0000
  Ag  Ag5       1.0  0.15443488171758438  0.7524570799715136  0.222416040676876  1.0000
  Ag  Ag6       1.0  0.5980209089622832  0.8455624106859575  0.22241444174125038  1.0000
  H   H1        1.0  0.0038327961786563955  0.5495989665802342  0.2861651140429727  1.0000
  H   H2        1.0  0.21842908905814068  0.5280262010740913  0.1071097756689809  1.0000
  H   H3        1.0  0.9234741909718879  0.43713972670759926  0.20667339591393125  1.0000
  H   H4        1.0  0.1363981321731416  0.43248009798832504  0.9829751858142045  1.0000
  H   H5        1.0  0.8415747539524147  0.34406204605172536  0.08369630427159079  1.0000
  H   H6        1.0  0.1753690703148792  0.6474510849975844  0.5221955228790023  1.0000
  H   H7        1.0  0.9360453857664905  0.6054689957397272  0.3620713722824789  1.0000
  H   H8        1.0  0.07770186788700059  0.6615850030432142  0.6369742303534379  1.0000
  H   H9        1.0  0.8394592610674181  0.6200428479549632  0.47448168571971644  1.0000
  H   H10       1.0  0.545766068871579  0.9961652419568809  0.2861651384622306  1.0000
  H   H11       1.0  0.30959866402861286  0.7815695078641982  0.10711023609906788  1.0000
  H   H12       1.0  0.5136637366675174  0.07652413176580813  0.20667323727268178  1.0000
  H   H13       1.0  0.2960830940189396  0.8635989934385437  0.9829743565105886  1.0000
  H   H14       1.0  0.5024871641751291  0.15842247129981513  0.0836954500590821  1.0000
  H   H15       1.0  0.4720815199997547  0.8246292080118638  0.522197011484586  1.0000
  H   H16       1.0  0.6694215169236982  0.06395103507628629  0.3620717236304003  1.0000
  H   H17       1.0  0.5838817320249488  0.9222984950180404  0.6369761132170239  1.0000
  H   H18       1.0  0.7805815307888577  0.16053952767347826  0.4744800510719286  1.0000
  H   H19       1.0  0.45040080570364427  0.45423475529247537  0.286165935805947  1.0000
  H   H20       1.0  0.4719719403812377  0.6904007131878062  0.10710892313606017  1.0000
  H   H21       1.0  0.5628582254301834  0.4863336125581059  0.20667191363437346  1.0000
  H   H22       1.0  0.5675208545910807  0.7039211144467716  0.9829753453367189  1.0000
  H   H23       1.0  0.6559385944152966  0.49751483814263536  0.083694646325263  1.0000
  H   H24       1.0  0.3525489886168316  0.5279181956664446  0.5221971807955084  1.0000
  H   H25       1.0  0.39452719097499767  0.3305756285710402  0.3620713099598802  1.0000
  H   H26       1.0  0.3384156060273823  0.4161170795601947  0.6369752473086121  1.0000
  H   H27       1.0  0.3799552936012417  0.2194169740637051  0.4744809837190615  1.0000
  H   H28       1.0  0.9961640486592245  0.4504011368387638  0.7138327994871145  1.0000
  H   H29       1.0  0.781564873491277  0.47196494288517965  0.8928934975681242  1.0000
  H   H30       1.0  0.07652161616225325  0.5628600986567563  0.7933280907521478  1.0000
  H   H31       1.0  0.8635929953328441  0.5675112495158957  0.017028087425323697  1.0000
  H   H32       1.0  0.1584194593785  0.6559354258642858  0.9163075644864092  1.0000
  H   H33       1.0  0.824618591550106  0.35253451792323937  0.4778023906622835  1.0000
  H   H34       1.0  0.06394366635385744  0.3945217956697746  0.6379253502114466  1.0000
  H   H35       1.0  0.9222843019534325  0.33839682891226647  0.363022492144971  1.0000
  H   H36       1.0  0.1605330059181469  0.379947360084998  0.5255162278165384  1.0000
  H   H37       1.0  0.4542376600298752  0.0038371876419703364  0.7138321795388334  1.0000
  H   H38       1.0  0.6904019245009606  0.21843737783568426  0.8928930371288003  1.0000
  H   H39       1.0  0.48633733346157015  0.9234809565918527  0.7933282493876489  1.0000
  H   H40       1.0  0.7039226830037036  0.13640928251745515  0.0170271301449318  1.0000
  H   H41       1.0  0.4975175006428358  0.8415816538649852  0.9163072276433224  1.0000
  H   H42       1.0  0.5279149922490305  0.17538043822816732  0.4778020930887123  1.0000
  H   H43       1.0  0.3305780339163816  0.9360555725784538  0.6379261898959001  1.0000
  H   H44       1.0  0.4161113618107636  0.07771456963187261  0.3630229913585197  1.0000
  H   H45       1.0  0.21941490695804314  0.8394662458293708  0.5255172669347699  1.0000
  H   H46       1.0  0.5495984198492676  0.5457616516657992  0.7138319777228688  1.0000
  H   H47       1.0  0.5280321956045454  0.30959604632276694  0.8928931590459113  1.0000
  H   H48       1.0  0.4371385721702693  0.5136573278612816  0.793326595420261  1.0000
  H   H49       1.0  0.4324886461607278  0.2960794905350356  0.0170279278847403  1.0000
  H   H50       1.0  0.3440657178491477  0.5024843765868569  0.9163068403335188  1.0000
  H   H51       1.0  0.6474659786796833  0.47208483726959827  0.4778037103306261  1.0000
  H   H52       1.0  0.6054778809443988  0.6694228265168791  0.6379254125183704  1.0000
  H   H53       1.0  0.6616035120651065  0.5838870655817562  0.36302326172364013  1.0000
  H   H54       1.0  0.6200516501673262  0.7805848721668698  0.5255163342793168  1.0000
  C   C1        1.0  0.12539237060880024  0.6158767664776619  0.3717320487483065  1.0000
  C   C2        1.0  0.08324927986961231  0.5730674384621041  0.2962942817927541  1.0000
  C   C3        1.0  0.1317272271193843  0.5430798948776359  0.23878463783271536  1.0000
  C   C4        1.0  0.07783512839673525  0.4894794787595274  0.1661887168880583  1.0000
  C   C5        1.0  0.13601111905177982  0.48650460292313374  0.1013523451875713  1.0000
  C   C6        1.0  0.9707937079750621  0.4373504615951944  0.157796440573442  1.0000
  C   C7        1.0  0.09063007772002853  0.43390993234365993  0.032404587444069884  1.0000
  C   C8        1.0  0.924106495534886  0.3841659674582588  0.08911130952408539  1.0000
  C   C9        1.0  0.9834085366551689  0.38122552962389034  0.0251199832648226  1.0000
  C   C10       1.0  0.9382048076229381  0.3297324322031375  0.9540339006950943  1.0000
  C   C11       1.0  0.06277332504821231  0.6246828118519191  0.4347890018147069  1.0000
  C   C12       1.0  0.10170723299867035  0.6417351211198509  0.5132961001895209  1.0000
  C   C13       1.0  0.9673202796919752  0.6167636796509514  0.42204581829770393  1.0000
  C   C14       1.0  0.04794613878682691  0.6498777011849698  0.5764501158304893  1.0000
  C   C15       1.0  0.9128364166315919  0.6256040304064998  0.48455011936617604  1.0000
  C   C16       1.0  0.9525867800803525  0.6422201370303783  0.5627022857109978  1.0000
  C   C17       1.0  0.8978347194297173  0.651024743078587  0.6268156888261202  1.0000
  C   C18       1.0  0.4904834619950263  0.8746057867350175  0.3717322687379365  1.0000
  C   C19       1.0  0.4898188682300104  0.9167495335195857  0.2962944469682752  1.0000
  C   C20       1.0  0.41135332156509447  0.8682718008282891  0.23878491795343137  1.0000
  C   C21       1.0  0.4116447251651393  0.9221630897183389  0.1661883306440117  1.0000
  C   C22       1.0  0.35049453460397456  0.8639869012672321  0.1013520752618362  1.0000
  C   C23       1.0  0.46655677355411024  0.029205215869680615  0.1577957792972242  1.0000
  C   C24       1.0  0.3432815519478113  0.9093672760657513  0.032403667226233786  1.0000
  C   C25       1.0  0.46005954233642404  0.07589082799952263  0.08910999577494749  1.0000
  C   C26       1.0  0.3978185820580648  0.01658968651028659  0.025118192501707895  1.0000
  C   C27       1.0  0.3915283228521886  0.06179334610701668  0.9540314592681938  1.0000
  C   C28       1.0  0.5619092022989916  0.9372257117119532  0.4347896884532929  1.0000
  C   C29       1.0  0.5400263302404796  0.8982918544005971  0.5132968522023873  1.0000
  C   C30       1.0  0.6494416997516976  0.032678345534080215  0.4220468192543193  1.0000
  C   C31       1.0  0.601929979403941  0.9520528629769203  0.5764501612968401  1.0000
  C   C32       1.0  0.7127674010037097  0.08716328993089935  0.48454981637426187  1.0000
  C   C33       1.0  0.6896319523920199  0.047413653221866685  0.5627020499839404  1.0000
  C   C34       1.0  0.7531897916205422  0.10216643978250776  0.6268165307370592  1.0000
  C   C35       1.0  0.3841223909761595  0.5095158595129591  0.3717312504496704  1.0000
  C   C36       1.0  0.4269315759549953  0.510180542004079  0.29629459081542103  1.0000
  C   C37       1.0  0.45691813483484384  0.5886446860536554  0.23878315272676784  1.0000
  C   C38       1.0  0.5105180378924102  0.5883551844143896  0.166187721738396  1.0000
  C   C39       1.0  0.5134935857680035  0.6495067336527856  0.101351979762363  1.0000
  C   C40       1.0  0.5626472211891808  0.5334432652878506  0.15779498956239016  1.0000
  C   C41       1.0  0.5660896352770451  0.656722185380325  0.0324041233439516  1.0000
  C   C42       1.0  0.6158334110597464  0.5399422647053387  0.0891103537316411  1.0000
  C   C43       1.0  0.6187753697176531  0.602185262209467  0.025119062456283796  1.0000
  C   C44       1.0  0.6702689616869575  0.6084742654810285  0.9540316917281685  1.0000
  C   C45       1.0  0.3753170900453495  0.43809062386254294  0.4347893650923353  1.0000
  C   C46       1.0  0.358264918811436  0.459972681026038  0.5132971068447104  1.0000
  C   C47       1.0  0.3832351165853111  0.3505567321856305  0.42204638678594353  1.0000
  C   C48       1.0  0.35012309933824076  0.3980691689046056  0.5764505024261266  1.0000
  C   C49       1.0  0.37439505468122997  0.28723179367871415  0.484549472714356  1.0000
  C   C50       1.0  0.3577803219513527  0.310367149766151  0.5627010913533894  1.0000
  C   C51       1.0  0.3489752742560128  0.24680983061262657  0.6268150656740659  1.0000
  C   C52       1.0  0.8746071057218002  0.3841259684348234  0.6282688423914278  1.0000
  C   C53       1.0  0.9167518920391015  0.4269362323791911  0.7037030362102712  1.0000
  C   C54       1.0  0.8682738702874532  0.4569199032264636  0.7612108936037103  1.0000
  C   C55       1.0  0.922156277164696  0.5105129064453496  0.8338115787384837  1.0000
  C   C56       1.0  0.8639817040285179  0.5134876805073675  0.8986497370052645  1.0000
  C   C57       1.0  0.029198429962612207  0.5626464542210315  0.8422056416189818  1.0000
  C   C58       1.0  0.9093625690787591  0.5660798958660183  0.967599876839472  1.0000
  C   C59       1.0  0.07588688364394593  0.6158283913653051  0.9108925592353214  1.0000
  C   C60       1.0  0.01658626004443414  0.6187687274265629  0.9748844810158701  1.0000
  C   C61       1.0  0.06178386466803686  0.6702587390258901  0.045966394934097786  1.0000
  C   C62       1.0  0.9372172190938385  0.3753117505210285  0.5652106982896115  1.0000
  C   C63       1.0  0.8982816428411198  0.3582532150694749  0.4867024088726097  1.0000
  C   C64       1.0  0.03266877242838006  0.3832271117585577  0.5779509041962213  1.0000
  C   C65       1.0  0.9520420791795485  0.3501099771308205  0.4235477977098511  1.0000
  C   C66       1.0  0.08715509070471932  0.37438693727884254  0.5154489852155777  1.0000
  C   C67       1.0  0.047402855406787105  0.3577674395123013  0.4372962233506356  1.0000
  C   C68       1.0  0.10215273888834987  0.34896369488321005  0.37318282023722554  1.0000
  C   C69       1.0  0.5095190529230749  0.12539390958963997  0.6282698134448167  1.0000
  C   C70       1.0  0.5101837484686769  0.08324874528933902  0.7037028710346644  1.0000
  C   C71       1.0  0.5886460802702799  0.13172706135144108  0.7612100179621776  1.0000
  C   C72       1.0  0.5883577352202564  0.0778471871286328  0.8338113694464581  1.0000
  C   C73       1.0  0.6495074714501711  0.136019882662076  0.898649411397308  1.0000
  C   C74       1.0  0.5334481420491526  0.9708052372543962  0.8422051118360655  1.0000
  C   C75       1.0  0.6567187585310705  0.09063857193664406  0.9675996060021106  1.0000
  C   C76       1.0  0.5399414260187283  0.9241156778783053  0.9108920864076636  1.0000
  C   C77       1.0  0.602183525768112  0.983415679897583  0.9748838896801573  1.0000
  C   C78       1.0  0.6084765927567659  0.9382171070208616  0.045965858730078  1.0000
  C   C79       1.0  0.43809439755458623  0.06278342566316306  0.5652117982039399  1.0000
  C   C80       1.0  0.459970839882672  0.10171844971360133  0.48670225237019343  1.0000
  C   C81       1.0  0.3505576475414712  0.9673310971616333  0.5779516897940482  1.0000
  C   C82       1.0  0.39806653284674093  0.04795678326438242  0.4235477522314567  1.0000
  C   C83       1.0  0.28723139018617155  0.9128440773685825  0.515449883720045  1.0000
  C   C84       1.0  0.3103624844606826  0.9525954369164823  0.4372970545912977  1.0000
  C   C85       1.0  0.2468093521238117  0.8978458379529076  0.3731837648783766  1.0000
  C   C86       1.0  0.6158763529753487  0.49048234478627273  0.6282696406916983  1.0000
  C   C87       1.0  0.5730637768573886  0.4898157904489439  0.7037027271942904  1.0000
  C   C88       1.0  0.5430792933783835  0.4113522025042189  0.7612111876685004  1.0000
  C   C89       1.0  0.4894881734932567  0.4116421312004093  0.8338119783516262  1.0000
  C   C90       1.0  0.4865111063182185  0.3504921012521225  0.8986506979411784  1.0000
  C   C91       1.0  0.4373546631247081  0.4665504829040189  0.8422059015772092  1.0000
  C   C92       1.0  0.4339215337751271  0.34328464578384665  0.9676015319646963  1.0000
  C   C93       1.0  0.3841756080925549  0.46006013761869025  0.9108947060573483  1.0000
  C   C94       1.0  0.381236837032553  0.39782184700554535  0.9748865928513978  1.0000
  C   C95       1.0  0.3297434486073172  0.39153000869111315  0.045975154624961996  1.0000
  C   C96       1.0  0.6246911967335579  0.561907247852041  0.5652121215632702  1.0000
  C   C97       1.0  0.641749010787983  0.5400300738597965  0.48670318875988977  1.0000
  C   C98       1.0  0.6167758016967608  0.6494437710293967  0.577951526731759  1.0000
  C   C99       1.0  0.6498922477857578  0.6019334842106477  0.4235480066097423  1.0000
  C   C100      1.0  0.6256151039534996  0.7127694691829589  0.5154484408038513  1.0000
  C   C101      1.0  0.6422349234006005  0.6896369208705339  0.4372968221597587  1.0000
  C   C102      1.0  0.6510374413743067  0.7531901910085071  0.3731810612746642  1.0000
  N   N1        1.0  0.8541661413240431  0.6600863354865185  0.680676566781429  1.0000
  N   N2        1.0  0.9028070074915818  0.28770517287563285  0.8939540575191173  1.0000
  N   N3        1.0  0.8059187501865493  0.14583434260664074  0.68067731690887  1.0000
  N   N4        1.0  0.38489947675454766  0.09719117394318039  0.8939527650727611  1.0000
  N   N5        1.0  0.33991266242305324  0.19407818988150183  0.6806759269092024  1.0000
  N   N6        1.0  0.7122943016223502  0.6151015352456995  0.8939535568408417  1.0000
  N   N7        1.0  0.1458235959408326  0.3398998235385236  0.3193189646679073  1.0000
  N   N8        1.0  0.09718634441615144  0.7122944762059192  0.10605159780666898  1.0000
  N   N9        1.0  0.19407464897095392  0.8541744694827643  0.31932000109981823  1.0000
  N   N10       1.0  0.6151086809812224  0.9028134055508232  0.1060499126264958  1.0000
  N   N11       1.0  0.6600983576367553  0.805920895815895  0.31931900899621  1.0000
  N   N12       1.0  0.28771388338262227  0.3848977539890513  0.10604852533704447  1.0000
  O   O1        1.0  0.21844632531134073  0.6467452494347727  0.390920291289433  1.0000
  O   O2        1.0  0.2243965938434156  0.5601544970805178  0.2462488321992566  1.0000
  O   O3        1.0  0.4282996766397177  0.7815522608226647  0.3909206739983944  1.0000
  O   O4        1.0  0.3357579630363429  0.7756026466138126  0.2462492833196492  1.0000
  O   O5        1.0  0.3532539271472147  0.5717003596388113  0.3909207854502768  1.0000
  O   O6        1.0  0.43984201552432733  0.6642386581447683  0.24624683465114566  1.0000
  O   O7        1.0  0.7815553281940311  0.35325662406238933  0.6090770267135639  1.0000
  O   O8        1.0  0.7756059955822677  0.43984907198512974  0.7537514634150709  1.0000
  O   O9        1.0  0.571702282184603  0.21844536011209215  0.6090766440052633  1.0000
  O   O10       1.0  0.664241920386189  0.22439441821546072  0.7537516078209661  1.0000
  O   O11       1.0  0.6467453729104305  0.42829992005855644  0.6090771280776366  1.0000
  O   O12       1.0  0.5601509838412825  0.3357560805090858  0.7537504833609743  1.0000
