data_image0
_chemical_formula_structural       Zn4H54C86N16Cl4
_chemical_formula_sum              "Zn4 H54 C86 N16 Cl4"
_cell_length_a       14.724140680978213
_cell_length_b       14.958284381680533
_cell_length_c       15.068033277286293
_cell_angle_alpha    114.0112617386917
_cell_angle_beta     102.95627693179159
_cell_angle_gamma    111.17150216209136

_space_group_name_H-M_alt    "P 1"
_space_group_IT_number       1

loop_
  _space_group_symop_operation_xyz
  'x, y, z'

loop_
  _atom_site_type_symbol
  _atom_site_label
  _atom_site_symmetry_multiplicity
  _atom_site_fract_x
  _atom_site_fract_y
  _atom_site_fract_z
  _atom_site_occupancy
  Zn  Zn1       1.0  0.8610792620847932  0.35374858316761504  0.003214614169628914  1.0000
  Zn  Zn2       1.0  0.13444228016413012  0.6297442728146692  0.012307698188102678  1.0000
  Zn  Zn3       1.0  0.005754417179424787  0.3570268876415951  0.8691939074053393  1.0000
  Zn  Zn4       1.0  0.9937985169881358  0.6361585516624686  0.1481310873702313  1.0000
  H   H1        1.0  0.7960488520217551  0.09570890699901469  0.9692301079432183  1.0000
  H   H2        1.0  0.5257039352577666  0.8577109055046253  0.921419483433766  1.0000
  H   H3        1.0  0.8417061415875652  0.3994146408211564  0.32406654053374956  1.0000
  H   H4        1.0  0.4014067917852132  0.671059616798111  0.7506683097387138  1.0000
  H   H5        1.0  0.9838749763688172  0.1886727293115342  0.2887156620064104  1.0000
  H   H6        1.0  0.1746551184585387  0.780803500251672  0.6879267319910766  1.0000
  H   H7        1.0  0.8102905062891353  0.0209526648221399  0.13808868074463732  1.0000
  H   H8        1.0  0.2974614021617797  0.9675757773645374  0.8604196606836891  1.0000
  H   H9        1.0  0.9891269184786751  0.34128833856909313  0.5102293114543031  1.0000
  H   H10       1.0  0.23901783049725384  0.6641455556370204  0.5076272782028964  1.0000
  H   H11       1.0  0.962810802417664  0.8733606430418064  0.650629749991964  1.0000
  H   H12       1.0  0.0028681926877781837  0.649447919444569  0.8282630568100372  1.0000
  H   H13       1.0  0.7260102027480997  0.8473056089752902  0.02886546423030012  1.0000
  H   H14       1.0  0.4317492033553094  0.432584146697458  0.2650520507622573  1.0000
  H   H15       1.0  0.5708319364131498  0.5544453597254916  0.04316904916995416  1.0000
  H   H16       1.0  0.34979122182340217  0.8847636873758447  0.17607181227457153  1.0000
  H   H17       1.0  0.639863012438994  0.2942930509374833  0.8216102800536618  1.0000
  H   H18       1.0  0.03010784772805412  0.12031401272676591  0.41821182946961233  1.0000
  H   H19       1.0  0.9091586475772077  0.012210230659384499  0.47347486881174217  1.0000
  H   H20       1.0  0.2687100957045701  0.09093680202055761  0.3076721349794909  1.0000
  H   H21       1.0  0.6435987829851089  0.9838269142102762  0.5581867822680593  1.0000
  H   H22       1.0  0.33131927559435326  0.19540389752706488  0.6377245439299698  1.0000
  H   H23       1.0  0.11806272748980019  0.978046737886899  0.623478272974978  1.0000
  H   H24       1.0  0.757305524527574  0.20397991165263823  0.4432729323182016  1.0000
  H   H25       1.0  0.1542073099538115  0.1869363121267043  0.6032547599382169  1.0000
  H   H26       1.0  0.8961454986705277  0.1508160228811448  0.4260141000418329  1.0000
  H   H27       1.0  0.5159498042017532  0.290009487029117  0.6448024955472815  1.0000
  H   H28       1.0  0.497590952300854  0.9634016983366892  0.35199788938538745  1.0000
  H   H29       1.0  0.016113103600353985  0.8115198189606686  0.8460398858949175  1.0000
  H   H30       1.0  0.7206483700538445  0.8880997655550048  0.8638466416045745  1.0000
  H   H31       1.0  0.36558822731080926  0.3636533045368824  0.9644435798920554  1.0000
  H   H32       1.0  0.634442116981667  0.6252736881686545  0.343256831521117  1.0000
  H   H33       1.0  0.4694478663374469  0.301883578346498  0.09576144166958038  1.0000
  H   H34       1.0  0.5572078457913678  0.7416945275970122  0.03815282906882805  1.0000
  H   H35       1.0  0.5330934240686604  0.6865360639507045  0.2143597023945033  1.0000
  H   H36       1.0  0.17123324493577746  0.30902546144282883  0.9948578467112765  1.0000
  H   H37       1.0  0.822114011459192  0.6768078829443523  0.24689819282065883  1.0000
  H   H38       1.0  0.14929495739581722  0.6795372213332344  0.36194251228910446  1.0000
  H   H39       1.0  0.04456528677783217  0.32145918153180025  0.6481855308486144  1.0000
  H   H40       1.0  0.3487304547517739  0.6772898899721298  0.1893708622966983  1.0000
  H   H41       1.0  0.6411333883714364  0.30943808627979763  0.04920281626146313  1.0000
  H   H42       1.0  0.9817722380023355  0.3116403100075402  0.16848887429807755  1.0000
  H   H43       1.0  0.2168762682208014  0.6890685549292999  0.8467779088493401  1.0000
  H   H44       1.0  0.17806707518551698  0.8981923863037338  0.37525400383391627  1.0000
  H   H45       1.0  0.3029351485642522  0.20531838840714303  0.9688273804708558  1.0000
  H   H46       1.0  0.8490667201053982  0.3242495721798662  0.6609417756411133  1.0000
  H   H47       1.0  0.9704440850028746  0.09867446189145569  0.7731801163565493  1.0000
  H   H48       1.0  0.8217325190318832  0.6823736260841001  0.018621135188276093  1.0000
  H   H49       1.0  0.28941470093746346  0.145411756491221  0.7838981211188312  1.0000
  H   H50       1.0  0.41973126186848486  0.5422896038826579  0.885735736972812  1.0000
  H   H51       1.0  0.45539591430635085  0.450219093099534  0.7284249693356131  1.0000
  H   H52       1.0  0.6493448882661498  0.040812923831637704  0.08011037520372355  1.0000
  H   H53       1.0  0.47359202050284926  0.006558656342150501  0.979214653707423  1.0000
  H   H54       1.0  0.6663498471947733  0.2315022862693823  0.17451455462582996  1.0000
  C   C1        1.0  0.8388161082325781  0.11243015627078988  0.9225622225854478  1.0000
  C   C2        1.0  0.7873005843817397  0.8725510350304618  0.8617278511975357  1.0000
  C   C3        1.0  0.12478719889961809  0.005400776080343  0.7048671263058424  1.0000
  C   C4        1.0  0.5714527681809404  0.7006751285788867  0.9685307505230012  1.0000
  C   C5        1.0  0.037769253861739724  0.9465781213180762  0.7200574920124934  1.0000
  C   C6        1.0  0.6660422097464009  0.7598516700487109  0.9634329782554115  1.0000
  C   C7        1.0  0.7357718385283933  0.22143206230103374  0.19897865966350992  1.0000
  C   C8        1.0  0.4487657113138044  0.8416967290974285  0.8708151462066595  1.0000
  C   C9        1.0  0.8340841231374014  0.3159654428853926  0.2837280511588817  1.0000
  C   C10       1.0  0.3791239771993419  0.7364001825804962  0.7740610543969736  1.0000
  C   C11       1.0  0.9241307124327208  0.3047180349102234  0.3174724499423007  1.0000
  C   C12       1.0  0.9665469060311623  0.6514417383827151  0.8838282810593298  1.0000
  C   C13       1.0  0.27970010686269126  0.7135296023329332  0.707588726577775  1.0000
  C   C14       1.0  0.9137278269347037  0.197517959809673  0.26433987448456975  1.0000
  C   C15       1.0  0.25222376452835976  0.7986119842671827  0.739409153825477  1.0000
  C   C16       1.0  0.29288424739480956  0.870296533446151  0.21079237837275847  1.0000
  C   C17       1.0  0.705921883355629  0.3103429565837957  0.7982944928184991  1.0000
  C   C18       1.0  0.8157507848893318  0.10319016916684384  0.17886749235539412  1.0000
  C   C19       1.0  0.3211635314622258  0.9033770039311975  0.8366948495952682  1.0000
  C   C20       1.0  0.7262472409019624  0.11465219592352582  0.14614006475484592  1.0000
  C   C21       1.0  0.41969493990178836  0.9249428219779504  0.9028606480332468  1.0000
  C   C22       1.0  0.04726814236111923  0.4109554514355409  0.5095026994955916  1.0000
  C   C23       1.0  0.30568504219142084  0.9375870468555761  0.31519068304123005  1.0000
  C   C24       1.0  0.1837395111362313  0.5917636952649588  0.5072674615779958  1.0000
  C   C25       1.0  0.1314306394719155  0.5076204121554326  0.6084487197772646  1.0000
  C   C26       1.0  0.09882050308981158  0.49519391422840203  0.4084498615521354  1.0000
  C   C27       1.0  0.19932476094653856  0.6012914365494382  0.6064207671350059  1.0000
  C   C28       1.0  0.02730524427194337  0.4041595232260633  0.41159703332048275  1.0000
  C   C29       1.0  0.043109914239174575  0.9805693377042531  0.8235833271564275  1.0000
  C   C30       1.0  0.6879286198441436  0.7103580103167461  0.8754324893952373  1.0000
  C   C31       1.0  0.22861043180074603  0.1334642930232519  0.8982570025446035  1.0000
  C   C32       1.0  0.5148319988088517  0.5368486484410653  0.7958514269920655  1.0000
  C   C33       1.0  0.14380117653239924  0.10243782799624063  0.35353637545661337  1.0000
  C   C34       1.0  0.7028697778832936  0.2843342565358284  0.696260406419803  1.0000
  C   C35       1.0  0.7769315919080385  0.9908246704822687  0.5184188763767706  1.0000
  C   C36       1.0  0.24500177258086353  0.1125875155119118  0.373404798320628  1.0000
  C   C37       1.0  0.6994676644401566  0.0215384351859669  0.5301812226085687  1.0000
  C   C38       1.0  0.313030301502465  0.1433147715589342  0.47539620741844146  1.0000
  C   C39       1.0  0.6922587327857599  0.09923170391821402  0.5037650483178879  1.0000
  C   C40       1.0  0.19960084802247743  0.39934922444738413  0.03489636023934384  1.0000
  C   C41       1.0  0.7926543675872325  0.5867440805260813  0.1954873521012815  1.0000
  C   C42       1.0  0.2798063561257678  0.17197985395258536  0.5582927492785927  1.0000
  C   C43       1.0  0.7638833104285253  0.14543654035518475  0.4663050711858786  1.0000
  C   C44       1.0  0.17956094121371538  0.16569534198100647  0.5384216975847591  1.0000
  C   C45       1.0  0.3028391525406775  0.49327809168894293  0.11332232581136738  1.0000
  C   C46       1.0  0.8421539475019488  0.1152858924816726  0.45676013750166083  1.0000
  C   C47       1.0  0.10970255983911413  0.1289986909517751  0.4353916568536674  1.0000
  C   C48       1.0  0.8496531013196176  0.037816383643829  0.4827457001500619  1.0000
  C   C49       1.0  0.5110188827251179  0.21693670605898063  0.5802896547172479  1.0000
  C   C50       1.0  0.5017920981336063  0.037112525983886306  0.41486986138010445  1.0000
  C   C51       1.0  0.6057989926598281  0.21046907154788394  0.5925310671545744  1.0000
  C   C52       1.0  0.4060695820730801  0.0392138079078137  0.4059200381300627  1.0000
  C   C53       1.0  0.6008016640104116  0.12035462048008579  0.5046322513151011  1.0000
  C   C54       1.0  0.41194356282596106  0.134724430035341  0.4884268209174323  1.0000
  C   C55       1.0  0.2203822142261842  0.09912336565869849  0.7943587722311134  1.0000
  C   C56       1.0  0.6925018965746972  0.49269224148466867  0.15934280730745345  1.0000
  C   C57       1.0  0.49498299582663213  0.58894761818123  0.8837563220195293  1.0000
  C   C58       1.0  0.7839117953617958  0.7806746089289904  0.8681409864542217  1.0000
  C   C59       1.0  0.9504959693983824  0.9150832242625387  0.83824976276032  1.0000
  C   C60       1.0  0.1404197737116988  0.0748554383301538  0.9122361057050838  1.0000
  C   C61       1.0  0.6106671106530115  0.5967780933973188  0.7922851311236839  1.0000
  C   C62       1.0  0.8701361815144182  0.7597163067446787  0.8674248812409501  1.0000
  C   C63       1.0  0.8713637871609665  0.9447651063479228  0.8514967793461138  1.0000
  C   C64       1.0  0.10303848071191618  0.5896175618580132  0.29932304301128443  1.0000
  C   C65       1.0  0.08509353188699728  0.41077259189822274  0.7111341426756467  1.0000
  C   C66       1.0  0.4825503730798389  0.38711240669187674  0.1206869476628398  1.0000
  C   C67       1.0  0.07841329792587007  0.49474791309442884  0.30874415268524297  1.0000
  C   C68       1.0  0.5184831392583646  0.6005160629832815  0.18688634202017346  1.0000
  C   C69       1.0  0.4270828525439968  0.42094556374455294  0.04844417215831952  1.0000
  C   C70       1.0  0.574434081094232  0.5666441216293593  0.2587009866428788  1.0000
  C   C71       1.0  0.4053351847742022  0.49381095469689745  0.14205336939496507  1.0000
  C   C72       1.0  0.5944802318723534  0.4934228707020409  0.16339620343832448  1.0000
  C   C73       1.0  0.4623655673162689  0.45976933942626635  0.2152941159070636  1.0000
  C   C74       1.0  0.5375611999598819  0.527941766427766  0.09194530677260103  1.0000
  C   C75       1.0  0.28982096328036994  0.5872287549037765  0.1340499898010066  1.0000
  C   C76       1.0  0.7004715500403763  0.3996280694661749  0.09463845597272773  1.0000
  C   C77       1.0  0.016379245365840206  0.4018776764569906  0.20094328959891064  1.0000
  C   C78       1.0  0.13489937026239576  0.5077021412073748  0.7062763698281955  1.0000
  C   C79       1.0  0.17359918138804176  0.5981274977766516  0.8121788397014738  1.0000
  C   C80       1.0  0.2050072310998346  0.8774322745552467  0.31203225585512223  1.0000
  C   C81       1.0  0.812021946727562  0.3238165754969772  0.7154761655654908  1.0000
  C   C82       1.0  0.9295747882090809  0.11460643803765437  0.824330053449195  1.0000
  C   C83       1.0  0.8731836407956522  0.6670150541185152  0.9800830539166653  1.0000
  C   C84       1.0  0.8780882104915051  0.04899937368357849  0.8623397878164025  1.0000
  C   C85       1.0  0.8927155227009251  0.6878902543901759  0.9010944643699758  1.0000
  C   C86       1.0  0.9484939914522031  0.8253737359469328  0.8471636357502489  1.0000
  N   N1        1.0  0.8651130862159279  0.20742277594436595  0.9205709998184801  1.0000
  N   N2        1.0  0.7976977281543329  0.4355468228947074  0.09225319928402342  1.0000
  N   N3        1.0  0.002745938751637404  0.43945605746838373  0.13429674728597255  1.0000
  N   N4        1.0  0.14746628447849028  0.5576582944593298  0.8733729553689713  1.0000
  N   N5        1.0  0.13822978064548158  0.7822656114815558  0.21350400781467727  1.0000
  N   N6        1.0  0.8733712178850085  0.36676148756738763  0.8194582553890725  1.0000
  N   N7        1.0  0.9213506036293639  0.20829115753196703  0.8590049748974022  1.0000
  N   N8        1.0  0.9335520235587681  0.625049024918944  0.008736573515577085  1.0000
  N   N9        1.0  0.9907328029911326  0.6154548493235267  0.9494130467858425  1.0000
  N   N10       1.0  0.1929041799643161  0.778207475185724  0.15055658325420038  1.0000
  N   N11       1.0  0.8082799081189407  0.3581919288500401  0.8705615135428103  1.0000
  N   N12       1.0  0.13225357301498522  0.43599611268267313  0.010242595867367761  1.0000
  N   N13       1.0  0.8547244952584734  0.5520281316910386  0.15504987231619077  1.0000
  N   N14       1.0  0.05609638639118945  0.5549833385390599  0.19485495659694857  1.0000
  N   N15       1.0  0.09255559506436137  0.44100383081256217  0.8107616628296836  1.0000
  N   N16       1.0  0.18736711383501614  0.5512611503273774  0.07103977284150181  1.0000
  Cl  Cl1       1.0  0.15275206901595342  0.1206157860470114  0.0423568067733129  1.0000
  Cl  Cl2       1.0  0.6300718483745911  0.5293670965891479  0.6798900505844896  1.0000
  Cl  Cl3       1.0  0.057391442192511  0.0491042770166175  0.22234801706590446  1.0000
  Cl  Cl4       1.0  0.779659224682682  0.8889558189988094  0.5448510656602962  1.0000
