data_image0
_chemical_formula_structural       Cu3H18C30N12O12
_chemical_formula_sum              "Cu3 H18 C30 N12 O12"
_cell_length_a       7.914839669551952
_cell_length_b       12.592654544228697
_cell_length_c       12.590946071469936
_cell_angle_alpha    115.72179539886812
_cell_angle_beta     102.12324113426935
_cell_angle_gamma    102.07654488211898

_space_group_name_H-M_alt    "P 1"
_space_group_IT_number       1

loop_
  _space_group_symop_operation_xyz
  'x, y, z'

loop_
  _atom_site_type_symbol
  _atom_site_label
  _atom_site_symmetry_multiplicity
  _atom_site_fract_x
  _atom_site_fract_y
  _atom_site_fract_z
  _atom_site_occupancy
  Cu  Cu1       1.0  0.4999991217649368  0.49999771732771603  1.0412619388682908e-06  1.0000
  Cu  Cu2       1.0  2.059924618340929e-06  0.5000038864029364  0.5000029296712114  1.0000
  Cu  Cu3       1.0  0.5000006597911054  4.233168894500004e-06  0.49999991007845074  1.0000
  H   H1        1.0  0.07686057216958629  0.6213043912434983  0.011987053975893577  1.0000
  H   H2        1.0  0.3162645077304376  0.5870207135980081  0.7403212853568208  1.0000
  H   H3        1.0  0.7458924167475018  0.47787392895570246  0.6285280505964934  1.0000
  H   H4        1.0  0.45580540853307383  0.3905024853957144  0.37848381038573115  1.0000
  H   H5        1.0  0.7297574419690207  0.15331437981150486  0.4130456589053751  1.0000
  H   H6        1.0  0.26839048619885375  0.15058939901162202  0.5219174621466252  1.0000
  H   H7        1.0  0.0653829334659548  0.9880898827542596  0.6094672794849674  1.0000
  H   H8        1.0  0.576538448913972  0.2599256545894235  0.8465546739999682  1.0000
  H   H9        1.0  0.11776876392371353  0.37152620899118466  0.8488789252850993  1.0000
  H   H10       1.0  0.9231363803606386  0.3786864432441703  0.9880128386299704  1.0000
  H   H11       1.0  0.6837355985483029  0.4129738714182737  0.259679058807059  1.0000
  H   H12       1.0  0.25411048179431367  0.5221262818884257  0.37147272131615255  1.0000
  H   H13       1.0  0.5441915912297902  0.6095014761006894  0.6215154532080122  1.0000
  H   H14       1.0  0.2702360288622714  0.8466877063767058  0.586951539057722  1.0000
  H   H15       1.0  0.7316078126526266  0.8494145625008971  0.47808276297097063  1.0000
  H   H16       1.0  0.9346146751028854  0.011907515147292703  0.3905307915475618  1.0000
  H   H17       1.0  0.42346249450061185  0.740067992824706  0.15344695796215305  1.0000
  H   H18       1.0  0.882238025035136  0.6284740018618822  0.15112393606744243  1.0000
  C   C1        1.0  0.7043145679859962  0.5221802563037344  0.8479511702935056  1.0000
  C   C2        1.0  0.8833912977594737  0.5428000603557663  0.8235637339447452  1.0000
  C   C3        1.0  0.05830793282031269  0.5929409503131354  0.913856610926601  1.0000
  C   C4        1.0  0.19297942400871915  0.5773166096207947  0.7657841429620975  1.0000
  C   C5        1.0  0.876711738125856  0.5139831659302914  0.7027367476786069  1.0000
  C   C6        1.0  0.18252037517683564  0.32578561027730774  0.47788405166815556  1.0000
  C   C7        1.0  0.3410713297131097  0.2808496601382871  0.4572714208147701  1.0000
  C   C8        1.0  0.46566878655133354  0.3208525212515526  0.40700477062304696  1.0000
  C   C9        1.0  0.6161077510555657  0.18843247305377292  0.4226976279980478  1.0000
  C   C10       1.0  0.36322128768919276  0.18876529153764213  0.4859777780744921  1.0000
  C   C11       1.0  0.8567188388080069  0.1521193972983639  0.6740805477821327  1.0000
  C   C12       1.0  0.06024773021096052  0.17652551532873426  0.7189973605728781  1.0000
  C   C13       1.0  0.14489488189621366  0.08624679566335663  0.6790520145267607  1.0000
  C   C14       1.0  0.4277567279807002  0.23444420005332495  0.8113397981285219  1.0000
  C   C15       1.0  0.17445089381363493  0.2973767144614001  0.8108676199854089  1.0000
  C   C16       1.0  0.29568070342375563  0.4778124533488184  0.15204535158419943  1.0000
  C   C17       1.0  0.11660009693085277  0.4571926493666824  0.1764322887564306  1.0000
  C   C18       1.0  0.9416898226017312  0.4070489463753051  0.08614059381909571  1.0000
  C   C19       1.0  0.807022102372372  0.4226807884473658  0.23421919803704583  1.0000
  C   C20       1.0  0.12329327609399598  0.48601610720955796  0.29726388816109767  1.0000
  C   C21       1.0  0.8174850751563129  0.6742249147296989  0.5221191594954038  1.0000
  C   C22       1.0  0.6589304843723341  0.7191561766035904  0.5427292796701055  1.0000
  C   C23       1.0  0.5343320967797569  0.6791514402143691  0.5929957872789019  1.0000
  C   C24       1.0  0.383893118577916  0.8115714883333212  0.5773013396405418  1.0000
  C   C25       1.0  0.6367757052248707  0.8112386699193408  0.5140206903875609  1.0000
  C   C26       1.0  0.1432854524409351  0.8478836264399876  0.32592004043905126  1.0000
  C   C27       1.0  0.939753025257595  0.8234756330620103  0.2810003668859907  1.0000
  C   C28       1.0  0.8551031886254066  0.9137515398564632  0.32094573023138656  1.0000
  C   C29       1.0  0.5722416378030674  0.7655494474468156  0.18866229618092245  1.0000
  C   C30       1.0  0.8255528350152092  0.7026225587411687  0.18913364459379522  1.0000
  N   N1        1.0  0.02993112224901748  0.5317126699103838  0.6737176516191071  1.0000
  N   N2        1.0  0.21219174842348565  0.6093923552897496  0.884617201807771  1.0000
  N   N3        1.0  0.4985996928179547  0.14192193820143473  0.46817097193945767  1.0000
  N   N4        1.0  0.6031387780590051  0.2751446755686119  0.39059816196468944  1.0000
  N   N5        1.0  0.3567015541096269  0.32643598729293904  0.8577306098962226  1.0000
  N   N6        1.0  0.32810831610491686  0.1156079067202143  0.7247059118790561  1.0000
  N   N7        1.0  0.970070035797818  0.4682866034176101  0.32628487043909626  1.0000
  N   N8        1.0  0.7878074271009085  0.3906003544505765  0.11538299977318903  1.0000
  N   N9        1.0  0.5014003465284986  0.8580829608272182  0.5318275030325738  1.0000
  N   N10       1.0  0.39686114027371394  0.7248574104242778  0.609398277695938  1.0000
  N   N11       1.0  0.6433020879495006  0.6735604730709428  0.14227259502997935  1.0000
  N   N12       1.0  0.6718866075169885  0.8843866783104203  0.2752921764527514  1.0000
  O   O1        1.0  0.7135194323384724  0.50697245292762  0.9441086608344734  1.0000
  O   O2        1.0  0.5667216548409258  0.5209930477995145  0.7774134617319108  1.0000
  O   O3        1.0  0.20686773205937933  0.43726250049530807  0.49347347370419226  1.0000
  O   O4        1.0  0.04603927221898373  0.2561997255732679  0.47864978691313825  1.0000
  O   O5        1.0  0.7695441384518347  0.05600916538664082  0.5627341014100651  1.0000
  O   O6        1.0  0.7898069833094682  0.22263826718024404  0.7435315348276106  1.0000
  O   O7        1.0  0.2864764151889858  0.4930240073395496  0.05588877494857064  1.0000
  O   O8        1.0  0.4332674163879132  0.478994973752762  0.22258260207780006  1.0000
  O   O9        1.0  0.7931443073353537  0.5627508374703895  0.5065333998633434  1.0000
  O   O10       1.0  0.9539609543645043  0.7438107992115874  0.5213463976282641  1.0000
  O   O11       1.0  0.23045499753548168  0.943993858523733  0.43726741150577214  1.0000
  O   O12       1.0  0.21020093733837092  0.7773694447838154  0.2564707689405736  1.0000
