data_image0
_chemical_formula_structural       Zn4P4H20C24N4O12
_chemical_formula_sum              "Zn4 P4 H20 C24 N4 O12"
_cell_length_a       7.974491549154301
_cell_length_b       8.493003363812637
_cell_length_c       12.291959833445604
_cell_angle_alpha    75.19017768132947
_cell_angle_beta     78.74672542154869
_cell_angle_gamma    67.99131154639083

_space_group_name_H-M_alt    "P 1"
_space_group_IT_number       1

loop_
  _space_group_symop_operation_xyz
  'x, y, z'

loop_
  _atom_site_type_symbol
  _atom_site_label
  _atom_site_symmetry_multiplicity
  _atom_site_fract_x
  _atom_site_fract_y
  _atom_site_fract_z
  _atom_site_occupancy
  Zn  Zn1       1.0  0.3726002525353779  0.7698286534801325  0.28887706708231065  1.0000
  Zn  Zn2       1.0  0.6273960593576291  0.23017070633574113  0.7111232375498632  1.0000
  Zn  Zn3       1.0  0.5382646816928301  0.2295019409465127  0.036702890698201374  1.0000
  Zn  Zn4       1.0  0.4617359315089261  0.7704961436073885  0.9632970949319742  1.0000
  P   P1        1.0  0.7159792708670167  0.8113258780650056  0.11935629449659763  1.0000
  P   P2        1.0  0.28402039592170775  0.18867479916222862  0.8806433573431036  1.0000
  P   P3        1.0  0.31101853953377673  0.5312096575612484  0.1777151426788137  1.0000
  P   P4        1.0  0.6889828764503179  0.46878972693006915  0.822285328237527  1.0000
  H   H1        1.0  0.9040528948546367  0.7233386045598422  0.12578026971595344  1.0000
  H   H2        1.0  0.09594469298200177  0.2766607554326299  0.8742215012447616  1.0000
  H   H3        1.0  0.15081531484474192  0.4930939846930471  0.1859292060539133  1.0000
  H   H4        1.0  0.8491813266240911  0.5069079713969061  0.8140714169691846  1.0000
  H   H5        1.0  0.5344451016514853  0.6580910722962442  0.5302784169051834  1.0000
  H   H6        1.0  0.4655491313346685  0.34190697370901546  0.46972319270086876  1.0000
  H   H7        1.0  0.470626865214861  0.8059012594611444  0.6920409250910637  1.0000
  H   H8        1.0  0.5293732747803758  0.19409812142942684  0.307958893643871  1.0000
  H   H9        1.0  0.2388911266695574  0.10161723871285486  0.6826043369923694  1.0000
  H   H10       1.0  0.7611139739217379  0.8983860697363396  0.3173933570809737  1.0000
  H   H11       1.0  0.7767121373979222  0.4471678245237739  0.21613219935014175  1.0000
  H   H12       1.0  0.22328847580383382  0.5528302600301273  0.7838677862800266  1.0000
  H   H13       1.0  0.8668488415353791  0.27013419728566374  0.06524292007576094  1.0000
  H   H14       1.0  0.1331512984598574  0.7298651836049006  0.9347568986591739  1.0000
  H   H15       1.0  0.11477712208690602  0.9794290442545303  0.09456676570498963  1.0000
  H   H16       1.0  0.8852222150807734  0.020569033274469503  0.9054333818909299  1.0000
  H   H17       1.0  0.9905279479792811  0.34847521085291083  0.5763297660075819  1.0000
  H   H18       1.0  0.009475073750380066  0.6515267872098249  0.42366841889248963  1.0000
  H   H19       1.0  0.8289189063642013  0.4753128571640345  0.40420440100109534  1.0000
  H   H20       1.0  0.1710815632068688  0.524689120000609  0.5957957361247637  1.0000
  C   C1        1.0  0.43248742147098795  0.7874959588743663  0.5271661180740708  1.0000
  C   C2        1.0  0.5675096932948093  0.21250470772721994  0.47283304354996863  1.0000
  C   C3        1.0  0.3981996464339161  0.8720229028327537  0.6176354124839065  1.0000
  C   C4        1.0  0.6018012963888849  0.127977781419375  0.3823640773900435  1.0000
  C   C5        1.0  0.2669899209282748  0.034985018962324  0.6127453518567947  1.0000
  C   C6        1.0  0.7330126275496552  0.9650182720129338  0.38725348029518614  1.0000
  C   C7        1.0  0.16943832580540166  0.1137488103682571  0.517340683122704  1.0000
  C   C8        1.0  0.8305626170626255  0.8862518773080196  0.4826579926041035  1.0000
  C   C9        1.0  0.21411902967776086  0.019603458652703395  0.4293572059702626  1.0000
  C   C10       1.0  0.7858803073542547  0.980394608603845  0.5706453840670987  1.0000
  C   C11       1.0  0.11957757488382008  0.09376877308037018  0.33003413857147024  1.0000
  C   C12       1.0  0.8804263932136461  0.9062306288848915  0.6699651942662258  1.0000
  C   C13       1.0  0.9804663000770046  0.2582969210268757  0.3216855973123742  1.0000
  C   C14       1.0  0.01953449934122624  0.7417076729567499  0.6783099733215323  1.0000
  C   C15       1.0  0.8873614530922039  0.3225020376669433  0.22392837823480255  1.0000
  C   C16       1.0  0.11263901647886602  0.6774999394976999  0.7760717588910565  1.0000
  C   C17       1.0  0.9356522663314378  0.22480786197503727  0.1414771620487372  1.0000
  C   C18       1.0  0.06435042568672597  0.7751915295411748  0.8585231469018523  1.0000
  C   C19       1.0  0.07514351275519  0.062385428172987596  0.15635757502550254  1.0000
  C   C20       1.0  0.924855680872248  0.9376165488150645  0.8436410957718081  1.0000
  C   C21       1.0  0.02820823728519877  0.2799561626575837  0.5065418023198447  1.0000
  C   C22       1.0  0.9717936518601888  0.7200419220729158  0.49345964963887223  1.0000
  C   C23       1.0  0.9375643833635365  0.3493104148485884  0.41234498955974885  1.0000
  C   C24       1.0  0.06243736233204794  0.6506915761892529  0.587653357306074  1.0000
  N   N1        1.0  0.3427427921311051  0.8586921218384872  0.43582957162304575  1.0000
  N   N2        1.0  0.6572560718300622  0.1413072520271825  0.564170409077633  1.0000
  N   N3        1.0  0.16484053298615473  0.999150030191458  0.24772423196146326  1.0000
  N   N4        1.0  0.8351604097462015  0.0008506472123742011  0.7522768862067791  1.0000
  O   O1        1.0  0.6864279933797446  0.0019879954601406988  0.11373507990941796  1.0000
  O   O2        1.0  0.31357294935261854  0.9980126819436849  0.8862660382588246  1.0000
  O   O3        1.0  0.6259259307524091  0.729110710578716  0.2312641439901384  1.0000
  O   O4        1.0  0.37407071085209503  0.27089125578368106  0.7687340365915176  1.0000
  O   O5        1.0  0.6757745307096741  0.7738985064898358  0.013474908058711385  1.0000
  O   O6        1.0  0.3242232433434395  0.22610736293235328  0.9865224479057347  1.0000
  O   O7        1.0  0.2894289187889286  0.6976907987463221  0.08614716835415952  1.0000
  O   O8        1.0  0.7105734435177453  0.3023059862233595  0.9138552646469478  1.0000
  O   O9        1.0  0.47240316793346443  0.3730437165079507  0.15021261625170013  1.0000
  O   O10       1.0  0.5275945634886413  0.626951747449631  0.8497898173604811  1.0000
  O   O11       1.0  0.3150618175989308  0.5635964417817121  0.2955976985527897  1.0000
  O   O12       1.0  0.6849392686736663  0.43640033616307505  0.7044048964140616  1.0000
