data_image0
_chemical_formula_structural       Hg4H48C60Br8N16
_chemical_formula_sum              "Hg4 H48 C60 Br8 N16"
_cell_length_a       9.518931403309576
_cell_length_b       12.961633068951219
_cell_length_c       13.385231839008743
_cell_angle_alpha    89.99990144985412
_cell_angle_beta     90.00010172909275
_cell_angle_gamma    99.81425251251622

_space_group_name_H-M_alt    "P 1"
_space_group_IT_number       1

loop_
  _space_group_symop_operation_xyz
  'x, y, z'

loop_
  _atom_site_type_symbol
  _atom_site_label
  _atom_site_symmetry_multiplicity
  _atom_site_fract_x
  _atom_site_fract_y
  _atom_site_fract_z
  _atom_site_occupancy
  Hg  Hg1       1.0  0.6587026298322625  0.4586661770617084  0.8111776183742666  1.0000
  Hg  Hg2       1.0  0.8412919319502093  0.041329170838935204  0.3111755341676173  1.0000
  Hg  Hg3       1.0  0.3412918251650082  0.5413294003001566  0.18882428842887589  1.0000
  Hg  Hg4       1.0  0.15870660185179722  0.958670312052227  0.6888256255428404  1.0000
  H   H1        1.0  0.5145861189917937  0.870081772799466  0.30129061205875035  1.0000
  H   H2        1.0  0.9854140670632746  0.6299185277264739  0.8012921612928071  1.0000
  H   H3        1.0  0.48541470030502154  0.1299184868738621  0.698706812192363  1.0000
  H   H4        1.0  0.014585516550575123  0.3700809520749644  0.19870825132628775  1.0000
  H   H5        1.0  0.2655533964392803  0.7876494475975945  0.3471051943955105  1.0000
  H   H6        1.0  0.2344466048378209  0.7123508049000405  0.847107036237873  1.0000
  H   H7        1.0  0.7344472369848133  0.21235002911524964  0.6528929769481666  1.0000
  H   H8        1.0  0.7655533505238664  0.28765024082066754  0.15289412347218706  1.0000
  H   H9        1.0  0.1009547080844514  0.8914557704550178  0.42584775673418584  1.0000
  H   H10       1.0  0.39904441181370487  0.608544365874941  0.9258477379433789  1.0000
  H   H11       1.0  0.8990436398432351  0.10854292947679059  0.574152655884774  1.0000
  H   H12       1.0  0.6009555435471866  0.39145667984632837  0.07415267467465013  1.0000
  H   H13       1.0  0.17442560114279362  0.08216657152519251  0.4588049455279094  1.0000
  H   H14       1.0  0.3255741222655145  0.4178324765844294  0.9588043203588018  1.0000
  H   H15       1.0  0.825571696972254  0.917832131496901  0.5411954670903827  1.0000
  H   H16       1.0  0.6744277468455451  0.5821677799974766  0.04119459807704121  1.0000
  H   H17       1.0  0.6828012056919518  0.24929732666080884  0.37368445124658234  1.0000
  H   H18       1.0  0.8171988042904202  0.2507026119672986  0.8736840928942375  1.0000
  H   H19       1.0  0.3171964641709337  0.7507029422805547  0.6263167084626746  1.0000
  H   H20       1.0  0.18280201500959245  0.7492976477037703  0.12631631972499244  1.0000
  H   H21       1.0  0.3739492038717103  0.3157343056515955  0.38050888632287194  1.0000
  H   H22       1.0  0.12605177361663783  0.18426642387002806  0.8805091434000407  1.0000
  H   H23       1.0  0.6260497016757398  0.6842667431605276  0.6194907792024654  1.0000
  H   H24       1.0  0.8739500954960133  0.8157338327107481  0.11949126921985713  1.0000
  H   H25       1.0  0.3133735885668755  0.24560217866939377  0.49156563034059547  1.0000
  H   H26       1.0  0.18662534098133673  0.2543976058716098  0.9915665947697082  1.0000
  H   H27       1.0  0.6866240812944112  0.7543980902730993  0.5084340351846068  1.0000
  H   H28       1.0  0.8133744285068333  0.7456026568891828  0.008434564940884603  1.0000
  H   H29       1.0  0.5959977502699944  0.42525435736604317  0.3051079259342446  1.0000
  H   H30       1.0  0.9040035345794591  0.0747472479559974  0.8051049811515161  1.0000
  H   H31       1.0  0.40400096940553715  0.5747459084850348  0.6948932337756804  1.0000
  H   H32       1.0  0.09599697840040022  0.9252561466461627  0.19489393728085969  1.0000
  H   H33       1.0  0.8030598490682975  0.5695725014380741  0.29004133227094553  1.0000
  H   H34       1.0  0.6969406846651223  0.9304293820493186  0.7900375350117632  1.0000
  H   H35       1.0  0.1969388706088253  0.43042776441186703  0.709961321623034  1.0000
  H   H36       1.0  0.3030606922530623  0.06957322650319499  0.20996063632978237  1.0000
  H   H37       1.0  0.9406343194241841  0.642173038627014  0.43877244001862464  1.0000
  H   H38       1.0  0.559366160708862  0.8578270536796565  0.93876933623055  1.0000
  H   H39       1.0  0.0593664998774202  0.35782722104292464  0.56122946678466  1.0000
  H   H40       1.0  0.44063570840059196  0.14217320290338617  0.06122808802123813  1.0000
  H   H41       1.0  0.8737271444313564  0.574169489273899  0.6092827618518941  1.0000
  H   H42       1.0  0.6262755944622355  0.9258303098320225  0.10927677889522165  1.0000
  H   H43       1.0  0.12627577449793387  0.42583076421375665  0.39072138622881186  1.0000
  H   H44       1.0  0.37372590290017627  0.0741683808311819  0.8907206453576326  1.0000
  H   H45       1.0  0.4469163186654228  0.291855829901273  0.6526551537305567  1.0000
  H   H46       1.0  0.05308132830896991  0.20814211905661753  0.15265541620635767  1.0000
  H   H47       1.0  0.5530820292614604  0.7081428700310962  0.34734451179637216  1.0000
  H   H48       1.0  0.9469172054922409  0.7918573638351063  0.8473449964120692  1.0000
  C   C1        1.0  0.48498511574464237  0.021174711458421293  0.3590146163234494  1.0000
  C   C2        1.0  0.015015629892609211  0.4788252676572924  0.8590149910161389  1.0000
  C   C3        1.0  0.5150148396138476  0.9788263342645394  0.640983555018494  1.0000
  C   C4        1.0  0.9849860533449258  0.5211742059646981  0.14098392742023697  1.0000
  C   C5        1.0  0.44206103063469737  0.9148579820896289  0.3377799978307651  1.0000
  C   C6        1.0  0.0579379008809227  0.5851422876228938  0.8377803332306047  1.0000
  C   C7        1.0  0.5579366392257867  0.08514228685343278  0.6622189206024135  1.0000
  C   C8        1.0  0.9420629184182873  0.41485797204874325  0.1622193322966013  1.0000
  C   C9        1.0  0.3030354043984289  0.8702978188851844  0.3628172419639812  1.0000
  C   C10       1.0  0.1969646304871091  0.6297024098162964  0.8628184264596331  1.0000
  C   C11       1.0  0.6969643650865435  0.1297024438778678  0.6371809293784951  1.0000
  C   C12       1.0  0.8030361888129035  0.37029784985476516  0.13718198615960386  1.0000
  C   C13       1.0  0.2086077297154745  0.929696057245998  0.4071271610884325  1.0000
  C   C14       1.0  0.2913936356383858  0.5703048842154601  0.9071285636981306  1.0000
  C   C15       1.0  0.7913922256446213  0.07030498847584  0.5928725044375727  1.0000
  C   C16       1.0  0.7086082334734696  0.42969537236587724  0.09287110182974354  1.0000
  C   C17       1.0  0.24905955378914504  0.0361618798461976  0.4270820092487997  1.0000
  C   C18       1.0  0.25094220138834794  0.46383721012774964  0.9270827074363841  1.0000
  C   C19       1.0  0.7509387941377454  0.9638368200861718  0.5729176562781293  1.0000
  C   C20       1.0  0.7490605316626288  0.536162260403387  0.07291695809268363  1.0000
  C   C21       1.0  0.3888196075321061  0.08054985988126621  0.4023548089149005  1.0000
  C   C22       1.0  0.11118036687387439  0.41945083964369445  0.9023554038815862  1.0000
  C   C23       1.0  0.6111792980137521  0.919451188931987  0.5976433624263751  1.0000
  C   C24       1.0  0.8888215022379741  0.5805494169376432  0.09764426164628054  1.0000
  C   C25       1.0  0.5988047145728927  0.1810597975569905  0.37414839887118506  1.0000
  C   C26       1.0  0.901194060716527  0.31893936049824834  0.8741487806603206  1.0000
  C   C27       1.0  0.4011919054757485  0.8189404744757879  0.6258512666533494  1.0000
  C   C28       1.0  0.09880762252260675  0.6810601131226052  0.12585163196011007  1.0000
  C   C29       1.0  0.40710244178609406  0.273402500273356  0.44518694057835284  1.0000
  C   C30       1.0  0.09289848817936529  0.2265973483304364  0.9451870854273  1.0000
  C   C31       1.0  0.5928962778886344  0.7265977655782904  0.5548134720395412  1.0000
  C   C32       1.0  0.9071033809332859  0.7734029082503397  0.054813327192590626  1.0000
  C   C33       1.0  0.6189877025942961  0.41996448598851527  0.4672321445966505  1.0000
  C   C34       1.0  0.8810144212410976  0.08003452181920072  0.9672284148450676  1.0000
  C   C35       1.0  0.3810120668946695  0.5800357767717089  0.5327697622059662  1.0000
  C   C36       1.0  0.11898726199643753  0.9199649518027894  0.03277050359130841  1.0000
  C   C37       1.0  0.6555874894824  0.45662289032956244  0.37109708226234545  1.0000
  C   C38       1.0  0.8444123290907015  0.04337626925816099  0.8710956083089346  1.0000
  C   C39       1.0  0.34441209413304824  0.5433765894707392  0.6289048245408042  1.0000
  C   C40       1.0  0.1555895400211469  0.9566239873231834  0.12890405721893222  1.0000
  C   C41       1.0  0.7722412933056331  0.5375566127295811  0.363536517594092  1.0000
  C   C42       1.0  0.7277602615772807  0.9624443733962166  0.8635319591092103  1.0000
  C   C43       1.0  0.2277595259967739  0.462443646939789  0.6364661363012234  1.0000
  C   C44       1.0  0.27224179340569776  0.037556666146741705  0.13646546514204524  1.0000
  C   C45       1.0  0.8502447550270843  0.5788896328502773  0.4481080973182829  1.0000
  C   C46       1.0  0.6497557450739818  0.921110445318213  0.9481035087109153  1.0000
  C   C47       1.0  0.1497550144634801  0.4211106299088101  0.5518953036683956  1.0000
  C   C48       1.0  0.3502459381619544  0.0788890283049071  0.05189391554139891  1.0000
  C   C49       1.0  0.8136900575313603  0.5416113419502436  0.5439017391387966  1.0000
  C   C50       1.0  0.6863093920714861  0.9583885654480825  0.04389727231143331  1.0000
  C   C51       1.0  0.18630884801848419  0.4583897068601885  0.45610016766262634  1.0000
  C   C52       1.0  0.3136921052917288  0.0416101252145538  0.9561008990334445  1.0000
  C   C53       1.0  0.6954918369232103  0.46184097161599164  0.5529430382636493  1.0000
  C   C54       1.0  0.804507301095306  0.038158669832292  0.052940165669156214  1.0000
  C   C55       1.0  0.30450898237839397  0.5381592880539401  0.4470588685396353  1.0000
  C   C56       1.0  0.1954922825169447  0.9618408099702691  0.947058752765884  1.0000
  C   C57       1.0  0.5218346346876857  0.3426298891492934  0.6053336028575702  1.0000
  C   C58       1.0  0.9781644295259041  0.1573688899899182  0.10533224637259762  1.0000
  C   C59       1.0  0.47816476305184347  0.6573688076927907  0.3946660626700267  1.0000
  C   C60       1.0  0.02183305446106233  0.842630595993228  0.8946666720611066  1.0000
  Br  Br1       1.0  0.6726109436370892  0.6576477780603794  0.8177189998298788  1.0000
  Br  Br2       1.0  0.8273876701249633  0.8423501517954008  0.31771938673053773  1.0000
  Br  Br3       1.0  0.32738826822971845  0.34235013582122065  0.18228141279028165  1.0000
  Br  Br4       1.0  0.1726120993616078  0.15765011096651446  0.6822802787960004  1.0000
  Br  Br5       1.0  0.5054965123915167  0.28849434789645295  0.8757958934279491  1.0000
  Br  Br6       1.0  0.9945062143654296  0.2114993114963539  0.37579147940198265  1.0000
  Br  Br7       1.0  0.4945057834887193  0.711498855861663  0.12420825465821396  1.0000
  Br  Br8       1.0  0.0054935551219373385  0.7885009512650003  0.6242089332165863  1.0000
  N   N1        1.0  0.6309619147607677  0.4116223678336581  0.6373345545879519  1.0000
  N   N2        1.0  0.8690368461579608  0.08837479691875667  0.13733317449904095  1.0000
  N   N3        1.0  0.36903834691948134  0.5883755429570883  0.3626666051249075  1.0000
  N   N4        1.0  0.13096255158076534  0.9116238999238888  0.8626657439365322  1.0000
  N   N5        1.0  0.5097197921730582  0.34335198004460216  0.5035333406703801  1.0000
  N   N6        1.0  0.9902802899698455  0.15664773314501446  0.003532747809934702  1.0000
  N   N7        1.0  0.49027874162734963  0.6566475028476829  0.49646632485602304  1.0000
  N   N8        1.0  0.009718429704882714  0.8433525327066248  0.9964676648079663  1.0000
  N   N9        1.0  0.46501432444181745  0.18197933620162124  0.41069082580332883  1.0000
  N   N10       1.0  0.03498671760819149  0.3180213476077042  0.9106914926909514  1.0000
  N   N11       1.0  0.5349845811056397  0.818021712610502  0.5893088397220085  1.0000
  N   N12       1.0  0.9650151515044597  0.6819789089730719  0.08930891992894632  1.0000
  N   N13       1.0  0.6145593854449842  0.08666352384280883  0.3430552640715805  1.0000
  N   N14       1.0  0.8854407448936072  0.413337244134155  0.8430554692318426  1.0000
  N   N15       1.0  0.3854384702898272  0.9133375280595996  0.656944401453089  1.0000
  N   N16       1.0  0.11456007440480681  0.5866630155380435  0.15694344920333245  1.0000
