data_image0
_chemical_formula_structural       Zn8H32C56N8O36
_chemical_formula_sum              "Zn8 H32 C56 N8 O36"
_cell_length_a       7.996176461096733
_cell_length_b       8.768818208123642
_cell_length_c       20.72009359346644
_cell_angle_alpha    90.00007439501003
_cell_angle_beta     93.0989522587274
_cell_angle_gamma    90.00060210319751

_space_group_name_H-M_alt    "P 1"
_space_group_IT_number       1

loop_
  _space_group_symop_operation_xyz
  'x, y, z'

loop_
  _atom_site_type_symbol
  _atom_site_label
  _atom_site_symmetry_multiplicity
  _atom_site_fract_x
  _atom_site_fract_y
  _atom_site_fract_z
  _atom_site_occupancy
  Zn  Zn1       1.0  0.23313454418336474  0.5212597269611123  0.14421743103024204  1.0000
  Zn  Zn2       1.0  0.2668626244702281  0.021253269379947395  0.35578343690658454  1.0000
  Zn  Zn3       1.0  0.766865580734013  0.4787422656696804  0.855783454127192  1.0000
  Zn  Zn4       1.0  0.7331325085785565  0.978740740393441  0.6442163651882782  1.0000
  Zn  Zn5       1.0  0.6284089817987846  0.22368917962494084  0.9822656249294756  1.0000
  Zn  Zn6       1.0  0.8715911733073156  0.723684038115792  0.5177336284355292  1.0000
  Zn  Zn7       1.0  0.371591160900138  0.7763150938135153  0.017734295377238102  1.0000
  Zn  Zn8       1.0  0.1284089871269458  0.27631453329862404  0.48226532701730934  1.0000
  H   H1        1.0  0.7032711579767293  0.5044146240265519  0.0328909121506484  1.0000
  H   H2        1.0  0.7967325761393766  0.0044122169264966  0.4671098703209112  1.0000
  H   H3        1.0  0.29673272413369023  0.49558736862246605  0.9671100616626379  1.0000
  H   H4        1.0  0.20326631411565896  0.9955840736741806  0.5328900204306992  1.0000
  H   H5        1.0  0.5288995228650819  0.43567480136945147  0.05925190187708301  1.0000
  H   H6        1.0  0.9710992112610625  0.9356707759020965  0.4407475380006149  1.0000
  H   H7        1.0  0.47109939410187707  0.564331752869897  0.9407465416011507  1.0000
  H   H8        1.0  0.028903427309437298  0.0643266551220378  0.559252923833107  1.0000
  H   H9        1.0  0.22793768546387125  0.043764339864900095  0.14234754047439685  1.0000
  H   H10       1.0  0.272058500192557  0.5437558616194664  0.35765283328360914  1.0000
  H   H11       1.0  0.7720662321898358  0.956238793185861  0.8576515036360919  1.0000
  H   H12       1.0  0.7279365795577986  0.4562392885626351  0.642349863366569  1.0000
  H   H13       1.0  0.9516973270647496  0.9339596553080087  0.16676670417029274  1.0000
  H   H14       1.0  0.5482976477939943  0.4339578659290878  0.3332316808442358  1.0000
  H   H15       1.0  0.04830658167178109  0.06603777572080817  0.833232822363748  1.0000
  H   H16       1.0  0.4516987198709258  0.566033863042712  0.6667691156532884  1.0000
  H   H17       1.0  0.6987841570059671  0.9966896950795459  0.09204555615571763  1.0000
  H   H18       1.0  0.8012128231089404  0.4966882900388254  0.40795146074901834  1.0000
  H   H19       1.0  0.3012197517503664  0.0033111571628551993  0.9079539703796801  1.0000
  H   H20       1.0  0.19878859858737022  0.5033068601673847  0.5920470418286004  1.0000
  H   H21       1.0  0.7976366294529739  0.761223030138744  0.19958581780397824  1.0000
  H   H22       1.0  0.7023637978727139  0.2612180622495969  0.3004159848778159  1.0000
  H   H23       1.0  0.20236973973727146  0.23878808576006352  0.8004161799684298  1.0000
  H   H24       1.0  0.29763384886880556  0.7387782283443015  0.6995833938960276  1.0000
  H   H25       1.0  0.8844897517778774  0.8749926495631044  0.30682372420659487  1.0000
  H   H26       1.0  0.615506983041264  0.3749899373020327  0.19317805025294635  1.0000
  H   H27       1.0  0.11550910304607946  0.1250218875128297  0.6931780962554728  1.0000
  H   H28       1.0  0.384488150040525  0.6250097744940034  0.8068217518441687  1.0000
  H   H29       1.0  0.6599940060241847  0.982739373850826  0.3750241397865822  1.0000
  H   H30       1.0  0.8400052463250632  0.4827397548825089  0.12497678459541824  1.0000
  H   H31       1.0  0.3400010915275188  0.017261478352523296  0.6249775920142256  1.0000
  H   H32       1.0  0.15999238269432678  0.5172645185444935  0.8750235590332099  1.0000
  C   C1        1.0  0.9827800885735481  0.20143555772099117  0.0212894055047528  1.0000
  C   C2        1.0  0.5172171862329975  0.701429558145179  0.4787098786555292  1.0000
  C   C3        1.0  0.01721754932340499  0.7985675753007867  0.9787104556976094  1.0000
  C   C4        1.0  0.4827816773497132  0.29856331124400276  0.521291459372158  1.0000
  C   C5        1.0  0.1283086319062292  0.1694534183063965  0.05959300941679401  1.0000
  C   C6        1.0  0.3716902789949826  0.669448434367048  0.44040652845510675  1.0000
  C   C7        1.0  0.8716927631903743  0.8305508551381421  0.9404069404418681  1.0000
  C   C8        1.0  0.6283098369920095  0.33054557543274393  0.5595948391249836  1.0000
  C   C9        1.0  0.11587131432801807  0.07162725820528239  0.11246035585403294  1.0000
  C   C10       1.0  0.38412646408028195  0.5716233722220777  0.3875391046439348  1.0000
  C   C11       1.0  0.8841325944415172  0.9283758748461748  0.8875391706822672  1.0000
  C   C12       1.0  0.6158736430291396  0.42837177798293874  0.6124627453624144  1.0000
  C   C13       1.0  0.9616879707115513  0.0095123763633964  0.12560270380517125  1.0000
  C   C14       1.0  0.5383083257868364  0.5095074002339358  0.37439694053405514  1.0000
  C   C15       1.0  0.038315938044789284  0.9904884758790045  0.8743968227302192  1.0000
  C   C16       1.0  0.4616905377892734  0.49048432875071046  0.6256043974931843  1.0000
  C   C17       1.0  0.8224056303788814  0.04427687532720629  0.08494425476035873  1.0000
  C   C18       1.0  0.677592329879502  0.5442756462309359  0.41505496420302995  1.0000
  C   C19       1.0  0.17759577356888903  0.955721696093981  0.9150552126702396  1.0000
  C   C20       1.0  0.3224077950048637  0.4557206443772087  0.5849459209521515  1.0000
  C   C21       1.0  0.9849925240404924  0.31088505978734554  0.9647375611620607  1.0000
  C   C22       1.0  0.5150048744116515  0.8108776781392065  0.5352621549385008  1.0000
  C   C23       1.0  0.015005087203945802  0.6891180732365213  0.03526374731773531  1.0000
  C   C24       1.0  0.4849965117347707  0.18911519126072557  0.46473827734146783  1.0000
  C   C25       1.0  0.29715260965980406  0.23831526182066648  0.04899911641102511  1.0000
  C   C26       1.0  0.20284581938467733  0.7383109650332784  0.4510018936520483  1.0000
  C   C27       1.0  0.702848794340774  0.761692432836753  0.9510003510231829  1.0000
  C   C28       1.0  0.7971542788735775  0.2616898871950751  0.5490004387823719  1.0000
  C   C29       1.0  0.41728993198996267  0.8490301515953645  0.25505786022818466  1.0000
  C   C30       1.0  0.08270482246486917  0.3490238610500711  0.24494022463997578  1.0000
  C   C31       1.0  0.5827102284707024  0.15097298143717097  0.7449410952264517  1.0000
  C   C32       1.0  0.9172903283522584  0.6509701487219246  0.7550586126032572  1.0000
  C   C33       1.0  0.5341580921201369  0.8011199725758614  0.21156696218293558  1.0000
  C   C34       1.0  0.9658403367052839  0.3011152247061658  0.28843240082197513  1.0000
  C   C35       1.0  0.46584452872163234  0.19888430087684128  0.788434464505116  1.0000
  C   C36       1.0  0.0341573189270079  0.6988822062915715  0.7115664955265119  1.0000
  C   C37       1.0  0.7042461278713004  0.8049970569255149  0.23130322605500458  1.0000
  C   C38       1.0  0.7957510845460831  0.30499061034075237  0.2686965928896257  1.0000
  C   C39       1.0  0.2957565107718096  0.19501291854844277  0.7686972357836697  1.0000
  C   C40       1.0  0.20424406627764566  0.6950045398357715  0.7313022443540549  1.0000
  C   C41       1.0  0.7525593732666064  0.8664572028860532  0.2912736206887986  1.0000
  C   C42       1.0  0.7474372716324564  0.3664558089850729  0.20872766459444858  1.0000
  C   C43       1.0  0.24744074279299602  0.1335493513635555  0.7087277468962513  1.0000
  C   C44       1.0  0.2525591138338187  0.6335416220079821  0.7912721670537127  1.0000
  C   C45       1.0  0.6294523830926833  0.9250540746037502  0.3294844802457036  1.0000
  C   C46       1.0  0.8705474627317712  0.4250537491276559  0.17051594563669437  1.0000
  C   C47       1.0  0.3705452459200983  0.07494905841871707  0.6705158633824768  1.0000
  C   C48       1.0  0.12945267994734883  0.5749471030972158  0.8294839746686621  1.0000
  C   C49       1.0  0.4811804888670038  0.7568821812239077  0.1436909827147801  1.0000
  C   C50       1.0  0.018819451945439894  0.2568790383175283  0.3563076594569027  1.0000
  C   C51       1.0  0.5188258980321764  0.2431186710327324  0.8563100502019412  1.0000
  C   C52       1.0  0.9811782125842324  0.7431206734885691  0.6436907544666755  1.0000
  C   C53       1.0  0.23055922216887836  0.8294884015335099  0.2425202597275559  1.0000
  C   C54       1.0  0.2694365584794624  0.32948622871078465  0.25747783923787904  1.0000
  C   C55       1.0  0.7694459478429108  0.1705078890961573  0.7574788139321672  1.0000
  C   C56       1.0  0.7305548262604517  0.6705077810436749  0.74252139177532  1.0000
  N   N1        1.0  0.4659830339312164  0.9142319620361475  0.3120241259527036  1.0000
  N   N2        1.0  0.03401746718065371  0.41422844895549094  0.18797509354652686  1.0000
  N   N3        1.0  0.5340146039459412  0.08576774977203878  0.6879757352483085  1.0000
  N   N4        1.0  0.9659839456314854  0.5857667012514154  0.812023891456903  1.0000
  N   N5        1.0  0.834306283333639  0.1374878186688022  0.034002507779042915  1.0000
  N   N6        1.0  0.6656927559955006  0.637486631280467  0.4659967849083842  1.0000
  N   N7        1.0  0.16569261582537104  0.86251189314477  0.9659969005481063  1.0000
  N   N8        1.0  0.33430863017071727  0.3625096593330567  0.5340036473729344  1.0000
  O   O1        1.0  0.6353912192478715  0.4126299883107904  0.03894763238216831  1.0000
  O   O2        1.0  0.8646097351245672  0.9126261399259972  0.4610528132241144  1.0000
  O   O3        1.0  0.364610193630277  0.5873765659414119  0.9610513526257737  1.0000
  O   O4        1.0  0.1353916688166024  0.08737129109066188  0.538946654206029  1.0000
  O   O5        1.0  0.33198696516056697  0.3631122224264374  0.07795055221783541  1.0000
  O   O6        1.0  0.16801166510534674  0.8631086417078464  0.42205004457433404  1.0000
  O   O7        1.0  0.6680095003424708  0.6368988934146883  0.9220449376034242  1.0000
  O   O8        1.0  0.8319921548290664  0.1368956317551167  0.5779543062205337  1.0000
  O   O9        1.0  0.39714098187208435  0.1615219926012301  0.016325392866299603  1.0000
  O   O10       1.0  0.10285533242000607  0.6615179734631765  0.4836740796288269  1.0000
  O   O11       1.0  0.6028591519228642  0.838478859624338  0.9836750098648682  1.0000
  O   O12       1.0  0.8971410530528628  0.33848059793439933  0.5163257520197889  1.0000
  O   O13       1.0  0.12221083420539708  0.36642770749618586  0.9508556068080838  1.0000
  O   O14       1.0  0.3777917361503853  0.8664215816741745  0.5491435264830927  1.0000
  O   O15       1.0  0.877788056095845  0.6335765659361954  0.04914428394668141  1.0000
  O   O16       1.0  0.6222133983379122  0.1335769897673416  0.4508574768807777  1.0000
  O   O17       1.0  0.8417452267625974  0.33830307105964147  0.9354061544565868  1.0000
  O   O18       1.0  0.6582549939153495  0.8382994398800606  0.5645936424352842  1.0000
  O   O19       1.0  0.15825488927720235  0.6617000619763829  0.06459521312711301  1.0000
  O   O20       1.0  0.3417476712878693  0.16169456992838596  0.4354053721196396  1.0000
  O   O21       1.0  0.47668018577664384  0.6179090174785813  0.12744011795739146  1.0000
  O   O22       1.0  0.023320668749704503  0.11790482738111044  0.3725575085470752  1.0000
  O   O23       1.0  0.5233274446360452  0.3820918347848376  0.8725614269370967  1.0000
  O   O24       1.0  0.9766795272278513  0.882094884435041  0.6274395172029587  1.0000
  O   O25       1.0  0.4478332234114219  0.8670632848853401  0.10475228989921703  1.0000
  O   O26       1.0  0.05216547036799567  0.3670605826350268  0.39524734516672333  1.0000
  O   O27       1.0  0.5521706764343364  0.1329330057396447  0.8952477190601871  1.0000
  O   O28       1.0  0.9478296715913641  0.6329379887557848  0.6047519745041259  1.0000
  O   O29       1.0  0.1763747256307582  0.7365952835495121  0.1996833918527301  1.0000
  O   O30       1.0  0.32362249330974163  0.23659376404241783  0.30031421031841193  1.0000
  O   O31       1.0  0.8236266960787544  0.2634021474657544  0.800315110725791  1.0000
  O   O32       1.0  0.6763726575139941  0.7634013861341061  0.6996846269252759  1.0000
  O   O33       1.0  0.13838924658370638  0.9103153225619706  0.2773703060159606  1.0000
  O   O34       1.0  0.361608704416703  0.4103162113244423  0.22262885128329668  1.0000
  O   O35       1.0  0.8616109227017145  0.0896775468291011  0.7226281670088073  1.0000
  O   O36       1.0  0.6383851851185723  0.5896777984421746  0.7773704388338063  1.0000
