data_image0
_chemical_formula_structural       Zn2H22C40N6O20
_chemical_formula_sum              "Zn2 H22 C40 N6 O20"
_cell_length_a       11.061274407572531
_cell_length_b       15.98660961334953
_cell_length_c       17.18356892637186
_cell_angle_alpha    96.7681441499004
_cell_angle_beta     89.84730953089071
_cell_angle_gamma    93.07211964019733

_space_group_name_H-M_alt    "P 1"
_space_group_IT_number       1

loop_
  _space_group_symop_operation_xyz
  'x, y, z'

loop_
  _atom_site_type_symbol
  _atom_site_label
  _atom_site_symmetry_multiplicity
  _atom_site_fract_x
  _atom_site_fract_y
  _atom_site_fract_z
  _atom_site_occupancy
  Zn  Zn1       1.0  0.49228299361413264  0.40449693123159136  0.4988867959552579  1.0000
  Zn  Zn2       1.0  0.4980082659298191  0.5901917311236033  0.5068811350049529  1.0000
  H   H1        1.0  0.39385943082989167  0.7137277895958718  0.4219238920532505  1.0000
  H   H2        1.0  0.3979871991193491  0.8711935295673641  0.42156898978793583  1.0000
  H   H3        1.0  0.688681916691678  0.8899437256567352  0.5916488534827096  1.0000
  H   H4        1.0  0.3121252048711796  0.10106184699046847  0.4234494524084838  1.0000
  H   H5        1.0  0.6482962727325088  0.12685252158429713  0.5550734445052754  1.0000
  H   H6        1.0  0.6393132805659718  0.2829008758943559  0.5575744462504844  1.0000
  H   H7        1.0  0.4890822969300928  0.6187091695881578  0.266652702456085  1.0000
  H   H8        1.0  0.484936015084223  0.6163400103288835  0.12075482018456542  1.0000
  H   H9        1.0  0.524192459344576  0.3474605469217805  0.0959929955595769  1.0000
  H   H10       1.0  0.5028442189427126  0.6637777347685512  0.9062995922177635  1.0000
  H   H11       1.0  0.4781765763871846  0.3919749921697501  0.8871166539047836  1.0000
  H   H12       1.0  0.47086099023695743  0.38652194234497717  0.7403938906166729  1.0000
  H   H13       1.0  0.7668044546600468  0.5928031445165087  0.4066939307479416  1.0000
  H   H14       1.0  0.2146074261566824  0.5866197925044787  0.3824587463911727  1.0000
  H   H15       1.0  0.6990957065186548  0.6655746688468084  0.5699403849413969  1.0000
  H   H16       1.0  0.28814325279254405  0.32263300956947205  0.4451089316755557  1.0000
  H   H17       1.0  0.5217977534825238  0.34660114388188396  0.302898721193344  1.0000
  H   H18       1.0  0.4909903247555505  0.6590098164981127  0.6991355906585142  1.0000
  H   H19       1.0  0.1541425381986627  0.48535941030438307  0.6691554915462703  1.0000
  H   H20       1.0  0.8229607755115254  0.5015778797335884  0.6654912063193024  1.0000
  H   H21       1.0  0.7188257097034878  0.6217923880555176  0.2909579029841325  1.0000
  H   H22       1.0  0.17327258294861278  0.7648007257849655  0.3688010125943961  1.0000
  C   C1        1.0  0.5113081430927267  0.48858733491608314  0.34984413884280496  1.0000
  C   C2        1.0  0.257694634433328  0.49556072707289894  0.4908946713382107  1.0000
  C   C3        1.0  0.48191353809672693  0.5151955153217143  0.6548013888328654  1.0000
  C   C4        1.0  0.7331891299282561  0.4945980548973948  0.5122925295384846  1.0000
  C   C5        1.0  0.45650174838177543  0.7557576799726461  0.45901416072830165  1.0000
  C   C6        1.0  0.4581810284121488  0.8418790200172592  0.45898021035701225  1.0000
  C   C7        1.0  0.5416257751294112  0.8915303300188384  0.5093144335873633  1.0000
  C   C8        1.0  0.62188336742787  0.8528683588579183  0.5538637004611929  1.0000
  C   C9        1.0  0.6164902552678697  0.7642530920510707  0.5484698434346457  1.0000
  C   C10       1.0  0.38593757914196664  0.13947030125789436  0.4534329740996057  1.0000
  C   C11       1.0  0.4796796801461413  0.1028423223888311  0.4883139379629284  1.0000
  C   C12       1.0  0.5737905844451207  0.1540779497786815  0.5275333759077157  1.0000
  C   C13       1.0  0.5683422512229157  0.24010054304040546  0.5291717432345919  1.0000
  C   C14       1.0  0.3859412359883763  0.2280157498659463  0.4588148161830432  1.0000
  C   C15       1.0  0.5097406853195068  0.4850977415865854  0.2638805721341058  1.0000
  C   C16       1.0  0.49792540221189097  0.55986269451342  0.2284532773443999  1.0000
  C   C17       1.0  0.4955349138129463  0.5591449937957832  0.148088826803999  1.0000
  C   C18       1.0  0.5056443238194746  0.4813570335373213  0.10055941384410261  1.0000
  C   C19       1.0  0.5171051071801358  0.40663657820622484  0.1338256459089635  1.0000
  C   C20       1.0  0.5182188438898337  0.40712552035296307  0.2154620679490904  1.0000
  C   C21       1.0  0.4960427275532524  0.6032266722609947  0.8697028289214331  1.0000
  C   C22       1.0  0.492076388760367  0.5285225937090202  0.9044304216592494  1.0000
  C   C23       1.0  0.4822828822041173  0.44910814602676635  0.8583231487178367  1.0000
  C   C24       1.0  0.4783602192357533  0.44652342703695075  0.7778537493191423  1.0000
  C   C25       1.0  0.48346435123903575  0.5210992815380491  0.7409686179131967  1.0000
  C   C26       1.0  0.4917815499421608  0.600665162579986  0.7879129347587083  1.0000
  C   C27       1.0  0.8685320293217061  0.49581910585130357  0.5060999657784322  1.0000
  C   C28       1.0  0.9283866547550731  0.5425768108341984  0.4502395795137418  1.0000
  C   C29       1.0  0.9326014523244055  0.4466367360141561  0.5514024850242762  1.0000
  C   C30       1.0  0.8647366926903145  0.5904001878462424  0.40060319930770316  1.0000
  C   C31       1.0  0.9250612630345643  0.6373759700766328  0.34863954069012953  1.0000
  C   C32       1.0  0.1217568056030061  0.49216355202398177  0.4925042590299853  1.0000
  C   C33       1.0  0.06035988264459039  0.4435731944231875  0.5436503700771526  1.0000
  C   C34       1.0  0.05730868537594348  0.5413080153923885  0.4439883216883871  1.0000
  C   C35       1.0  0.11679983625727168  0.5884315338358874  0.38865416641378664  1.0000
  C   C36       1.0  0.05355076915751061  0.6363714409895708  0.3428077013536496  1.0000
  C   C37       1.0  0.12764922829945394  0.3875015624392688  0.5919849673174796  1.0000
  C   C38       1.0  0.865713814879051  0.39546617118843125  0.6080481996765386  1.0000
  C   C39       1.0  0.8615379734708455  0.6987927653823932  0.3058412470262013  1.0000
  C   C40       1.0  0.1238756529435463  0.6816216057782254  0.2835787126955722  1.0000
  N   N1        1.0  0.5318951802032927  0.7170318025266909  0.5041054473213364  1.0000
  N   N2        1.0  0.5522925670832421  0.9811702288379891  0.5174229740289888  1.0000
  N   N3        1.0  0.47066647999992034  0.013392294744868099  0.48125975225234185  1.0000
  N   N4        1.0  0.4768329215586037  0.277073886013646  0.4954305749426879  1.0000
  N   N5        1.0  0.5030765232736911  0.4713134101023612  0.017623397681425998  1.0000
  N   N6        1.0  0.4972555379502167  0.5394919775080923  0.9873813862667262  1.0000
  O   O1        1.0  0.5075231792284853  0.4184330032324154  0.3801834561781874  1.0000
  O   O2        1.0  0.5175555686977447  0.5611133054497085  0.390523031577196  1.0000
  O   O3        1.0  0.31158953344811374  0.5679406095153466  0.498008462651498  1.0000
  O   O4        1.0  0.30856019828082987  0.4253415167196549  0.48426283709139284  1.0000
  O   O5        1.0  0.48031226810877564  0.5855109328171864  0.6238261023178069  1.0000
  O   O6        1.0  0.4828623366574051  0.44321039277158997  0.6147969286254877  1.0000
  O   O7        1.0  0.6785873270386132  0.42295249475224483  0.501892802269829  1.0000
  O   O8        1.0  0.6836381821520375  0.5652843762317231  0.5262378696842377  1.0000
  O   O9        1.0  0.6979632865983519  0.7272797447781442  0.5882204123989112  1.0000
  O   O10       1.0  0.29442558549561676  0.261641595136112  0.425855750467619  1.0000
  O   O11       1.0  0.5275103011848613  0.33313967250339965  0.2446701692607931  1.0000
  O   O12       1.0  0.49633197973830784  0.674719490623886  0.7572439249546292  1.0000
  O   O13       1.0  0.17192874314520165  0.42571782505793  0.6621863238903458  1.0000
  O   O14       1.0  0.1409176932606897  0.3135701676284342  0.5718225188544892  1.0000
  O   O15       1.0  0.8086546221340856  0.4411289651249745  0.6682166940264409  1.0000
  O   O16       1.0  0.8614756159900809  0.31912511018708045  0.6025721422904269  1.0000
  O   O17       1.0  0.744823176146312  0.6798182206111106  0.2836415280749378  1.0000
  O   O18       1.0  0.9115954239933971  0.7658890629064455  0.2940870879995288  1.0000
  O   O19       1.0  0.1981735059705017  0.7483479164824374  0.31479292981565987  1.0000
  O   O20       1.0  0.12443156484572171  0.6572389274213818  0.21419138733197945  1.0000
