data_image0
_chemical_formula_structural       Na2H30C26N4O12
_chemical_formula_sum              "Na2 H30 C26 N4 O12"
_cell_length_a       4.618085361556067
_cell_length_b       10.119658241636312
_cell_length_c       16.512349476253792
_cell_angle_alpha    96.72529321688455
_cell_angle_beta     104.63845119947061
_cell_angle_gamma    72.95325200506893

_space_group_name_H-M_alt    "P 1"
_space_group_IT_number       1

loop_
  _space_group_symop_operation_xyz
  'x, y, z'

loop_
  _atom_site_type_symbol
  _atom_site_label
  _atom_site_symmetry_multiplicity
  _atom_site_fract_x
  _atom_site_fract_y
  _atom_site_fract_z
  _atom_site_occupancy
  Na  Na1       1.0  0.9999959664331469  3.7151154259723487e-06  0.9999998139105201  1.0000
  Na  Na2       1.0  3.744331820575168e-06  0.4999993376385135  1.6675663517008725e-06  1.0000
  H   H1        1.0  0.35706195893974507  0.6396745644243323  0.6176099627547058  1.0000
  H   H2        1.0  0.6429047933655879  0.36032568086155686  0.3823905125276851  1.0000
  H   H3        1.0  0.23395738212514736  0.7109512184668745  0.7586852848175238  1.0000
  H   H4        1.0  0.7660094437531909  0.2890590059020539  0.24131466527005324  1.0000
  H   H5        1.0  0.2756759933395117  0.596416089365732  0.1952669364207935  1.0000
  H   H6        1.0  0.724342737270241  0.40357990878543853  0.8047374387376036  1.0000
  H   H7        1.0  0.5799229300757033  0.5020223687507368  0.11349013799085839  1.0000
  H   H8        1.0  0.4200888766871882  0.4979789210342389  0.8865134718986808  1.0000
  H   H9        1.0  0.4505974929814371  0.6490216876456643  0.07788040483158908  1.0000
  H   H10       1.0  0.5494132081451821  0.3509782526627773  0.9221200912069135  1.0000
  H   H11       1.0  0.6225295440946396  0.05255366413879867  0.776358586246374  1.0000
  H   H12       1.0  0.3774429310636477  0.9474531571885051  0.22363289738413522  1.0000
  H   H13       1.0  0.494231459168766  0.7610486805515889  0.9731797649063905  1.0000
  H   H14       1.0  0.5057763328525554  0.2389545803120185  0.026821905423204794  1.0000
  H   H15       1.0  0.6477367842786278  0.8098287739440619  0.06097958524406978  1.0000
  H   H16       1.0  0.3522652204544199  0.19017778980473565  0.9390219490044911  1.0000
  H   H17       1.0  0.7418834653900386  0.9814161933448416  0.6342964518245677  1.0000
  H   H18       1.0  0.25808946405725647  0.01857853102273309  0.3656949394813082  1.0000
  H   H19       1.0  0.9112587828888578  0.2888072402074684  0.1263705154079702  1.0000
  H   H20       1.0  0.08874734834262887  0.7111962612423212  0.8736323379640039  1.0000
  H   H21       1.0  0.054735723509203485  0.4157019440589877  0.16824018322505904  1.0000
  H   H22       1.0  0.9452844443766533  0.5842959959467392  0.8317642497640205  1.0000
  H   H23       1.0  0.032529456999099975  0.917512278138801  0.4215358703352407  1.0000
  H   H24       1.0  0.9674555902459046  0.08248651207589569  0.57846081445566  1.0000
  H   H25       1.0  0.22837289472509772  0.80568198721879  0.2940336983628526  1.0000
  H   H26       1.0  0.7716219199966684  0.19431873329636318  0.7059663520215123  1.0000
  H   H27       1.0  0.9420209404253796  0.44678936761051363  0.31820569403583926  1.0000
  H   H28       1.0  0.05802760511750878  0.5531975140711224  0.681802521541101  1.0000
  H   H29       1.0  0.7369839644954509  0.5617785362961525  0.44344998361949445  1.0000
  H   H30       1.0  0.26304570107195957  0.43821406518170375  0.5565559016569422  1.0000
  C   C1        1.0  0.5562501426833959  0.8062814185290889  0.6182339053668569  1.0000
  C   C2        1.0  0.44372586116907087  0.19371061325373518  0.38176123481206037  1.0000
  C   C3        1.0  0.4096043980704776  0.7308148964549019  0.6530412477308687  1.0000
  C   C4        1.0  0.5903728967481356  0.2691873726671261  0.346955860667748  1.0000
  C   C5        1.0  0.3433171067648356  0.7704336939055664  0.7311475663350888  1.0000
  C   C6        1.0  0.6566552329758152  0.22956982478898874  0.2688494118166815  1.0000
  C   C7        1.0  0.4227567093552407  0.8859213384374699  0.7763589794195979  1.0000
  C   C8        1.0  0.5772207707932465  0.11408981854722813  0.22363698334767423  1.0000
  C   C9        1.0  0.5633834983627249  0.9628822613252976  0.740448084624482  1.0000
  C   C10       1.0  0.436591361669606  0.037119491284407495  0.2595440369451224  1.0000
  C   C11       1.0  0.6291091882527198  0.9243554154493692  0.6623414146200373  1.0000
  C   C12       1.0  0.3708680221005735  0.07564847270700875  0.3376526348411345  1.0000
  C   C13       1.0  0.3668762545627257  0.9263330410555141  0.862096924993409  1.0000
  C   C14       1.0  0.6331050477359099  0.07367498906613426  0.13789973354364798  1.0000
  C   C15       1.0  0.8709500159889314  0.7468868789921855  0.4391035037965664  1.0000
  C   C16       1.0  0.12905089400016562  0.25310673716268883  0.560898500733202  1.0000
  C   C17       1.0  0.010002259913861045  0.8152465028616616  0.39698398516780015  1.0000
  C   C18       1.0  0.9900045382280565  0.18475431730504965  0.6030139508742207  1.0000
  C   C19       1.0  0.11778915096049043  0.7533503895027633  0.3263545572094983  1.0000
  C   C20       1.0  0.8822158818962648  0.24664403039223962  0.6736475717329355  1.0000
  C   C21       1.0  0.09196375172472658  0.6200146845706344  0.2982222144871115  1.0000
  C   C22       1.0  0.9080625041669134  0.3799838831530735  0.7017817832258897  1.0000
  C   C23       1.0  0.9544950251028155  0.5508427287532812  0.3406438362739195  1.0000
  C   C24       1.0  0.045533203188497816  0.4491479308700264  0.6593619911718278  1.0000
  C   C25       1.0  0.8440566125765441  0.6133703842664814  0.4097361023329853  1.0000
  C   C26       1.0  0.15596862214415083  0.38662521494634916  0.590267840466417  1.0000
  N   N1        1.0  0.6354859280396563  0.7490805513156785  0.5424620944866019  1.0000
  N   N2        1.0  0.36449911920535527  0.25091823889901826  0.4575345903043057  1.0000
  N   N3        1.0  0.7732711521283516  0.8148746001576795  0.5106124007361925  1.0000
  N   N4        1.0  0.22671378699055802  0.18512141523825676  0.4893860992019936  1.0000
  O   O1        1.0  0.22047304129564785  0.8603643941041808  0.892462814261492  1.0000
  O   O2        1.0  0.7795205214798813  0.13964327241908586  0.10753603266083188  1.0000
  O   O3        1.0  0.46981582081934176  0.02399874262128067  0.9031895211764008  1.0000
  O   O4        1.0  0.5301831368000833  0.9760110415262415  0.09680458482514348  1.0000
  O   O5        1.0  0.20100850860708144  0.5479300645981056  0.23252848358011136  1.0000
  O   O6        1.0  0.7990348856356488  0.45206077691077695  0.7674771632490687  1.0000
  O   O7        1.0  0.3869606110628893  0.5817594969455866  0.10481085141911708  1.0000
  O   O8        1.0  0.613051114865456  0.41823954583460926  0.8951908942437397  1.0000
  O   O9        1.0  0.6343726866600932  0.7233245830596146  0.0265699440360052  1.0000
  O   O10       1.0  0.36563529795265  0.2766798335884033  0.9734329700837561  1.0000
  O   O11       1.0  0.9259858266481512  0.38185316227851723  0.11737565067742388  1.0000
  O   O12       1.0  0.07403010298240499  0.61814893124658  0.8826280836247801  1.0000
