data_image0
_chemical_formula_structural       Zr6H40C84O32F12
_chemical_formula_sum              "Zr6 H40 C84 O32 F12"
_cell_length_a       19.177200444592106
_cell_length_b       19.17722682406416
_cell_length_c       19.177250135671848
_cell_angle_alpha    59.99990039153731
_cell_angle_beta     59.9997941969039
_cell_angle_gamma    60.000023837693384

_space_group_name_H-M_alt    "P 1"
_space_group_IT_number       1

loop_
  _space_group_symop_operation_xyz
  'x, y, z'

loop_
  _atom_site_type_symbol
  _atom_site_label
  _atom_site_symmetry_multiplicity
  _atom_site_fract_x
  _atom_site_fract_y
  _atom_site_fract_z
  _atom_site_occupancy
  Zr  Zr1       1.0  0.9077623341435762  0.40778454742800835  0.5922322813273269  1.0000
  Zr  Zr2       1.0  0.09221245982519109  0.5922030136403861  0.40779570623953987  1.0000
  Zr  Zr3       1.0  0.09219616291273504  0.40779232636504764  0.5922045061140652  1.0000
  Zr  Zr4       1.0  0.9078100175708949  0.5921869908243167  0.4078124731098213  1.0000
  Zr  Zr5       1.0  0.9077433841513878  0.592256104105118  0.592241508344948  1.0000
  Zr  Zr6       1.0  0.09222145651197877  0.40775904816081976  0.40776820270986747  1.0000
  H   H1        1.0  0.9274933617329847  0.4274979063171355  0.7175109224586292  1.0000
  H   H2        1.0  0.9274955405949179  0.7175112072421398  0.42749527935011855  1.0000
  H   H3        1.0  0.21750896507828088  0.42749510448415157  0.42749470992320954  1.0000
  H   H4        1.0  0.927495612903165  0.42749571983011236  0.4274967611758455  1.0000
  H   H5        1.0  0.4508992993661705  0.6135502313381237  0.04957724621656461  1.0000
  H   H6        1.0  0.5495771090293359  0.3859711296109294  0.9509019742408356  1.0000
  H   H7        1.0  0.6794045965291243  0.609537349579028  0.8183348398470045  1.0000
  H   H8        1.0  0.5526349365206186  0.6121454348077646  0.9478690669904851  1.0000
  H   H9        1.0  0.31833089232556927  0.39272250693063165  0.17940382632465204  1.0000
  H   H10       1.0  0.44786836438775146  0.3873496305728352  0.05263574094960427  1.0000
  H   H11       1.0  0.11355119378186608  0.9508987476210605  0.3859716766438908  1.0000
  H   H12       1.0  0.8859692977609086  0.04957625282258247  0.6135499384388509  1.0000
  H   H13       1.0  0.10954038152922854  0.17940448326019257  0.39272344414947474  1.0000
  H   H14       1.0  0.11214674150802044  0.05263459637259159  0.3873518351040488  1.0000
  H   H15       1.0  0.8927213671393371  0.8183323592080284  0.6095399659828188  1.0000
  H   H16       1.0  0.8873484283706  0.9478693133867181  0.6121444784173204  1.0000
  H   H17       1.0  0.45090162094487585  0.04957514123142907  0.3859688545973796  1.0000
  H   H18       1.0  0.5495754226484235  0.9508990240777349  0.6135537346438439  1.0000
  H   H19       1.0  0.6794021817022935  0.818335109722284  0.39272267226678537  1.0000
  H   H20       1.0  0.5526335455818908  0.9478684659223048  0.38735223010321096  1.0000
  H   H21       1.0  0.31833478757878436  0.17940107712838235  0.6095368984380302  1.0000
  H   H22       1.0  0.447868432010324  0.052632719098092084  0.6121439512940013  1.0000
  H   H23       1.0  0.8859662282216545  0.613551213022653  0.9509039726474026  1.0000
  H   H24       1.0  0.11355178522730101  0.38596914017153955  0.04957604349725385  1.0000
  H   H25       1.0  0.8927249519582147  0.6095370698452811  0.17939969970146288  1.0000
  H   H26       1.0  0.8873515777104115  0.6121449274196139  0.05263283030469524  1.0000
  H   H27       1.0  0.10953470688869528  0.3927280473922251  0.8183330623907707  1.0000
  H   H28       1.0  0.11214372648830552  0.3873537595054727  0.9478647382181508  1.0000
  H   H29       1.0  0.8859684904427992  0.9509024268463832  0.049578372469831045  1.0000
  H   H30       1.0  0.11355188267834385  0.04957454185933586  0.9509006364219914  1.0000
  H   H31       1.0  0.8927233014065264  0.17940127160656524  0.8183341522789576  1.0000
  H   H32       1.0  0.8873508265864909  0.05263194314832026  0.9478700680258997  1.0000
  H   H33       1.0  0.10953818958171259  0.8183311374212181  0.1794046840252932  1.0000
  H   H34       1.0  0.11214679137527384  0.9478660723915836  0.052634279014718184  1.0000
  H   H35       1.0  0.4509025101255302  0.3859686330522719  0.6135502565478674  1.0000
  H   H36       1.0  0.5495775561555191  0.613550127478291  0.38597121737628015  1.0000
  H   H37       1.0  0.6794030950522653  0.39272455657752653  0.6095396535432726  1.0000
  H   H38       1.0  0.5526339230971329  0.3873506371933857  0.6121475365337616  1.0000
  H   H39       1.0  0.31833326862292205  0.6095382647055203  0.3927231606937198  1.0000
  H   H40       1.0  0.4478679069768602  0.6121460851416954  0.38735122060985816  1.0000
  C   C1        1.0  0.7636569648965615  0.5004655159740068  0.732363577790295  1.0000
  C   C2        1.0  0.003508620741222061  0.7323592569147549  0.5004693842810894  1.0000
  C   C3        1.0  0.23235518677383735  0.5035094562768874  0.2636621627974876  1.0000
  C   C4        1.0  0.00046093902302149037  0.2636597628213053  0.5035173333046643  1.0000
  C   C5        1.0  0.0035138160445172873  0.2636550510524173  0.7323621748151652  1.0000
  C   C6        1.0  0.7636553719872123  0.5035121145418344  0.5004706324843154  1.0000
  C   C7        1.0  0.00046243276823059446  0.7323570926744126  0.26366019743301905  1.0000
  C   C8        1.0  0.23236098209032005  0.5004618528950359  0.5035164428185935  1.0000
  C   C9        1.0  0.00044381624186221866  0.5035323408602183  0.7323581687933114  1.0000
  C   C10       1.0  0.23235648284178  0.2636590231995584  0.5004505235141252  1.0000
  C   C11       1.0  0.0035260973439933405  0.5004506293709453  0.2636597870193426  1.0000
  C   C12       1.0  0.7636576722031518  0.7323606131447632  0.5035259819945209  1.0000
  C   C13       1.0  0.3107765989708538  0.504246855682112  0.18646798656595104  1.0000
  C   C14       1.0  0.6864694785096646  0.4985028758600193  0.8107822915254063  1.0000
  C   C15       1.0  0.35137525975810036  0.5649869459005427  0.14709707074644737  1.0000
  C   C16       1.0  0.4243764198978821  0.5635548405619629  0.07547132737607126  1.0000
  C   C17       1.0  0.6470998461023071  0.4365357762240124  0.8513780245319679  1.0000
  C   C18       1.0  0.5754726635120518  0.43659276543461795  0.9243805467990781  1.0000
  C   C19       1.0  0.6495316827882645  0.5610768934657812  0.848705246648116  1.0000
  C   C20       1.0  0.5780010147344183  0.5619207985164608  0.9217854996101735  1.0000
  C   C21       1.0  0.3487013025136035  0.4406865724336059  0.14952981777850743  1.0000
  C   C22       1.0  0.4217824088096264  0.4382935963597987  0.07800010381058083  1.0000
  C   C23       1.0  0.46148841652691164  0.5001642670470332  0.03874634676965617  1.0000
  C   C24       1.0  0.5387479055814453  0.49959778613509087  0.9614902214662495  1.0000
  C   C25       1.0  0.004245597511754548  0.8107799560983792  0.4985034902460868  1.0000
  C   C26       1.0  0.9985046153137204  0.18646710702488176  0.5042478822059522  1.0000
  C   C27       1.0  0.06498443176352725  0.8513790749883438  0.4365381483572435  1.0000
  C   C28       1.0  0.06355245232418813  0.9243800984895074  0.43659444959804716  1.0000
  C   C29       1.0  0.9365354893868342  0.14709686296787805  0.5649878047879825  1.0000
  C   C30       1.0  0.9365920226068878  0.07547157273371857  0.5635542988906224  1.0000
  C   C31       1.0  0.061080278074193486  0.14952908081996696  0.4406867953776299  1.0000
  C   C32       1.0  0.06192151999507444  0.07800018055427667  0.43829300072922456  1.0000
  C   C33       1.0  0.9406833279921325  0.8487045490068611  0.5610791886172349  1.0000
  C   C34       1.0  0.9382909866582588  0.9217849878327229  0.5619206379079386  1.0000
  C   C35       1.0  0.00016261467729323837  0.9614908415779126  0.49959870897077957  1.0000
  C   C36       1.0  0.999596677333777  0.038748438231103015  0.500163788492017  1.0000
  C   C37       1.0  0.31078046513611923  0.18646399595913005  0.49850249301764643  1.0000
  C   C38       1.0  0.686465322572687  0.8107820540227307  0.5042472768751337  1.0000
  C   C39       1.0  0.3513764754527101  0.1470973694025375  0.4365329536289763  1.0000
  C   C40       1.0  0.424378142848468  0.07547015124902141  0.43659229642531017  1.0000
  C   C41       1.0  0.6471005041394302  0.8513767392415659  0.5649888764055644  1.0000
  C   C42       1.0  0.5754698169140794  0.9243770183414669  0.563558582731609  1.0000
  C   C43       1.0  0.6495285565302494  0.8487007057779079  0.440691013327033  1.0000
  C   C44       1.0  0.578000788089241  0.9217830444415468  0.4382946797513866  1.0000
  C   C45       1.0  0.34869935891707354  0.1495285112426146  0.5610769775875114  1.0000
  C   C46       1.0  0.42178311109321925  0.07799797899788524  0.5619193482488284  1.0000
  C   C47       1.0  0.46148888920033215  0.038744394626441185  0.49959915147695705  1.0000
  C   C48       1.0  0.5387468444644481  0.9614863758355126  0.5001660954684722  1.0000
  C   C49       1.0  0.9984975965111568  0.5042494673605802  0.8107822916257632  1.0000
  C   C50       1.0  0.0042473184700781924  0.4985009042324577  0.18646660869961101  1.0000
  C   C51       1.0  0.9365307141730309  0.5649896655998246  0.8513794466877798  1.0000
  C   C52       1.0  0.9365885585097612  0.5635551831757437  0.9243825884947794  1.0000
  C   C53       1.0  0.06498928684504077  0.4365337107219318  0.14709835457472303  1.0000
  C   C54       1.0  0.06355557229704084  0.4365902421776723  0.07547211182446024  1.0000
  C   C55       1.0  0.9406889240950274  0.5610741114974471  0.1495311735341928  1.0000
  C   C56       1.0  0.938294072226007  0.5619184559660226  0.07800161705873154  1.0000
  C   C57       1.0  0.06107304814088366  0.44069227805327665  0.8487004971325973  1.0000
  C   C58       1.0  0.06191668900240895  0.4382977711714133  0.9217827089557389  1.0000
  C   C59       1.0  0.9995963265551421  0.5001619781790579  0.9614920133614504  1.0000
  C   C60       1.0  0.00016173442519828562  0.4995963358628045  0.03875012553141485  1.0000
  C   C61       1.0  0.9985018617108277  0.810782038774377  0.18646871846723892  1.0000
  C   C62       1.0  0.004248440228117577  0.1864651084148362  0.8107805606891318  1.0000
  C   C63       1.0  0.9365330066125561  0.8513806994756834  0.14710058910438284  1.0000
  C   C64       1.0  0.9365921825717288  0.9243814578469909  0.07547261492602073  1.0000
  C   C65       1.0  0.06498695583540844  0.1470942340812513  0.8513793554780306  1.0000
  C   C66       1.0  0.0635549877880592  0.0754687369160792  0.9243804996032736  1.0000
  C   C67       1.0  0.9406875725733955  0.14952631995912205  0.848704570587664  1.0000
  C   C68       1.0  0.9382941718835056  0.07799793897120101  0.9217838582629695  1.0000
  C   C69       1.0  0.061077959711823754  0.848702975427777  0.149531480340805  1.0000
  C   C70       1.0  0.061920897117516936  0.9217835339478169  0.07800110592113892  1.0000
  C   C71       1.0  0.9995970960745663  0.961489850752173  0.03874941268824025  1.0000
  C   C72       1.0  0.00016435906755420758  0.038745335204772996  0.9614908054512483  1.0000
  C   C73       1.0  0.3107818816903531  0.49850186515578787  0.5042473440738249  1.0000
  C   C74       1.0  0.6864646571440713  0.5042483327875971  0.4985064809576301  1.0000
  C   C75       1.0  0.35138247106796416  0.43653293131507104  0.5649848962257735  1.0000
  C   C76       1.0  0.42438129175644673  0.43659198739640454  0.5635536786124291  1.0000
  C   C77       1.0  0.6470958759271922  0.564988863121563  0.43653868913946764  1.0000
  C   C78       1.0  0.5754704419434232  0.5635561833500872  0.436595143321554  1.0000
  C   C79       1.0  0.6495270376435939  0.440687655630299  0.5610812624287717  1.0000
  C   C80       1.0  0.5779974218805248  0.4382953771418911  0.5619242197824545  1.0000
  C   C81       1.0  0.3487045137584488  0.5610764654199797  0.4406875606734529  1.0000
  C   C82       1.0  0.4217844380716326  0.5619205832505045  0.43829310521872594  1.0000
  C   C83       1.0  0.4614905087896586  0.499598400681279  0.5001634663406378  1.0000
  C   C84       1.0  0.538747064830474  0.5001649035745288  0.4995992798663166  1.0000
  O   O1        1.0  0.7950603937591932  0.4422563832848212  0.7003335129452067  1.0000
  O   O2        1.0  0.06234550564019505  0.7003278260888804  0.44225867067751057  1.0000
  O   O3        1.0  0.20032929371457425  0.5623444802792505  0.2950680380462173  1.0000
  O   O4        1.0  0.9422496636749711  0.2950671005592013  0.5623487576652196  1.0000
  O   O5        1.0  0.062350265199107545  0.29506192861397545  0.7003346385595464  1.0000
  O   O6        1.0  0.7950625585988147  0.562348541707017  0.4422564668724717  1.0000
  O   O7        1.0  0.9422494041189112  0.7003291463584131  0.2950660847580053  1.0000
  O   O8        1.0  0.20033276335073655  0.44224962154328296  0.5623526771751486  1.0000
  O   O9        1.0  0.942227156535381  0.5623719344942725  0.700343477727415  1.0000
  O   O10       1.0  0.2003376174053598  0.29505075418698107  0.4422367939649803  1.0000
  O   O11       1.0  0.06236505141971082  0.442234066511098  0.29505202084297366  1.0000
  O   O12       1.0  0.7950475194650007  0.700345080800538  0.5623660187351402  1.0000
  O   O13       1.0  0.20363024963975815  0.2934084702430366  0.5597683217861373  1.0000
  O   O14       1.0  0.9431862869813583  0.5597629193352914  0.293413044724275  1.0000
  O   O15       1.0  0.7934112989432904  0.7036312555601184  0.44318892177666663  1.0000
  O   O16       1.0  0.05976219183715863  0.4431910153472812  0.7036311796585438  1.0000
  O   O17       1.0  0.9431684597977606  0.2933954538026242  0.7036480451014172  1.0000
  O   O18       1.0  0.20364816410230432  0.5597825498302171  0.4431663000305476  1.0000
  O   O19       1.0  0.059783739199523955  0.7036426860951154  0.29340078499141237  1.0000
  O   O20       1.0  0.7933940196707919  0.44316585419008425  0.5597903763070704  1.0000
  O   O21       1.0  0.05978409058704413  0.29339763587082507  0.44316737225246067  1.0000
  O   O22       1.0  0.7933949596388739  0.5597874196190277  0.7036461398977137  1.0000
  O   O23       1.0  0.9431591354722783  0.7036523945831518  0.5597879153636354  1.0000
  O   O24       1.0  0.20364302866828132  0.4431651267430397  0.29339738255576714  1.0000
  O   O25       1.0  0.9481407949064787  0.4481033194738656  0.44812932198177413  1.0000
  O   O26       1.0  0.1556230469141296  0.4481165260825291  0.44810918767004165  1.0000
  O   O27       1.0  0.9481168259885844  0.655625304248879  0.4481501505457287  1.0000
  O   O28       1.0  0.9480967823780656  0.448148144129469  0.6556265775727254  1.0000
  O   O29       1.0  0.03820093982147906  0.5382491215242097  0.5382411938488048  1.0000
  O   O30       1.0  0.8852980758821472  0.5382317184011496  0.5382590399193176  1.0000
  O   O31       1.0  0.03824686730632007  0.5382104334772535  0.3853010118188251  1.0000
  O   O32       1.0  0.038217755743758554  0.38530654691536625  0.5382203477509577  1.0000
  F   F1        1.0  0.3209235390203557  0.6288627451575408  0.17756364133185085  1.0000
  F   F2        1.0  0.6775703883975764  0.3726454256026058  0.8209244271635258  1.0000
  F   F3        1.0  0.12886492952642936  0.8209235869161232  0.3726505311939761  1.0000
  F   F4        1.0  0.8726476474955972  0.17756482206896587  0.6288626313248784  1.0000
  F   F5        1.0  0.32092124958315776  0.17756853653961707  0.3726436335330661  1.0000
  F   F6        1.0  0.6775659133318825  0.8209188840954694  0.6288655581828235  1.0000
  F   F7        1.0  0.8726436661352744  0.628862501167582  0.8209226359255907  1.0000
  F   F8        1.0  0.12886681934050156  0.37265135964673135  0.17756461668752616  1.0000
  F   F9        1.0  0.8726431194568103  0.8209285580578722  0.1775665142951366  1.0000
  F   F10       1.0  0.12886462782178398  0.17755814713616036  0.8209285626307122  1.0000
  F   F11       1.0  0.32093016387074147  0.3726432244567874  0.6288621342219044  1.0000
  F   F12       1.0  0.6775605305042446  0.6288658876515711  0.3726477359236213  1.0000
