data_image0
_chemical_formula_structural       Cu12Si3H72C108N24
_chemical_formula_sum              "Cu12 Si3 H72 C108 N24"
_cell_length_a       26.132886279687227
_cell_length_b       26.27307468647783
_cell_length_c       26.28884508643342
_cell_angle_alpha    89.94324397580158
_cell_angle_beta     90.55140577348547
_cell_angle_gamma    89.80030293837325

_space_group_name_H-M_alt    "P 1"
_space_group_IT_number       1

loop_
  _space_group_symop_operation_xyz
  'x, y, z'

loop_
  _atom_site_type_symbol
  _atom_site_label
  _atom_site_symmetry_multiplicity
  _atom_site_fract_x
  _atom_site_fract_y
  _atom_site_fract_z
  _atom_site_occupancy
  Cu  Cu1       1.0  0.7807482850008186  0.7842671990311986  0.8681649143495849  1.0000
  Cu  Cu2       1.0  0.8520975011737876  0.7726179574375112  0.7720811335263209  1.0000
  Cu  Cu3       1.0  0.7721788795206449  0.8645607243766735  0.7791992691986994  1.0000
  Cu  Cu4       1.0  0.7774843763189311  0.2300361243287625  0.13932802179076026  1.0000
  Cu  Cu5       1.0  0.86923873114592  0.2215026553636079  0.21786040035183166  1.0000
  Cu  Cu6       1.0  0.7700981425877131  0.1536417363086287  0.23232167956739155  1.0000
  Cu  Cu7       1.0  0.22701997325084025  0.7738346759765877  0.1419146912946943  1.0000
  Cu  Cu8       1.0  0.1395714465217779  0.7704533207583069  0.22464985127381004  1.0000
  Cu  Cu9       1.0  0.22237660328281808  0.8593716806694617  0.2268069620526348  1.0000
  Cu  Cu10      1.0  0.22680522438530912  0.22546838458046642  0.8532721449009275  1.0000
  Cu  Cu11      1.0  0.1387425377392475  0.22171586834934942  0.7695785632908072  1.0000
  Cu  Cu12      1.0  0.22494561370523775  0.13537840155036923  0.7730096273269499  1.0000
  Si  Si1       1.0  0.9950317300412053  0.9930891937947168  0.49934859528293896  1.0000
  Si  Si2       1.0  0.004587859968644602  0.4995530473545386  0.9939582610427424  1.0000
  Si  Si3       1.0  0.49967343513993984  0.002153578528044901  0.007634340669170602  1.0000
  H   H1        1.0  0.8234977166305129  0.6962706951020936  0.9380036903792047  1.0000
  H   H2        1.0  0.9132177169267448  0.6716687112560538  0.8023693056090482  1.0000
  H   H3        1.0  0.6765422796093218  0.929632269191032  0.8158816254957985  1.0000
  H   H4        1.0  0.6910904610456259  0.8206636133538087  0.9390962977646071  1.0000
  H   H5        1.0  0.9106048066196523  0.8031115057813027  0.6717161933902747  1.0000
  H   H6        1.0  0.8065414947126684  0.9309785227707222  0.6856418700571043  1.0000
  H   H7        1.0  0.811249218282157  0.3267421432779258  0.07565025012721092  1.0000
  H   H8        1.0  0.9414351634031349  0.3094837436285758  0.17762226071988615  1.0000
  H   H9        1.0  0.6703515513278758  0.09240901917399923  0.2019010422799781  1.0000
  H   H10       1.0  0.6878480075290272  0.18869445484083505  0.06934053006026632  1.0000
  H   H11       1.0  0.941633791204744  0.17325134877760462  0.30242900063465333  1.0000
  H   H12       1.0  0.7996482866131347  0.09497228968856321  0.33371088935289356  1.0000
  H   H13       1.0  0.1955078845215539  0.6803288955821005  0.07285411715871251  1.0000
  H   H14       1.0  0.07621193869815811  0.6746669111046801  0.18598616580499083  1.0000
  H   H15       1.0  0.3148767023360152  0.9293980232141267  0.1928940973820517  1.0000
  H   H16       1.0  0.3222937046639274  0.8105251430570917  0.07904017368610991  1.0000
  H   H17       1.0  0.07092459065427188  0.8026344419311614  0.31800276684990086  1.0000
  H   H18       1.0  0.1839804714404281  0.9228412545437551  0.321392358793169  1.0000
  H   H19       1.0  0.1942569343478127  0.32371735352844416  0.9145627320205991  1.0000
  H   H20       1.0  0.07188262559660072  0.31720421295527496  0.8024310113140704  1.0000
  H   H21       1.0  0.31753136746149113  0.06800898367690421  0.8138094216343463  1.0000
  H   H22       1.0  0.31948451537809314  0.19095820837362965  0.9235132639049015  1.0000
  H   H23       1.0  0.0701364690020938  0.18180901237958125  0.6781889791737898  1.0000
  H   H24       1.0  0.18923097449123114  0.06670675853854392  0.6804023710082987  1.0000
  H   H25       1.0  0.8716531962130036  0.6355300838596991  0.9796683112688316  1.0000
  H   H26       1.0  0.9460498869446994  0.596955725297697  0.8389866998115852  1.0000
  H   H27       1.0  0.9948506975078646  0.5298126082309197  0.8831278520676522  1.0000
  H   H28       1.0  0.920155725951048  0.5684754868246531  0.0235886622311767  1.0000
  H   H29       1.0  0.9885524728109801  0.35899982445078393  0.11990552267739224  1.0000
  H   H30       1.0  0.8457046290287807  0.4086360767100388  0.05260244304400891  1.0000
  H   H31       1.0  0.8913234273261992  0.47435611841109465  0.0043894867988925005  1.0000
  H   H32       1.0  0.0339049056045084  0.4253759472713484  0.07288141809875272  1.0000
  H   H33       1.0  0.13449661858754783  0.636471802375731  0.01788387216646471  1.0000
  H   H34       1.0  0.060830567878447504  0.5870753473036886  0.1553229410779764  1.0000
  H   H35       1.0  0.013255120010505501  0.5223450150842768  0.10653114998550005  1.0000
  H   H36       1.0  0.08807138161110832  0.5711789206046519  0.9693451812504891  1.0000
  H   H37       1.0  0.022206900932687304  0.3663074738821948  0.8605915877147158  1.0000
  H   H38       1.0  0.1636189705975966  0.40887857165191843  0.9347691467336008  1.0000
  H   H39       1.0  0.1177027886226512  0.473761461236336  0.9841501695557044  1.0000
  H   H40       1.0  0.9766247573774012  0.4318197129464921  0.9088446091474653  1.0000
  H   H41       1.0  0.6265249007344309  0.8619680175527124  0.9816603566969849  1.0000
  H   H42       1.0  0.6060201735317818  0.9645304878540275  0.8547119561820227  1.0000
  H   H43       1.0  0.5384257153585281  0.0094162450274666  0.9010348023244749  1.0000
  H   H44       1.0  0.5588559432642768  0.9067514983921614  0.027832560263497907  1.0000
  H   H45       1.0  0.39134465706797533  0.154227661717421  0.9622584176220601  1.0000
  H   H46       1.0  0.3765159279305905  0.024314391317439305  0.8629097503939323  1.0000
  H   H47       1.0  0.4429806098752067  0.9796065471638472  0.9120050529753317  1.0000
  H   H48       1.0  0.4577435743617428  0.10923405103253005  0.011565030987192403  1.0000
  H   H49       1.0  0.6034535897349542  0.05094992652885821  0.16195310670799054  1.0000
  H   H50       1.0  0.6239311482108433  0.14420848210815512  0.028533745064599703  1.0000
  H   H51       1.0  0.5579975333253914  0.09512480752069051  0.9835652945705109  1.0000
  H   H52       1.0  0.5377391765298398  0.0015672728488880005  0.11674988746223393  1.0000
  H   H53       1.0  0.37606458366871465  0.9746739685612342  0.14858541410351486  1.0000
  H   H54       1.0  0.39522725724749813  0.8476492941357493  0.0464641446090823  1.0000
  H   H55       1.0  0.46181105815794876  0.8945781812072583  0.0011071216534333  1.0000
  H   H56       1.0  0.4427761627252451  0.021375694948119407  0.10340901159438694  1.0000
  H   H57       1.0  0.8637127850446263  0.9777048056240363  0.6345488877936207  1.0000
  H   H58       1.0  0.9319487853156972  0.8355311391412319  0.5885259797637161  1.0000
  H   H59       1.0  0.9818437701500216  0.8806383581330909  0.5238546549725243  1.0000
  H   H60       1.0  0.9124310902996413  0.022542530991053408  0.5692710576402649  1.0000
  H   H61       1.0  0.0160653547892196  0.8632843187290931  0.3627039611245877  1.0000
  H   H62       1.0  0.15550027545027942  0.9376341208970732  0.40982644478494035  1.0000
  H   H63       1.0  0.1081531567775329  0.984666825506132  0.4753302360121553  1.0000
  H   H64       1.0  0.9689853505373593  0.909257404974369  0.4287042157640146  1.0000
  H   H65       1.0  0.05190810838591631  0.15202753842285693  0.5907367459097304  1.0000
  H   H66       1.0  0.12583336803643158  0.012572453119275902  0.6378683448978963  1.0000
  H   H67       1.0  0.0783113750482016  0.9657774244820135  0.5719258335062349  1.0000
  H   H68       1.0  0.003352479247944001  0.10501190738943934  0.5253062171822622  1.0000
  H   H69       1.0  0.8379749750042436  0.0598759844591683  0.4071295536809104  1.0000
  H   H70       1.0  0.9830347014035469  0.1215577960237795  0.3605583873716114  1.0000
  H   H71       1.0  0.026605902955950004  0.07129810553880842  0.4264561101001193  1.0000
  H   H72       1.0  0.8817864023215664  0.009015796463934604  0.4728552616550915  1.0000
  C   C1        1.0  0.8416793404024786  0.696836279151171  0.9010833770949136  1.0000
  C   C2        1.0  0.8792233707592347  0.6644667171446061  0.8808180207823852  1.0000
  C   C3        1.0  0.8872238712831618  0.6841964137773148  0.8317932230629952  1.0000
  C   C4        1.0  0.686630490362994  0.8992287238697045  0.8421008065363653  1.0000
  C   C5        1.0  0.6644713337383196  0.8855035166564633  0.8886382817783984  1.0000
  C   C6        1.0  0.6940868254368484  0.8437621086130279  0.9050445008254402  1.0000
  C   C7        1.0  0.8811616839769983  0.8304800001724646  0.6816260762680174  1.0000
  C   C8        1.0  0.8688408873260232  0.8775893729155444  0.6591625794992171  1.0000
  C   C9        1.0  0.8285135981407166  0.8959981792833674  0.6890613089264691  1.0000
  C   C10       1.0  0.8391173541230758  0.31618400609988845  0.10468396753012142  1.0000
  C   C11       1.0  0.8874368243025544  0.3369777588871372  0.11574438979579332  1.0000
  C   C12       1.0  0.9057748428921998  0.3069519232609396  0.15632617950862485  1.0000
  C   C13       1.0  0.6809921166387766  0.12013617488569393  0.17332913597063282  1.0000
  C   C14       1.0  0.6601989285796606  0.12897541461956047  0.12459509411677773  1.0000
  C   C15       1.0  0.6898823378044272  0.169189270108582  0.10569362452834953  1.0000
  C   C16       1.0  0.903099469046474  0.15811855856890136  0.30365227580752935  1.0000
  C   C17       1.0  0.8815837957152656  0.12240795847222331  0.3370300269069163  1.0000
  C   C18       1.0  0.8306514943253019  0.11838045959571993  0.31980865944374426  1.0000
  C   C19       1.0  0.1697476772954474  0.6857971417769805  0.10452716064498453  1.0000
  C   C20       1.0  0.125739398653792  0.6585187071872411  0.11794553299639433  1.0000
  C   C21       1.0  0.10937206874093161  0.6824612265432324  0.1627426560294296  1.0000
  C   C22       1.0  0.31012546177203154  0.896350754786454  0.16863365421177434  1.0000
  C   C23       1.0  0.3378737914706917  0.8812077093575754  0.12562610032605193  1.0000
  C   C24       1.0  0.3140909113315402  0.8356220654565979  0.11069851714970722  1.0000
  C   C25       1.0  0.1024756846231867  0.8286393479113914  0.3119567572694565  1.0000
  C   C26       1.0  0.1162708681196065  0.8727875721595953  0.3388635898148138  1.0000
  C   C27       1.0  0.16063511640168573  0.8894948797091974  0.3141824960856782  1.0000
  C   C28       1.0  0.16830742807191976  0.3156509121096748  0.883158797719908  1.0000
  C   C29       1.0  0.12235788788647992  0.3399177448245681  0.868830703076185  1.0000
  C   C30       1.0  0.10552757472818543  0.3118754888623911  0.8263756450053564  1.0000
  C   C31       1.0  0.31155237412351516  0.10191408130042133  0.8365316422013864  1.0000
  C   C32       1.0  0.3372858930435072  0.11852477234360488  0.8806707518101293  1.0000
  C   C33       1.0  0.3127475576847091  0.16470619396320532  0.8923661481493356  1.0000
  C   C34       1.0  0.10355042992992482  0.1580252111858869  0.6849612826262332  1.0000
  C   C35       1.0  0.1186890130267315  0.11287429628175973  0.6606729478813594  1.0000
  C   C36       1.0  0.16382611322497814  0.098811125083337  0.686638448863775  1.0000
  C   C37       1.0  0.8982864887476512  0.6121544567248307  0.9580262763735096  1.0000
  C   C38       1.0  0.9054766954243053  0.6220478463108919  0.9059275247324908  1.0000
  C   C39       1.0  0.9400695393979746  0.5908677729873304  0.8795642570156236  1.0000
  C   C40       1.0  0.9675641469018147  0.5526460840684139  0.90459062971906  1.0000
  C   C41       1.0  0.9615652480878011  0.5435650751296067  0.9568550893300344  1.0000
  C   C42       1.0  0.9258310420920138  0.5739700059830071  0.9828119023402524  1.0000
  C   C43       1.0  0.9668207573030969  0.38477288165940143  0.09526253091321021  1.0000
  C   C44       1.0  0.9135987061976466  0.37838788362666537  0.08966995244327342  1.0000
  C   C45       1.0  0.8871260523524782  0.4120016853895693  0.057042367821203824  1.0000
  C   C46       1.0  0.913030739513282  0.4494965667755153  0.030048896021945406  1.0000
  C   C47       1.0  0.9662837113503785  0.4554245172980985  0.0348432059348198  1.0000
  C   C48       1.0  0.9923996747686135  0.4223897892294276  0.06844991783448512  1.0000
  C   C49       1.0  0.10863639692266251  0.6108224139075845  0.037700409460818214  1.0000
  C   C50       1.0  0.10081799821091411  0.6171314399587902  0.0902305140711732  1.0000
  C   C51       1.0  0.0667092668595757  0.5838717354956487  0.11439639338011184  1.0000
  C   C52       1.0  0.040155115226859606  0.54698916788346  0.08677377317983574  1.0000
  C   C53       1.0  0.046791695879377905  0.5414275575072339  0.034084623632203714  1.0000
  C   C54       1.0  0.08213808375688811  0.5738646378204209  0.010363714152440204  1.0000
  C   C55       1.0  0.0436244345536352  0.3903601803730368  0.887015369115183  1.0000
  C   C56       1.0  0.09641178161419357  0.3819219364107483  0.8944515247750008  1.0000
  C   C57       1.0  0.1224446390773295  0.41357686780620645  0.9291057263848688  1.0000
  C   C58       1.0  0.0964007210953852  0.45061356488866994  0.9567676360790573  1.0000
  C   C59       1.0  0.0434064760055932  0.45805992433760423  0.9506645536716081  1.0000
  C   C60       1.0  0.0178972702976239  0.42750818385049894  0.9145405149737232  1.0000
  C   C61       1.0  0.6071424640280726  0.8941691012771075  0.963546299322893  1.0000
  C   C62       1.0  0.6220876114085528  0.9101397715418716  0.9147943814024942  1.0000
  C   C63       1.0  0.5958426638063729  0.9515634127119698  0.8927271785477731  1.0000
  C   C64       1.0  0.5573718763197348  0.9768216919896063  0.918962384705303  1.0000
  C   C65       1.0  0.5431369500873159  0.9617758379902669  0.968142339348603  1.0000
  C   C66       1.0  0.5686573186193158  0.9195601326634063  0.9895966956733349  1.0000
  C   C67       1.0  0.40251639768539604  0.11586874140923703  0.9508795566054292  1.0000
  C   C68       1.0  0.3784121952120501  0.09281417836874792  0.9087672078295983  1.0000
  C   C69       1.0  0.39443224225510687  0.04347645411953491  0.8952546452810285  1.0000
  C   C70       1.0  0.4321617017636754  0.018172225075822706  0.923202023945372  1.0000
  C   C71       1.0  0.4558845881888089  0.040825524025265715  0.9657495364338973  1.0000
  C   C72       1.0  0.4402773892226648  0.09034488357603011  0.9787476578971523  1.0000
  C   C73       1.0  0.5934918904384504  0.06109165504818751  0.12282291249744763  1.0000
  C   C74       1.0  0.6190758928752018  0.10138774794714323  0.09879828911484623  1.0000
  C   C75       1.0  0.6048254207844436  0.11324309395799052  0.048378565443300714  1.0000
  C   C76       1.0  0.5673332269749737  0.0853943526547951  0.023004445316310306  1.0000
  C   C77       1.0  0.5421935411960845  0.04453660998972711  0.046630459087005215  1.0000
  C   C78       1.0  0.5560751509685603  0.03321963818792281  0.09717679884968793  1.0000
  C   C79       1.0  0.39503735673248735  0.9565664886884806  0.11651093304364933  1.0000
  C   C80       1.0  0.379915874374639  0.9076317532560199  0.10080109036658773  1.0000
  C   C81       1.0  0.4055228937714617  0.8857850881087759  0.059311429825356816  1.0000
  C   C82       1.0  0.44344922672947723  0.9123844855003544  0.03375571974876121  1.0000
  C   C83       1.0  0.45777000662609174  0.9617815129713921  0.048557727144405816  1.0000
  C   C84       1.0  0.4329591544269037  0.982968299020769  0.09085313091433991  1.0000
  C   C85       1.0  0.888905693423986  0.9559631935231325  0.6097569281952533  1.0000
  C   C86       1.0  0.8945516080397128  0.9031493747670893  0.6171859235182426  1.0000
  C   C87       1.0  0.9276589241407862  0.8766900225401602  0.584597494820905  1.0000
  C   C88       1.0  0.9555856997575776  0.9023026989097859  0.5476430756603039  1.0000
  C   C89       1.0  0.9513425775910207  0.955257572974887  0.5411815418816774  1.0000
  C   C90       1.0  0.916708954811938  0.9812800048826632  0.5727131233410037  1.0000
  C   C91       1.0  0.03669807920474711  0.8891945798485068  0.38795564258491316  1.0000
  C   C92       1.0  0.0893381395418373  0.8973914431142661  0.3807092735571019  1.0000
  C   C93       1.0  0.11442056783857171  0.9315053614117307  0.4136598488747154  1.0000
  C   C94       1.0  0.08756593078690861  0.9577943854332674  0.45102026920648114  1.0000
  C   C95       1.0  0.034691911053542406  0.9508781937318318  0.4574322499409434  1.0000
  C   C96       1.0  0.0101455499418748  0.9154434903571205  0.4253710881449636  1.0000
  C   C97       1.0  0.057588984152822306  0.11102444793090174  0.586928107358567  1.0000
  C   C98       1.0  0.09227346604957629  0.08585323723823993  0.6196139371322007  1.0000
  C   C99       1.0  0.09964282599625561  0.033221660654831515  0.6126140592708398  1.0000
  C   C100      1.0  0.07248754810782292  0.006850950922668601  0.575317949712023  1.0000
  C   C101      1.0  0.03688323637639  0.03164454646639571  0.5431766571771561  1.0000
  C   C102      1.0  0.0304264871734929  0.08437056706327441  0.5496722654269421  1.0000
  C   C103      1.0  0.8794738083060096  0.06266104052739511  0.4111776972515815  1.0000
  C   C104      1.0  0.9069630301497825  0.09449555503154979  0.3782859566211698  1.0000
  C   C105      1.0  0.9603510070421776  0.09742373015910742  0.385428926302744  1.0000
  C   C106      1.0  0.9849798733996735  0.06885042824129071  0.4229284242275499  1.0000
  C   C107      1.0  0.9577767151411722  0.036044908862201915  0.4552315766236888  1.0000
  C   C108      1.0  0.9043996532615709  0.033991641994866505  0.4486626387230857  1.0000
  N   N1        1.0  0.8569075217999684  0.7251197251243084  0.8237637829259798  1.0000
  N   N2        1.0  0.8285766776022712  0.7328482568268557  0.8668161129442782  1.0000
  N   N3        1.0  0.7309007360393807  0.8336760170931756  0.8709489982022875  1.0000
  N   N4        1.0  0.7263053829104963  0.868101719187486  0.8318527793931383  1.0000
  N   N5        1.0  0.817916361701464  0.8625039801202166  0.7263510670332353  1.0000
  N   N6        1.0  0.8507299145605104  0.8218182677589428  0.7218547326515152  1.0000
  N   N7        1.0  0.8710965533101742  0.27112452966530043  0.16826796075564948  1.0000
  N   N8        1.0  0.8297571843310934  0.27675667145778254  0.13607065060324433  1.0000
  N   N9        1.0  0.7254812892622128  0.18290991077171984  0.14042979809661926  1.0000
  N   N10       1.0  0.7200121514735045  0.15239271315798672  0.18246967987506227  1.0000
  N   N11       1.0  0.8227458450478623  0.14908463203526884  0.27934090059672206  1.0000
  N   N12       1.0  0.867763021101439  0.1738808572575721  0.2693947900858334  1.0000
  N   N13       1.0  0.14107851167887023  0.7211120959818232  0.1747714208343041  1.0000
  N   N14       1.0  0.17869219274497544  0.723036652622895  0.13869744948934942  1.0000
  N   N15       1.0  0.275264124174889  0.8247841000588496  0.14224111224547906  1.0000
  N   N16       1.0  0.27281464318641474  0.8624781433654364  0.17829401496967281  1.0000
  N   N17       1.0  0.1721011547546638  0.8578240732739817  0.27555967800650905  1.0000
  N   N18       1.0  0.1360701914152429  0.8198931688825652  0.27429779591638953  1.0000
  N   N19       1.0  0.1388135441344573  0.2738983253334056  0.8164807498818193  1.0000
  N   N20       1.0  0.1777527502708836  0.2761534254110175  0.8518670292206425  1.0000
  N   N21       1.0  0.27538804755169366  0.17453580835421434  0.8579798921040123  1.0000
  N   N22       1.0  0.2746579005566119  0.13550982291362607  0.8232640071846478  1.0000
  N   N23       1.0  0.1745511884768334  0.13295850046435487  0.7234747310995718  1.0000
  N   N24       1.0  0.13699290345225282  0.16966921121076686  0.7225366921265252  1.0000
