data_image0
_chemical_formula_structural       Al2H9C20S2NCl2O10
_chemical_formula_sum              "Al2 H9 C20 S2 N1 Cl2 O10"
_cell_length_a       6.63166856583877
_cell_length_b       11.14955820070477
_cell_length_c       12.484476872382723
_cell_angle_alpha    79.18669777232364
_cell_angle_beta     78.38091020485813
_cell_angle_gamma    72.08125172721141

_space_group_name_H-M_alt    "P 1"
_space_group_IT_number       1

loop_
  _space_group_symop_operation_xyz
  'x, y, z'

loop_
  _atom_site_type_symbol
  _atom_site_label
  _atom_site_symmetry_multiplicity
  _atom_site_fract_x
  _atom_site_fract_y
  _atom_site_fract_z
  _atom_site_occupancy
  Al  Al1       1.0  0.49058487860882155  0.497153067820946  0.5049275075826927  1.0000
  Al  Al2       1.0  0.98563656762434  0.5018363460755852  0.5064700793217937  1.0000
  H   H1        1.0  0.29247222443925847  0.3403268927497365  0.559406416897147  1.0000
  H   H2        1.0  0.7469672007154318  0.5858929118766909  0.37308991558781196  1.0000
  H   H3        1.0  0.6536892627872605  0.5752334264115078  0.15897517225882038  1.0000
  H   H4        1.0  0.2384713545916313  0.24744079649467918  0.3643337498904415  1.0000
  H   H5        1.0  0.4743829428946215  0.7764021981450712  0.3851399650066439  1.0000
  H   H6        1.0  0.7505586193345767  0.8719659707270747  0.5747106977041767  1.0000
  H   H7        1.0  0.6329792965777727  0.10863991205363274  0.5679255588027843  1.0000
  H   H8        1.0  0.1232387221795365  0.43885101954261063  0.8810917167957155  1.0000
  H   H9        1.0  0.28953344188845886  0.43921902201001467  0.7538442281781242  1.0000
  C   C1        1.0  0.8547975791355072  0.2725004251363075  0.4921721980470223  1.0000
  C   C2        1.0  0.6699215288162039  0.4958145355936522  0.7012494139558356  1.0000
  C   C3        1.0  0.13377426932188305  0.7243270270314071  0.5062922604609594  1.0000
  C   C4        1.0  0.30099498201560243  0.5153790736275708  0.3052930595240184  1.0000
  C   C5        1.0  0.4078107864081631  0.4776525084194247  0.8774789556344584  1.0000
  C   C6        1.0  0.540801376995447  0.5476993525372149  0.12328303743099407  1.0000
  C   C7        1.0  0.5954817178918503  0.505808549851558  0.816488893552737  1.0000
  C   C8        1.0  0.36058662885714193  0.5179137014764521  0.1855068225553183  1.0000
  C   C9        1.0  0.5562347241922156  0.5355278700044791  0.011479698092706795  1.0000
  C   C10       1.0  0.3887649855737864  0.49557328567342296  0.98998630391263  1.0000
  C   C11       1.0  0.9350611390186786  0.133294952776204  0.4843328146265193  1.0000
  C   C12       1.0  0.14658274863113263  0.0738686073492261  0.43237580842775  1.0000
  C   C13       1.0  0.7954182020352292  0.060889430507785385  0.5319920649707015  1.0000
  C   C14       1.0  0.28723683273795325  0.14423760326321397  0.37057309073303907  1.0000
  C   C15       1.0  0.48497178627606985  0.0846113438816758  0.31544475981849723  1.0000
  C   C16       1.0  0.06924056456608006  0.8661511746006808  0.4937154435948016  1.0000
  C   C17       1.0  0.8613884564334031  0.9279970037380992  0.5364044718014113  1.0000
  C   C18       1.0  0.21481680244211537  0.9375832561421829  0.4376399673111493  1.0000
  C   C19       1.0  0.4195841423585948  0.8791648771192727  0.38111925703471167  1.0000
  C   C20       1.0  0.5518733099199339  0.9498784229202568  0.32060360817703076  1.0000
  S   S1        1.0  0.738036556237333  0.5560795733151449  0.8947064197344544  1.0000
  S   S2        1.0  0.20924220118952527  0.4751783103932396  0.1080478781310248  1.0000
  N   N1        1.0  0.2712050603404991  0.4353630543510078  0.8373752320691705  1.0000
  Cl  Cl1       1.0  0.6479225076308593  0.17440124678773827  0.23952533124073483  1.0000
  Cl  Cl2       1.0  0.7958749014051067  0.8733651973749158  0.2503021041604754  1.0000
  O   O1        1.0  0.659127744761726  0.3263582844184754  0.4808762627445872  1.0000
  O   O2        1.0  0.8497858033182127  0.5162334512115834  0.6555009631602999  1.0000
  O   O3        1.0  0.9968288157435196  0.6725319074856485  0.491944485273386  1.0000
  O   O4        1.0  0.4359793615493571  0.5353043992855077  0.3550125749986535  1.0000
  O   O5        1.0  0.3195046244966593  0.6649368397712578  0.5305537416817926  1.0000
  O   O6        1.0  0.12261977701369631  0.4937417995316054  0.3507626961281431  1.0000
  O   O7        1.0  0.9840675176403125  0.326177438267912  0.5135188578515084  1.0000
  O   O8        1.0  0.5481663698409777  0.4635093629723101  0.6501316186458367  1.0000
  O   O9        1.0  0.25318260638240286  0.43252152925359855  0.5531242106932481  1.0000
  O   O10       1.0  0.7271725471055176  0.5601717119678256  0.452237967127374  1.0000
