data_image0
_chemical_formula_structural       Na4Ca2H52C40O34
_chemical_formula_sum              "Na4 Ca2 H52 C40 O34"
_cell_length_a       9.431575092586757
_cell_length_b       10.513868981181995
_cell_length_c       14.163944739013589
_cell_angle_alpha    102.50936104919091
_cell_angle_beta     104.80703115604742
_cell_angle_gamma    91.63705282321484

_space_group_name_H-M_alt    "P 1"
_space_group_IT_number       1

loop_
  _space_group_symop_operation_xyz
  'x, y, z'

loop_
  _atom_site_type_symbol
  _atom_site_label
  _atom_site_symmetry_multiplicity
  _atom_site_fract_x
  _atom_site_fract_y
  _atom_site_fract_z
  _atom_site_occupancy
  Na  Na1       1.0  0.8692848538235367  0.4423848327301983  0.6233064964097325  1.0000
  Na  Na2       1.0  0.1307197890366396  0.5576161437069729  0.3766934500885882  1.0000
  Na  Na3       1.0  0.91753813334946  0.8279781530215898  0.8966667135720172  1.0000
  Na  Na4       1.0  0.08245782689811422  0.1720238063991957  0.1033333041799906  1.0000
  Ca  Ca1       1.0  0.3664415233198355  0.14301818771440372  0.7641139899669585  1.0000
  Ca  Ca2       1.0  0.6335613169064659  0.8569866939619571  0.23588555114241666  1.0000
  H   H1        1.0  0.747066235405825  0.16489816469476176  0.101434561454866  1.0000
  H   H2        1.0  0.25292635310261596  0.835092083881406  0.8985665739982736  1.0000
  H   H3        1.0  0.7618297910077629  0.3404042629636663  0.2509065679664815  1.0000
  H   H4        1.0  0.23816937806746807  0.6595859903794263  0.7490957009860538  1.0000
  H   H5        1.0  0.5640296528542237  0.49559750916001394  0.24977431735096897  1.0000
  H   H6        1.0  0.4359779697740436  0.5044005746296706  0.7502306317727517  1.0000
  H   H7        1.0  0.3642244959815883  0.4814148610585107  0.0983164311159683  1.0000
  H   H8        1.0  0.6357860049175984  0.5185900598658366  0.9016886710098648  1.0000
  H   H9        1.0  0.28742524599584846  0.4937160563186325  0.938590508348682  1.0000
  H   H10       1.0  0.7125756668100465  0.5062918086305715  0.06141552198648981  1.0000
  H   H11       1.0  0.15407038565138723  0.3814853358806546  0.9553920797788679  1.0000
  H   H12       1.0  0.8459335374568511  0.6185195746623436  0.04461118241414394  1.0000
  H   H13       1.0  0.7449411506633085  0.07678869258363362  0.939657808935408  1.0000
  H   H14       1.0  0.2550539207586199  0.9232151941918264  0.060338827171762054  1.0000
  H   H15       1.0  0.6342293534375187  0.9787662057670798  0.9862584538597688  1.0000
  H   H16       1.0  0.36576980561699207  0.0212347666976598  0.013740548055714898  1.0000
  H   H17       1.0  0.044525876038733314  0.810958540353113  0.44912643424883925  1.0000
  H   H18       1.0  0.9554707873057351  0.1890395186484284  0.5508745064089595  1.0000
  H   H19       1.0  0.0771935347237687  0.7987960852531941  0.2802614969696222  1.0000
  H   H20       1.0  0.9227991563644906  0.20119513020477345  0.7197383953360871  1.0000
  H   H21       1.0  0.25820972337675835  0.9590127981374793  0.2557012317967775  1.0000
  H   H22       1.0  0.7417827958619442  0.0409764161837529  0.7442926696028209  1.0000
  H   H23       1.0  0.40742583078316846  0.1244999284902164  0.3976582263616848  1.0000
  H   H24       1.0  0.5925679792729426  0.8754912428467991  0.6023362033932785  1.0000
  H   H25       1.0  0.44748281151660063  0.3166222234238987  0.5441913865054391  1.0000
  H   H26       1.0  0.5525148709917431  0.6833748189604664  0.45580462831562585  1.0000
  H   H27       1.0  0.5724886865513739  0.19122674324664496  0.5449203171873265  1.0000
  H   H28       1.0  0.4275036341620152  0.8087712227460812  0.4550685648695776  1.0000
  H   H29       1.0  0.9910730820264605  0.8872063103109441  0.5880484826278264  1.0000
  H   H30       1.0  0.008926348681583804  0.11279763578674824  0.4119559734797634  1.0000
  H   H31       1.0  0.1473592045816545  0.7939008226562412  0.6129415459541578  1.0000
  H   H32       1.0  0.8526411316070863  0.2061011624002091  0.38706205319777354  1.0000
  H   H33       1.0  0.9181329447040484  0.7298171702298932  0.6740733543325703  1.0000
  H   H34       1.0  0.0818706984231312  0.2701847835234403  0.3259265729685836  1.0000
  H   H35       1.0  0.7500836728965155  0.6895536756266979  0.6272836951675631  1.0000
  H   H36       1.0  0.2499199785581823  0.3104482612833479  0.3727141128333429  1.0000
  H   H37       1.0  0.6534713942133835  0.35471338746105374  0.39502058915390853  1.0000
  H   H38       1.0  0.3465243636503956  0.6452866325817227  0.6049812084595417  1.0000
  H   H39       1.0  0.7932573488831808  0.45619733072194896  0.4247541366668415  1.0000
  H   H40       1.0  0.20674041954994488  0.5438007122307909  0.5752448736072893  1.0000
  H   H41       1.0  0.05612422685414491  0.8524438227655723  0.11067262690829695  1.0000
  H   H42       1.0  0.943871639141129  0.1475571529301405  0.8893265146909004  1.0000
  H   H43       1.0  0.9208102283803896  0.9325371581440223  0.11396131423255437  1.0000
  H   H44       1.0  0.0791892162068635  0.0674667598815191  0.8860396097079575  1.0000
  H   H45       1.0  0.0851160966219666  0.630308642054203  0.9862763107922137  1.0000
  H   H46       1.0  0.9148832481613098  0.36969430347512144  0.013725149862317198  1.0000
  H   H47       1.0  0.007849953895224391  0.5584758295195799  0.8757456706891419  1.0000
  H   H48       1.0  0.992153783484248  0.4415271079588336  0.1242551327648229  1.0000
  H   H49       1.0  0.1219716745861277  0.3568361672539596  0.5069844835300685  1.0000
  H   H50       1.0  0.8780305779196595  0.6431628569873667  0.4930154521297255  1.0000
  H   H51       1.0  0.1462531723151272  0.356103214547538  0.6248507513488591  1.0000
  H   H52       1.0  0.8537501769517917  0.6438958104882815  0.375149373227508  1.0000
  C   C1        1.0  0.4424360593633381  0.315811617901808  0.010823735396115782  1.0000
  C   C2        1.0  0.5575676752402998  0.6841913251910299  0.9891777744912674  1.0000
  C   C3        1.0  0.549507664464116  0.22437685522455553  0.01310343608905381  1.0000
  C   C4        1.0  0.45048817654860335  0.7756241710010201  0.9869020634108665  1.0000
  C   C5        1.0  0.6639220357590716  0.23426995749498047  0.09919934227767163  1.0000
  C   C6        1.0  0.3360776156810132  0.7657251920157861  0.9008044817052863  1.0000
  C   C7        1.0  0.6702758284966136  0.3328847221025982  0.18459897898939903  1.0000
  C   C8        1.0  0.3297281185115395  0.667109441246609  0.8154040180736006  1.0000
  C   C9        1.0  0.5615587387989578  0.4192602512180201  0.18375167832369496  1.0000
  C   C10       1.0  0.4384444053083243  0.5807368400542147  0.8162509325475258  1.0000
  C   C11       1.0  0.4472336036514264  0.41174729501258167  0.0966321273557114  1.0000
  C   C12       1.0  0.5527754040465496  0.5882537295179661  0.9033742262761919  1.0000
  C   C13       1.0  0.2315862765454142  0.3939308790000169  0.9108764427560418  1.0000
  C   C14       1.0  0.7684236099574946  0.606078937297511  0.08913002548363383  1.0000
  C   C15       1.0  0.6334425174096766  0.0296876127028227  0.9260004474198456  1.0000
  C   C16       1.0  0.3665524542082679  0.9703153015764131  0.07399672540133648  1.0000
  C   C17       1.0  0.1504089416748329  0.3794897725389177  0.8006841289084221  1.0000
  C   C18       1.0  0.8495988566614727  0.6205210034370054  0.19932001191727977  1.0000
  C   C19       1.0  0.5940553680401877  0.9308033636053851  0.8238128070813533  1.0000
  C   C20       1.0  0.4059363132943616  0.069199548290392  0.17618379899013095  1.0000
  C   C21       1.0  0.3093685255561454  0.0655745063532933  0.5064552664319137  1.0000
  C   C22       1.0  0.6906279659387664  0.9344215515115126  0.49353968331977444  1.0000
  C   C23       1.0  0.2065767429792089  0.9754483504178993  0.5202159326617776  1.0000
  C   C24       1.0  0.7934175438900795  0.024547728315646108  0.47978146499043833  1.0000
  C   C25       1.0  0.12366177065413808  0.8802697309531452  0.4387730307718414  1.0000
  C   C26       1.0  0.8763316966592356  0.11972930939001002  0.5612282192890775  1.0000
  C   C27       1.0  0.1417249046419826  0.8745308966770085  0.34298718913173337  1.0000
  C   C28       1.0  0.8582691853951873  0.12546323144967178  0.6570105755150878  1.0000
  C   C29       1.0  0.2423368089188216  0.9631021407850897  0.32945708182258227  1.0000
  C   C30       1.0  0.757659383164153  0.0368909995910514  0.6705394780711487  1.0000
  C   C31       1.0  0.32689122433117757  0.058927814054023024  0.4108226875314146  1.0000
  C   C32       1.0  0.6731061726444312  0.9410662827695404  0.5891714052646222  1.0000
  C   C33       1.0  0.49869887216334524  0.24453266308422175  0.5852411022959529  1.0000
  C   C34       1.0  0.5012964394214946  0.7554623878032984  0.41474995665269904  1.0000
  C   C35       1.0  0.10523130487904807  0.8898570986424374  0.6338512411806434  1.0000
  C   C36       1.0  0.8947702278748082  0.11014585970472271  0.3661520101738489  1.0000
  C   C37       1.0  0.5911282592002323  0.3156452428287508  0.6906913597612815  1.0000
  C   C38       1.0  0.4088750419210215  0.6843420063727592  0.3093019720649437  1.0000
  C   C39       1.0  0.10230904908647892  0.9185939428131749  0.7426233769572124  1.0000
  C   C40       1.0  0.8976958654272309  0.08141000725694883  0.25738202373320723  1.0000
  O   O1        1.0  0.33846816352690473  0.2998742133955262  0.9196437300001181  1.0000
  O   O2        1.0  0.6615364471058313  0.7001375270787236  0.08035860092845581  1.0000
  O   O3        1.0  0.5295707995656471  0.1274574126599859  0.9264805342260305  1.0000
  O   O4        1.0  0.4704208734413839  0.8725455160790788  0.07351819114570192  1.0000
  O   O5        1.0  0.1970382221954523  0.3035073078365188  0.733996135001057  1.0000
  O   O6        1.0  0.8029739631853802  0.6965034713173496  0.26600876149092306  1.0000
  O   O7        1.0  0.4838684633585117  0.9482852218488843  0.7560634433012936  1.0000
  O   O8        1.0  0.5161238184931064  0.0517128227458485  0.2439353288234116  1.0000
  O   O9        1.0  0.0415460647759929  0.44614628461435774  0.7823845029017775  1.0000
  O   O10       1.0  0.9584591574771721  0.553860566101136  0.21761716834635783  1.0000
  O   O11       1.0  0.6804854086750964  0.842429167601438  0.8162035184439774  1.0000
  O   O12       1.0  0.31951155685715094  0.1575718032743296  0.1837951056383673  1.0000
  O   O13       1.0  0.386001743316605  0.1541891880022135  0.5923476107307835  1.0000
  O   O14       1.0  0.6139981299381603  0.8458078615855555  0.4076494883568387  1.0000
  O   O15       1.0  0.1956872666791867  0.9899314018407425  0.6169122201721181  1.0000
  O   O16       1.0  0.8043131831927398  0.010071527639780701  0.3830873100987376  1.0000
  O   O17       1.0  0.5650716902961364  0.2811374883788035  0.7658570575614831  1.0000
  O   O18       1.0  0.43494426014224524  0.7188556326115217  0.23413866422997387  1.0000
  O   O19       1.0  0.1736466657625613  0.021349344654169003  0.8033856175248817  1.0000
  O   O20       1.0  0.8263520674002791  0.9786584906339187  0.19661650281008747  1.0000
  O   O21       1.0  0.6857407523629391  0.4027334047007045  0.6920103097292627  1.0000
  O   O22       1.0  0.31426115089205103  0.597261628496021  0.3079790569851327  1.0000
  O   O23       1.0  0.025369923028712476  0.835712956274115  0.7659733021279679  1.0000
  O   O24       1.0  0.9746305074123287  0.1642900125074149  0.2340311731767813  1.0000
  O   O25       1.0  0.8452493129529941  0.6649524763154703  0.617925940293823  1.0000
  O   O26       1.0  0.1547543357258618  0.33504946620900006  0.3820725741405013  1.0000
  O   O27       1.0  0.7476232007354539  0.38280815345008534  0.44461807577239654  1.0000
  O   O28       1.0  0.2523746619499718  0.6171908732277345  0.555381810654545  1.0000
  O   O29       1.0  0.9924789750157004  0.9056478260302327  0.07289369957586439  1.0000
  O   O30       1.0  0.0075158829190655994  0.0943541438249298  0.9271075421264073  1.0000
  O   O31       1.0  0.996534907440683  0.6296166501016671  0.9328673907983642  1.0000
  O   O32       1.0  0.0034654426272595954  0.370385306882639  0.0671326761865032  1.0000
  O   O33       1.0  0.10189238898287559  0.40182703802235414  0.5706767922435247  1.0000
  O   O34       1.0  0.8981062821550977  0.5981690495035679  0.42932206750836605  1.0000
