data_image0
_chemical_formula_structural       Zn2H24C36N28O4
_chemical_formula_sum              "Zn2 H24 C36 N28 O4"
_cell_length_a       13.159430594191099
_cell_length_b       13.159431345214928
_cell_length_c       15.631365389973428
_cell_angle_alpha    109.56888905217727
_cell_angle_beta     109.56898994001813
_cell_angle_gamma    101.80334067692576

_space_group_name_H-M_alt    "P 1"
_space_group_IT_number       1

loop_
  _space_group_symop_operation_xyz
  'x, y, z'

loop_
  _atom_site_type_symbol
  _atom_site_label
  _atom_site_symmetry_multiplicity
  _atom_site_fract_x
  _atom_site_fract_y
  _atom_site_fract_z
  _atom_site_occupancy
  Zn  Zn1       1.0  0.12497315229629892  0.8750269903890456  0.24999994551589572  1.0000
  Zn  Zn2       1.0  0.8750273582326501  0.12497304641831869  0.7500002884543803  1.0000
  H   H1        1.0  0.0476900194018768  0.006916854706666699  0.0991989319579503  1.0000
  H   H2        1.0  0.4077676489318165  0.9485368893185966  0.4008080626298565  1.0000
  H   H3        1.0  0.9930826946529338  0.9523098860219577  0.4008013559914402  1.0000
  H   H4        1.0  0.0514627811306525  0.592231571189906  0.0991916167701561  1.0000
  H   H5        1.0  0.9523092084270174  0.9930818994017372  0.9008000261714526  1.0000
  H   H6        1.0  0.5922319079331615  0.05146387182537634  0.5991938037736162  1.0000
  H   H7        1.0  0.006919317933458866  0.04769277150808176  0.5992020926690954  1.0000
  H   H8        1.0  0.948534601368955  0.40776638567714224  0.9008046346782377  1.0000
  H   H9        1.0  0.24291679250405457  0.14683365533948492  0.4146555003054218  1.0000
  H   H10       1.0  0.2319855782842524  0.828188833400816  0.08535667283794623  1.0000
  H   H11       1.0  0.8531675149193346  0.757080853712509  0.08534381906137863  1.0000
  H   H12       1.0  0.17181046582484782  0.7680140558457682  0.41464288503751595  1.0000
  H   H13       1.0  0.7570803564023975  0.8531667940207299  0.5853422285769125  1.0000
  H   H14       1.0  0.7680159097486833  0.1718119365331602  0.9146453991851754  1.0000
  H   H15       1.0  0.14683473126020619  0.24291931132436415  0.9146581521652166  1.0000
  H   H16       1.0  0.8281896775922277  0.23198634697970283  0.5853543864559754  1.0000
  H   H17       1.0  0.21379972703756073  0.3263026379830053  0.36316572967214  1.0000
  H   H18       1.0  0.4629292395256925  0.8504624441605059  0.13675278848200628  1.0000
  H   H19       1.0  0.6736953408498891  0.7861963945650173  0.13683189542884824  1.0000
  H   H20       1.0  0.1495370935302062  0.5370699518571628  0.3632472552783951  1.0000
  H   H21       1.0  0.7861967017980761  0.6736960432206517  0.6368321542094436  1.0000
  H   H22       1.0  0.5370710754858906  0.14953771208637098  0.8632489771249325  1.0000
  H   H23       1.0  0.32630486448299223  0.21380309266999828  0.8631689007534007  1.0000
  H   H24       1.0  0.8504615716694487  0.46292928770884595  0.6367502720108787  1.0000
  C   C1        1.0  0.09722940591485948  0.06767110549047568  0.17839713423037298  1.0000
  C   C2        1.0  0.38925523351697666  0.9188312183437475  0.32161042173660787  1.0000
  C   C3        1.0  0.9323291853568421  0.9027695826114411  0.32160325020142727  1.0000
  C   C4        1.0  0.08116863258218386  0.6107441619038952  0.1783890425128121  1.0000
  C   C5        1.0  0.9027690637674298  0.9323282535150383  0.8216019246955567  1.0000
  C   C6        1.0  0.6107446285440616  0.08117009237257389  0.6783908824548917  1.0000
  C   C7        1.0  0.06767218587952324  0.09723243356911127  0.6783995605386721  1.0000
  C   C8        1.0  0.9188293912674438  0.38925443631263323  0.8216078468560253  1.0000
  C   C9        1.0  0.19837602067563148  0.14518755474044553  0.3418453810563378  1.0000
  C   C10       1.0  0.3031777518236396  0.8564394974908395  0.15815007602937922  1.0000
  C   C11       1.0  0.8548138878145581  0.8016222376364794  0.15815624755031615  1.0000
  C   C12       1.0  0.1435599653248545  0.6968211966734118  0.3418498975513772  1.0000
  C   C13       1.0  0.8016221366927212  0.8548131699511502  0.6581559482232251  1.0000
  C   C14       1.0  0.696822672866638  0.1435613277678839  0.8418526590022494  1.0000
  C   C15       1.0  0.14518857772237223  0.19837926542410117  0.8418476625256587  1.0000
  C   C16       1.0  0.8564383637208409  0.3031779511154726  0.6581464296054804  1.0000
  C   C17       1.0  0.18509048144189685  0.23423277920090876  0.31855085607637795  1.0000
  C   C18       1.0  0.4155116942707693  0.8663923647702418  0.18139255825282416  1.0000
  C   C19       1.0  0.7657715974396735  0.8149057066265328  0.1814470687751635  1.0000
  C   C20       1.0  0.13360744216348053  0.5844874349136617  0.31860724261355955  1.0000
  C   C21       1.0  0.8149058641242917  0.7657725633685004  0.6814486275414211  1.0000
  C   C22       1.0  0.5844897937621739  0.1336084051637344  0.8186095137702978  1.0000
  C   C23       1.0  0.2342344801178839  0.18509493378557806  0.818553551346362  1.0000
  C   C24       1.0  0.866390698482725  0.41550991705628343  0.6813889080383078  1.0000
  C   C25       1.0  0.08525647468125902  0.2460702658051019  0.1579868876786534  1.0000
  C   C26       1.0  0.587955348518605  0.9270601604923384  0.34197007331970036  1.0000
  C   C27       1.0  0.7539301704457272  0.9147431907879024  0.3420141167674799  1.0000
  C   C28       1.0  0.07293995185198549  0.4120447594878272  0.1580305527531891  1.0000
  C   C29       1.0  0.9147405955044049  0.753929056748035  0.8420116341233735  1.0000
  C   C30       1.0  0.4120452645711552  0.07294246058531678  0.6580328382169256  1.0000
  C   C31       1.0  0.24607097431536568  0.08525940262738638  0.6579884632648998  1.0000
  C   C32       1.0  0.9270572351302563  0.5879533168187265  0.8419672303318676  1.0000
  C   C33       1.0  0.003736162912645106  0.2537807213584387  0.007493384874742012  1.0000
  C   C34       1.0  0.7462192293403761  0.9962632778975404  0.4925049731906911  1.0000
  C   C35       1.0  0.9962647457689117  0.7462171613114915  0.9925020776805622  1.0000
  C   C36       1.0  0.2537831645936492  0.003735183097525403  0.5074980216633165  1.0000
  N   N1        1.0  0.14300866130507467  0.04233501600114656  0.2542928210369766  1.0000
  N   N2        1.0  0.2879813832263168  0.8887264693618206  0.24573298918812725  1.0000
  N   N3        1.0  0.9576646054782072  0.8569894756973042  0.24570572034364332  1.0000
  N   N4        1.0  0.11127348346038697  0.7120180403553179  0.2542662696283813  1.0000
  N   N5        1.0  0.8569888308732202  0.9576636098777556  0.7457043998361071  1.0000
  N   N6        1.0  0.7120204100026869  0.11127485014450379  0.7542685206230286  1.0000
  N   N7        1.0  0.042336882554728526  0.14301129423666487  0.7542963516794856  1.0000
  N   N8        1.0  0.8887250720605733  0.2879805301988368  0.7457302882362028  1.0000
  N   N9        1.0  0.12070017321568828  0.1845439448220816  0.2143455208160887  1.0000
  N   N10       1.0  0.4700920978429934  0.9062202343058843  0.2855958530249723  1.0000
  N   N11       1.0  0.8154555908468952  0.8792967253456396  0.285652132833043  1.0000
  N   N12       1.0  0.09378029848033977  0.5299084622447836  0.2144040357149137  1.0000
  N   N13       1.0  0.8792958026694038  0.8154558908510268  0.7856519016500556  1.0000
  N   N14       1.0  0.5299086320433446  0.09378114052519475  0.7144063197946834  1.0000
  N   N15       1.0  0.1845465075781616  0.12070514373304045  0.7143488147661471  1.0000
  N   N16       1.0  0.906217725369295  0.4700901359717519  0.7855928536539237  1.0000
  N   N17       1.0  0.10750064956926761  0.3573943531912819  0.21465516323922174  1.0000
  N   N18       1.0  0.6426053098854184  0.8924981875285384  0.28534378134317967  1.0000
  N   N19       1.0  0.8924965064550605  0.6426041809104958  0.7853408575014528  1.0000
  N   N20       1.0  0.3573967027009742  0.10750447000149418  0.7146596673173562  1.0000
  N   N21       1.0  0.03584072781254829  0.18909158070479043  0.0587693319040596  1.0000
  N   N22       1.0  0.6302405053730169  0.9770627908814475  0.4411868268872325  1.0000
  N   N23       1.0  0.8109082237457913  0.9641583826440369  0.44123098429381713  1.0000
  N   N24       1.0  0.022937568002312503  0.36976059082216045  0.05881297405946381  1.0000
  N   N25       1.0  0.9641573269949859  0.8109065597165144  0.9412293198091533  1.0000
  N   N26       1.0  0.36976056066728796  0.022938675726756213  0.5588165460648398  1.0000
  N   N27       1.0  0.1890910279231264  0.03584182892758046  0.5587714443216214  1.0000
  N   N28       1.0  0.9770600409725603  0.6302367888101659  0.9411835080966496  1.0000
  O   O1        1.0  0.9563512067848164  0.20641449892505667  0.9127293505609797  1.0000
  O   O2        1.0  0.7935876120180225  0.04365138896461923  0.5872701442938464  1.0000
  O   O3        1.0  0.04366287680061731  0.7935852687562033  0.08726805934117725  1.0000
  O   O4        1.0  0.20641224490456972  0.9563381759229017  0.4127329625479206  1.0000
