data_image0
_chemical_formula_structural       Zn4H32C56O24
_chemical_formula_sum              "Zn4 H32 C56 O24"
_cell_length_a       6.150795725102493
_cell_length_b       10.858839378872894
_cell_length_c       34.99385868857154
_cell_angle_alpha    91.22146575885682
_cell_angle_beta     97.46104339394897
_cell_angle_gamma    96.78258522588912

_space_group_name_H-M_alt    "P 1"
_space_group_IT_number       1

loop_
  _space_group_symop_operation_xyz
  'x, y, z'

loop_
  _atom_site_type_symbol
  _atom_site_label
  _atom_site_symmetry_multiplicity
  _atom_site_fract_x
  _atom_site_fract_y
  _atom_site_fract_z
  _atom_site_occupancy
  Zn  Zn1       1.0  0.7884572386516024  0.017520600616002482  0.5072907075949472  1.0000
  Zn  Zn2       1.0  0.34772726672766646  0.9870108066717193  0.49704517638631524  1.0000
  Zn  Zn3       1.0  0.12091756777159175  0.9788644645849445  0.9925079221136595  1.0000
  Zn  Zn4       1.0  0.5615563097079672  0.009238278747361096  0.002953825468566201  1.0000
  H   H1        1.0  0.7775682870953277  0.04536896544564679  0.8862764351836103  1.0000
  H   H2        1.0  0.7600532450922587  0.051527668773438486  0.8152177525664894  1.0000
  H   H3        1.0  0.05111039506621746  0.9594243463405051  0.8040562057578738  1.0000
  H   H4        1.0  0.07329530095486085  0.9562542313659107  0.8748171973192311  1.0000
  H   H5        1.0  0.8600145582701444  0.03803224997229649  0.695842545487231  1.0000
  H   H6        1.0  0.15123047854869742  0.9452549538048841  0.6847094185604943  1.0000
  H   H7        1.0  0.13364635174029618  0.951565951460637  0.6136545931121161  1.0000
  H   H8        1.0  0.8377106880473449  0.041410899096504694  0.6250651563591703  1.0000
  H   H9        1.0  0.7773702251339005  0.04278814630031751  0.12973898648913007  1.0000
  H   H10       1.0  0.757037476091064  0.04369109700880361  0.20036618274013304  1.0000
  H   H11       1.0  0.048437041856246296  0.9651334999302323  0.17717209207405193  1.0000
  H   H12       1.0  0.0714216262559972  0.9643891622062951  0.10692876270809387  1.0000
  H   H13       1.0  0.8570899124374166  0.0287519879171825  0.3224813849708354  1.0000
  H   H14       1.0  0.14817149789556786  0.951040091381273  0.2997902755758303  1.0000
  H   H15       1.0  0.12971539823590209  0.9522198737052252  0.3705093374952283  1.0000
  H   H16       1.0  0.8358650106196566  0.029847009025168292  0.3927965680109863  1.0000
  H   H17       1.0  0.3540591453118367  0.72184912421519  0.5526143855706207  1.0000
  H   H18       1.0  0.09782852961296838  0.5958754693287247  0.588379897737198  1.0000
  H   H19       1.0  0.35525935114738155  0.26545848331560506  0.554368985688029  1.0000
  H   H20       1.0  0.09823457105094484  0.36505100819542236  0.5892834947229699  1.0000
  H   H21       1.0  0.5539819930949079  0.7307226608741999  0.9453728915765041  1.0000
  H   H22       1.0  0.8108908551537228  0.6308545492100138  0.9104860278705116  1.0000
  H   H23       1.0  0.5566032889634229  0.27446672994989296  0.9476663610633196  1.0000
  H   H24       1.0  0.8121093494387638  0.40010869100581914  0.9116777371531481  1.0000
  H   H25       1.0  0.11241723882926635  0.0865790410382914  0.7634791308545912  1.0000
  H   H26       1.0  0.7990099295200184  0.910479087516606  0.736413637971232  1.0000
  H   H27       1.0  0.13148433833040227  0.1060041089718524  0.22375301780220266  1.0000
  H   H28       1.0  0.7731869184996825  0.8880482942154088  0.27614368766717934  1.0000
  H   H29       1.0  0.9915664296649781  0.32056810880678205  0.4876489998648096  1.0000
  H   H30       1.0  0.9883320514270509  0.7354268886956844  0.4850458128909878  1.0000
  H   H31       1.0  0.9214781271045427  0.2610234238452663  0.0149170333421296  1.0000
  H   H32       1.0  0.9176119715680074  0.6757437664055388  0.012128263074636401  1.0000
  C   C1        1.0  0.6596548396554739  0.7743846675364239  0.5070749224107941  1.0000
  C   C2        1.0  0.4810781901384545  0.9991953655284147  0.5724267212566545  1.0000
  C   C3        1.0  0.6558445264757182  0.24337657188027614  0.50830583540273  1.0000
  C   C4        1.0  0.4767322605640914  0.9931722615347385  0.4282143508001751  1.0000
  C   C5        1.0  0.25342401984167395  0.7530175854586575  0.9914320675261334  1.0000
  C   C6        1.0  0.4296109651271677  0.9980581226296363  0.927510102544282  1.0000
  C   C7        1.0  0.2506004732890972  0.22205194477123058  0.9930527589504621  1.0000
  C   C8        1.0  0.431519195275378  0.0020830273087710997  0.07173636413395457  1.0000
  C   C9        1.0  0.4264213385675789  0.00018379784267348918  0.8850281917020267  1.0000
  C   C10       1.0  0.6195948762741353  0.02596681965108159  0.867850586423728  1.0000
  C   C11       1.0  0.6091320841090849  0.0291309147817032  0.8279506495599165  1.0000
  C   C12       1.0  0.4047481951100806  0.0065253722883368915  0.8038590438377253  1.0000
  C   C13       1.0  0.21153156657531  0.9810181942132487  0.8216360935025903  1.0000
  C   C14       1.0  0.2225776848491208  0.9777387786444581  0.8614072397599128  1.0000
  C   C15       1.0  0.38061477283925893  0.012225744719685792  0.7617407971138092  1.0000
  C   C16       1.0  0.530706655989313  0.9847408268060889  0.7381589812423284  1.0000
  C   C17       1.0  0.6996076472813897  0.016320026521682997  0.6782627136067133  1.0000
  C   C18       1.0  0.5064640777765773  0.9905180148939294  0.6960417335746669  1.0000
  C   C19       1.0  0.3020784369814534  0.9678117061646316  0.6719691886360905  1.0000
  C   C20       1.0  0.291604195123881  0.9710707532857369  0.6320805954456148  1.0000
  C   C21       1.0  0.48466244790361657  0.9970914207845072  0.6148964812442868  1.0000
  C   C22       1.0  0.6885456833533823  0.019739162108926688  0.6384967175813328  1.0000
  C   C23       1.0  0.42580298972789166  0.0034060972483728946  0.11399059770029397  1.0000
  C   C24       1.0  0.6187719929876964  0.025126239289114893  0.1405271418337009  1.0000
  C   C25       1.0  0.6071477224017557  0.02636442304806509  0.1799064417810357  1.0000
  C   C26       1.0  0.40170602107257747  0.0071069089998801  0.19406226332553433  1.0000
  C   C27       1.0  0.20868066713193664  0.985170204714237  0.1670106807366025  1.0000
  C   C28       1.0  0.22051628659277617  0.9828798036678422  0.1276960768981823  1.0000
  C   C29       1.0  0.3789398601996937  0.013945981691982495  0.23515663473464332  1.0000
  C   C30       1.0  0.5257166336069689  0.9801242779679099  0.26474020988528213  1.0000
  C   C31       1.0  0.6971692804677829  0.008947984515131692  0.33277134320480417  1.0000
  C   C32       1.0  0.5035074193566016  0.9871617171900269  0.3058579288387619  1.0000
  C   C33       1.0  0.2984762351543111  0.9682156146381687  0.32015586560221004  1.0000
  C   C34       1.0  0.28791504134755996  0.9696064452081713  0.35956964311912987  1.0000
  C   C35       1.0  0.4814864847738463  0.9912352056621644  0.3859565864347302  1.0000
  C   C36       1.0  0.6864155188639957  0.011407152667977982  0.37211245674126286  1.0000
  C   C37       1.0  0.6661608575753917  0.6402635565535705  0.512199021678377  1.0000
  C   C38       1.0  0.507126718029987  0.5675997966979055  0.5321543929126518  1.0000
  C   C39       1.0  0.8294256979715656  0.5845871594336886  0.49643604689035925  1.0000
  C   C40       1.0  0.3572384104023882  0.622093048428134  0.5529010234745115  1.0000
  C   C41       1.0  0.21270984096606327  0.5510516670295118  0.5731039862965658  1.0000
  C   C42       1.0  0.6651267902376858  0.37942807223618774  0.5130618169488059  1.0000
  C   C43       1.0  0.8297115294478485  0.4526535248644733  0.4970037653895145  1.0000
  C   C44       1.0  0.5070150627632869  0.43564945401558924  0.5326050176477536  1.0000
  C   C45       1.0  0.35763035710409236  0.36561216535514524  0.5538776498592738  1.0000
  C   C46       1.0  0.21307066415400297  0.421704154539114  0.5736336623883032  1.0000
  C   C47       1.0  0.24451385578667129  0.6169857604068129  0.9868008365640151  1.0000
  C   C48       1.0  0.4027450661447246  0.560712116052393  0.9673089519140627  1.0000
  C   C49       1.0  0.08016936278860241  0.5437791675218763  0.0029284076472962  1.0000
  C   C50       1.0  0.5519442829084298  0.6305974542522249  0.9459704249990039  1.0000
  C   C51       1.0  0.6964706127509999  0.5743487001576425  0.9262488350224273  1.0000
  C   C52       1.0  0.24417999024314693  0.3561885997079344  0.9879082033185184  1.0000
  C   C53       1.0  0.08069612767423001  0.4118691206244378  0.0035952523336249  1.0000
  C   C54       1.0  0.40303877319051656  0.4287912308794404  0.9679123111225322  1.0000
  C   C55       1.0  0.5530780749606379  0.37417776431860966  0.947239518759815  1.0000
  C   C56       1.0  0.6972287262006774  0.44503194232216003  0.9269254114277953  1.0000
  O   O1        1.0  0.8491817905596549  0.8444063979387053  0.5067277114408453  1.0000
  O   O2        1.0  0.47668286988656666  0.8180615205489661  0.5026848740462595  1.0000
  O   O3        1.0  0.29172450561056706  0.9877316233133514  0.5508413953794358  1.0000
  O   O4        1.0  0.6670325286191954  0.01129283764467459  0.5597868171805658  1.0000
  O   O5        1.0  0.4711649845437904  0.1760246110900994  0.5031849130830749  1.0000
  O   O6        1.0  0.8447129747429687  0.19815362498343345  0.5086763172110762  1.0000
  O   O7        1.0  0.6616802193181855  0.007553612913547196  0.4497109941837748  1.0000
  O   O8        1.0  0.2874555403123153  0.9803701919680063  0.44114239441925907  1.0000
  O   O9        1.0  0.0645014524483755  0.7982155170298099  0.9909468335367249  1.0000
  O   O10       1.0  0.43807887611779955  0.8204225060796803  0.9965651327653472  1.0000
  O   O11       1.0  0.6186785216702972  0.00929767251684409  0.9491749988220233  1.0000
  O   O12       1.0  0.24345215928536854  0.9860983021884452  0.9400827249086845  1.0000
  O   O13       1.0  0.4335422803942847  0.17836953972638978  0.9975696808011133  1.0000
  O   O14       1.0  0.060903186974662876  0.15208216529755697  0.9932494907908729  1.0000
  O   O15       1.0  0.24681740634907356  0.9880650678827292  0.050153901591507094  1.0000
  O   O16       1.0  0.6210423004676784  0.015007362006649299  0.05890216584842279  1.0000
  O   O17       1.0  0.18208138901060522  0.0452698721008318  0.7441210615099152  1.0000
  O   O18       1.0  0.7294113980975254  0.951868086137907  0.7557652210713995  1.0000
  O   O19       1.0  0.1883034002680049  0.0557333171106151  0.24461871071171257  1.0000
  O   O20       1.0  0.716342902180955  0.9383041529943696  0.2552752911871181  1.0000
  O   O21       1.0  0.991326835760738  0.4084068599233746  0.4804049936230043  1.0000
  O   O22       1.0  0.9902008079513394  0.6460352338841203  0.4790963129637048  1.0000
  O   O23       1.0  0.9196611181324033  0.3504019944805563  0.0208801066187263  1.0000
  O   O24       1.0  0.9183713377603838  0.5880440324340553  0.0194735489397218  1.0000
