data_image0
_chemical_formula_structural       Cd2H24C28S4N16
_chemical_formula_sum              "Cd2 H24 C28 S4 N16"
_cell_length_a       8.311234621606632
_cell_length_b       8.63829246373593
_cell_length_c       12.39621087263882
_cell_angle_alpha    110.35979215937361
_cell_angle_beta     97.88156961466852
_cell_angle_gamma    90.0240284551607

_space_group_name_H-M_alt    "P 1"
_space_group_IT_number       1

loop_
  _space_group_symop_operation_xyz
  'x, y, z'

loop_
  _atom_site_type_symbol
  _atom_site_label
  _atom_site_symmetry_multiplicity
  _atom_site_fract_x
  _atom_site_fract_y
  _atom_site_fract_z
  _atom_site_occupancy
  Cd  Cd1       1.0  0.5000025747573957  3.334025677805413e-06  0.5000039716137648  1.0000
  Cd  Cd2       1.0  0.9999942772590418  0.5000022816890848  0.4999959332536859  1.0000
  H   H1        1.0  0.9568851299448584  0.5326170906252513  0.17744823087946313  1.0000
  H   H2        1.0  0.5438819764907521  0.35509393683268803  0.8231511638800622  1.0000
  H   H3        1.0  0.0431057366138745  0.467382858238004  0.8225581971433297  1.0000
  H   H4        1.0  0.45613076198499414  0.6449074463624951  0.17684869121768532  1.0000
  H   H5        1.0  0.8520795862973999  0.23839036407288458  0.08982487506744967  1.0000
  H   H6        1.0  0.6490555996003239  0.14877618991381783  0.9110031467736941  1.0000
  H   H7        1.0  0.14791356792816404  0.7616071516334915  0.9101795230352036  1.0000
  H   H8        1.0  0.3509462032440922  0.8512252388456074  0.0889949443672932  1.0000
  H   H9        1.0  0.9954158537892754  0.7928882064574408  0.15775729037082437  1.0000
  H   H10       1.0  0.5049555242296507  0.6350351270996198  0.8427460254152661  1.0000
  H   H11       1.0  0.004588352420043397  0.20711180290043527  0.8422471073447181  1.0000
  H   H12       1.0  0.49504772017775184  0.36496987428822786  0.15725794317928882  1.0000
  H   H13       1.0  0.8803735320441249  0.8527412820029027  0.048191987560755815  1.0000
  H   H14       1.0  0.6201158986373871  0.8044866184471073  0.9520921996612085  1.0000
  H   H15       1.0  0.11962695994108691  0.14725752113928087  0.9518109674908994  1.0000
  H   H16       1.0  0.37989212814466816  0.1955171808382801  0.04791027312795389  1.0000
  H   H17       1.0  0.5090256340912376  0.14999281157960098  0.27556712321049287  1.0000
  H   H18       1.0  0.9906787853238371  0.8747238786157042  0.7240571854182958  1.0000
  H   H19       1.0  0.4909685732791689  0.8500023625527718  0.724431931553333  1.0000
  H   H20       1.0  0.0093216059689993  0.12527384402701364  0.2759398380082273  1.0000
  H   H21       1.0  0.796524386705663  0.7739241398760013  0.325634932813898  1.0000
  H   H22       1.0  0.7034633900058652  0.4485230908520208  0.674648420079009  1.0000
  H   H23       1.0  0.2034762316357757  0.22607715798583428  0.674367861140247  1.0000
  H   H24       1.0  0.2965347136201403  0.5514770649475764  0.3253506332676536  1.0000
  C   C1        1.0  0.8093104404992532  0.6097831140743751  0.050301260066476124  1.0000
  C   C2        1.0  0.6913621073741538  0.5596471797847825  0.9501382554330033  1.0000
  C   C3        1.0  0.19069119031747314  0.3902144947374211  0.9496998784019293  1.0000
  C   C4        1.0  0.3086431569819085  0.4403504657510453  0.049861600566892206  1.0000
  C   C5        1.0  0.8658020107679009  0.4931068215559407  0.09960711321653545  1.0000
  C   C6        1.0  0.6349920189586343  0.3936119077681894  0.9009907752653132  1.0000
  C   C7        1.0  0.13419747874582552  0.5068956261401923  0.9003991005672273  1.0000
  C   C8        1.0  0.36501221791644417  0.6063894935618137  0.0990083313507597  1.0000
  C   C9        1.0  0.8079815718896414  0.32813858928217604  0.050488801510375866  1.0000
  C   C10       1.0  0.6929524333454324  0.277940764596444  0.9502555911090478  1.0000
  C   C11       1.0  0.1920179076202828  0.6718639029100473  0.9495158090270193  1.0000
  C   C12       1.0  0.3070506646981315  0.7220618310639536  0.04974533209027499  1.0000
  C   C13       1.0  0.87334777725674  0.7875015418358872  0.1091670435510181  1.0000
  C   C14       1.0  0.6270821921721819  0.6783309980234835  0.8911751792915579  1.0000
  C   C15       1.0  0.1266515758969504  0.2124984556366982  0.8908377280838946  1.0000
  C   C16       1.0  0.37292455941832975  0.3216715453687512  0.10882766793200453  1.0000
  C   C17       1.0  0.5931969493780117  0.051545319897854804  0.26142040799315674  1.0000
  C   C18       1.0  0.9066210339634396  0.790386394951561  0.7383808863581931  1.0000
  C   C19       1.0  0.4067997577021175  0.9484510630408993  0.7385799825086036  1.0000
  C   C20       1.0  0.0933781428150198  0.20961133028184517  0.2616160301423775  1.0000
  C   C21       1.0  0.7386135715394958  0.862424872428768  0.2905817407950194  1.0000
  C   C22       1.0  0.7613841826458129  0.5720601055960657  0.7095605497420931  1.0000
  C   C23       1.0  0.26138684476285334  0.1375727389737165  0.7094192907474335  1.0000
  C   C24       1.0  0.23861392098019252  0.4279400502035244  0.2904385036045624  1.0000
  C   C25       1.0  0.12062432752436793  0.813239179482821  0.4335554627821735  1.0000
  C   C26       1.0  0.3794999668851205  0.37963415890469326  0.5661800813177533  1.0000
  C   C27       1.0  0.8793772232619405  0.18675878529772663  0.5664328497152622  1.0000
  C   C28       1.0  0.6204917557812595  0.6203597396771627  0.43382004257770007  1.0000
  S   S1        1.0  0.21061731601922426  0.8872415460166464  0.3519014263214826  1.0000
  S   S2        1.0  0.2896831103314809  0.5353321469136175  0.6478006823212537  1.0000
  S   S3        1.0  0.7893897089457058  0.11276742328309548  0.6480942043612145  1.0000
  S   S4        1.0  0.7103005704876892  0.4646704234536401  0.3522009349323765  1.0000
  N   N1        1.0  0.7683069021852732  0.8829782609957633  0.19225185982408277  1.0000
  N   N2        1.0  0.731835056594804  0.6908650701597879  0.8078909678002685  1.0000
  N   N3        1.0  0.23169365047710505  0.117021800630269  0.8077506138672274  1.0000
  N   N4        1.0  0.26816790508872407  0.3091350752770552  0.19210851325020423  1.0000
  N   N5        1.0  0.6759296096529894  0.0034124961673996012  0.1718042199459758  1.0000
  N   N6        1.0  0.8240909154080643  0.831806300856705  0.8281092123116022  1.0000
  N   N7        1.0  0.32407082665695713  0.9965850262428899  0.8282000180892122  1.0000
  N   N8        1.0  0.1759143339422949  0.16819141142325825  0.17188823881873103  1.0000
  N   N9        1.0  0.6271654689425078  0.9674094223396068  0.3360847233708099  1.0000
  N   N10       1.0  0.8726362423731475  0.631592032181473  0.6638465212392075  1.0000
  N   N11       1.0  0.3728325740063383  0.032589474976148815  0.6639148113361981  1.0000
  N   N12       1.0  0.1273606974118451  0.3684094291887519  0.3361503405747752  1.0000
  N   N13       1.0  0.052516374415226594  0.7580384288378568  0.49121086036673467  1.0000
  N   N14       1.0  0.44744270027018734  0.26674749566088707  0.5085514445326422  1.0000
  N   N15       1.0  0.9474826159841856  0.24195706865246794  0.5087765977531261  1.0000
  N   N16       1.0  0.5525506359868687  0.7332537954970206  0.4914515094889607  1.0000
