data_image0
_chemical_formula_structural       Ho2MnH28C16O18
_chemical_formula_sum              "Ho2 Mn1 H28 C16 O18"
_cell_length_a       8.892123661930878
_cell_length_b       9.104423130188515
_cell_length_c       10.645876971312514
_cell_angle_alpha    81.56960829204388
_cell_angle_beta     72.51372147779313
_cell_angle_gamma    77.7613158025923

_space_group_name_H-M_alt    "P 1"
_space_group_IT_number       1

loop_
  _space_group_symop_operation_xyz
  'x, y, z'

loop_
  _atom_site_type_symbol
  _atom_site_label
  _atom_site_symmetry_multiplicity
  _atom_site_fract_x
  _atom_site_fract_y
  _atom_site_fract_z
  _atom_site_occupancy
  Ho  Ho1       1.0  0.9083872283056422  0.07093232458016267  0.6860487801404462  1.0000
  Ho  Ho2       1.0  0.09161674281791217  0.9290747803278661  0.31394948565191794  1.0000
  Mn  Mn1       1.0  1.1321407598586029e-06  0.9999982362341409  3.3577524121514673e-06  1.0000
  H   H1        1.0  0.8280011338277403  0.3669528734149309  0.04375180410821858  1.0000
  H   H2        1.0  0.1719964178645768  0.6330498491357658  0.9562570308141148  1.0000
  H   H3        1.0  0.6275146998113781  0.400469263832221  0.027986181725438566  1.0000
  H   H4        1.0  0.37248435869038593  0.5995255608444905  0.9720233586293507  1.0000
  H   H5        1.0  0.7676411362414655  0.5096898591741307  0.9252694850934735  1.0000
  H   H6        1.0  0.23235219281218636  0.49030484259811385  0.07473485436700142  1.0000
  H   H7        1.0  0.7344493358494051  0.7340035787783632  0.08019583788556167  1.0000
  H   H8        1.0  0.26554907967959446  0.2659908759671196  0.91979229485726  1.0000
  H   H9        1.0  0.5891601810803521  0.7353249211813447  0.9927708919060341  1.0000
  H   H10       1.0  0.4108410809161214  0.26467964879653033  0.007212385311888202  1.0000
  H   H11       1.0  0.5658537635651228  0.8848333380767384  0.0876338707410369  1.0000
  H   H12       1.0  0.43415286386096597  0.11516687151456038  0.9123571762814395  1.0000
  H   H13       1.0  0.4804648463510406  0.8712692549759067  0.5748839863166781  1.0000
  H   H14       1.0  0.5195331733637686  0.12872547157308384  0.4251201763503475  1.0000
  H   H15       1.0  0.4681836965245481  0.7455037923346237  0.7222011651211704  1.0000
  H   H16       1.0  0.531817742232576  0.2544910207477925  0.27780687243181756  1.0000
  H   H17       1.0  0.5213858469137874  0.922401192483029  0.7167317963248793  1.0000
  H   H18       1.0  0.47861017984733667  0.0775980129628451  0.283270357296992  1.0000
  H   H19       1.0  0.20232564413466744  0.31812826102224523  0.26307511388223775  1.0000
  H   H20       1.0  0.7976808078971587  0.6818596611376007  0.7369251450357768  1.0000
  H   H21       1.0  0.2695010979084103  0.38020318531632563  0.38538745657416484  1.0000
  H   H22       1.0  0.7304976407825092  0.6197948003253444  0.6146085803383774  1.0000
  H   H23       1.0  0.0845116170247024  0.4711613198236363  0.3604459579373512  1.0000
  H   H24       1.0  0.9154929651715376  0.5288443850131799  0.6395363787068791  1.0000
  H   H25       1.0  0.751464137248533  0.11955021156515497  0.47329506661220944  1.0000
  H   H26       1.0  0.2485281155126629  0.8804501315456504  0.526708768967936  1.0000
  H   H27       1.0  0.6741663028777936  0.26250284956211783  0.5617360307710728  1.0000
  H   H28       1.0  0.3258283767051325  0.7374974499775105  0.43826441613384065  1.0000
  C   C1        1.0  0.2719176783486646  0.9288093239334142  0.7411752015314407  1.0000
  C   C2        1.0  0.7280798210674746  0.07119441496590177  0.25882693205780793  1.0000
  C   C3        1.0  0.7545632928250183  0.39658320843742695  0.9745646552294295  1.0000
  C   C4        1.0  0.2454346104738505  0.6034115980537604  0.02544422212118043  1.0000
  C   C5        1.0  0.6563242783845311  0.8044374575614056  0.02419298692736764  1.0000
  C   C6        1.0  0.34368205822369907  0.19556491263467274  0.9757922009226693  1.0000
  C   C7        1.0  0.8047342370541557  0.2864172730310485  0.8711350423630652  1.0000
  C   C8        1.0  0.19526265645074406  0.7135764349722391  0.12887610156958837  1.0000
  C   C9        1.0  0.7497144283707371  0.8903741429028357  0.9062426778567388  1.0000
  C   C10       1.0  0.25029510867025107  0.10962275023324247  0.09375188337571672  1.0000
  C   C11       1.0  0.4462220964694056  0.8643422403182155  0.6830448942958329  1.0000
  C   C12       1.0  0.5537757312700933  0.1356535985100393  0.3169582246584144  1.0000
  C   C13       1.0  0.16451008714108187  0.3611312915295882  0.36039529258928144  1.0000
  C   C14       1.0  0.835490362746526  0.6388700833093707  0.6395998821299858  1.0000
  C   C15       1.0  0.08228651174818678  0.25264647843209787  0.4649758446337488  1.0000
  C   C16       1.0  0.9177064224836118  0.7473628632376756  0.5350247389993542  1.0000
  O   O1        1.0  0.17884474226818264  0.9593633873476289  0.6645984706046949  1.0000
  O   O2        1.0  0.8211581059965382  0.04064939087584919  0.3354011771807779  1.0000
  O   O3        1.0  0.0269060749569618  0.28583811178906865  0.5836677460095319  1.0000
  O   O4        1.0  0.9730829631491601  0.7141734318595708  0.4163306470589135  1.0000
  O   O5        1.0  0.9026296308257146  0.8829432284170905  0.884758665662311  1.0000
  O   O6        1.0  0.097380398069312  0.11705609932435117  0.11524578638936595  1.0000
  O   O7        1.0  0.9334480403903669  0.18497982653497752  0.8651521436805613  1.0000
  O   O8        1.0  0.06655200462218153  0.8150161126180745  0.13485607302890673  1.0000
  O   O9        1.0  0.6808923680935236  0.9727796881146272  0.8250901813635283  1.0000
  O   O10       1.0  0.3191324046463251  0.027212558431102693  0.17489199441551762  1.0000
  O   O11       1.0  0.7265963257260069  0.29135958981793647  0.788729264813789  1.0000
  O   O12       1.0  0.2734012924648041  0.7086363929062925  0.21128234057091805  1.0000
  O   O13       1.0  0.065108076548114  0.12568610515068454  0.43577337203149835  1.0000
  O   O14       1.0  0.9348903628124386  0.8743187802018682  0.5642293237858599  1.0000
  O   O15       1.0  0.719808872675209  0.155805370681243  0.5647841678765817  1.0000
  O   O16       1.0  0.28018033077196236  0.8441983848154279  0.43522181111389113  1.0000
  O   O17       1.0  0.22606264088302194  0.9476008428871552  0.862969693126381  1.0000
  O   O18       1.0  0.7739366362283064  0.05239954538298968  0.13703434873195874  1.0000
