data_image0
_chemical_formula_structural       Cd2H36C52S4N12O8
_chemical_formula_sum              "Cd2 H36 C52 S4 N12 O8"
_cell_length_a       10.034759524493365
_cell_length_b       11.597870069381903
_cell_length_c       11.767563748579933
_cell_angle_alpha    65.31374593992648
_cell_angle_beta     77.46660246476948
_cell_angle_gamma    77.07624374862388

_space_group_name_H-M_alt    "P 1"
_space_group_IT_number       1

loop_
  _space_group_symop_operation_xyz
  'x, y, z'

loop_
  _atom_site_type_symbol
  _atom_site_label
  _atom_site_symmetry_multiplicity
  _atom_site_fract_x
  _atom_site_fract_y
  _atom_site_fract_z
  _atom_site_occupancy
  Cd  Cd1       1.0  0.30169887208533214  0.7043943670255005  0.0956472953173274  1.0000
  Cd  Cd2       1.0  0.6983017065450029  0.2956051487563514  0.9043525023074607  1.0000
  H   H1        1.0  0.4314374504103569  0.0948419704915864  0.06378082629534282  1.0000
  H   H2        1.0  0.5685629727529928  0.9051585050937309  0.9362186021128807  1.0000
  H   H3        1.0  0.465635991133979  0.9257920275112924  0.11224638582054777  1.0000
  H   H4        1.0  0.5343623904899886  0.07420844691621652  0.8877534195179418  1.0000
  H   H5        1.0  0.4116097937885214  0.4117004701785022  0.14755059593567663  1.0000
  H   H6        1.0  0.5883918069482162  0.5882990429006796  0.852448164539062  1.0000
  H   H7        1.0  0.34850367059222265  0.2631313060464536  0.20841654387537994  1.0000
  H   H8        1.0  0.6514986399802325  0.7368701272185589  0.7915812897010993  1.0000
  H   H9        1.0  0.13471141811941578  0.9914270423480149  0.03324261779945206  1.0000
  H   H10       1.0  0.865289313304487  0.008571520193520098  0.9667592464117332  1.0000
  H   H11       1.0  0.015648771337531304  0.143080002283817  0.1391616848528585  1.0000
  H   H12       1.0  0.9843528267257895  0.8569195173585129  0.8608387729917126  1.0000
  H   H13       1.0  0.9678267452509032  0.056013423786360816  0.3761411622558555  1.0000
  H   H14       1.0  0.032173832042722894  0.9439860952770618  0.6238594840538451  1.0000
  H   H15       1.0  0.037352456440082366  0.8216849538436154  0.4962962092915077  1.0000
  H   H16       1.0  0.9626471000838562  0.17831456464090684  0.5037046254833297  1.0000
  H   H17       1.0  0.025938920883248853  0.6208088098789374  0.5653055033891548  1.0000
  H   H18       1.0  0.9740606329672729  0.37919071516872555  0.43469702875551525  1.0000
  H   H19       1.0  0.1334813500004302  0.39441105454496744  0.6753235427485292  1.0000
  H   H20       1.0  0.866519224619786  0.6055884710816031  0.324678800931011  1.0000
  H   H21       1.0  0.3449016084868433  0.30344885411146555  0.5644754156750408  1.0000
  H   H22       1.0  0.655095910507832  0.6965506533705295  0.43552324997531144  1.0000
  H   H23       1.0  0.429961587555063  0.43903862724556575  0.33925657886444327  1.0000
  H   H24       1.0  0.5700347538662315  0.5609618427425574  0.6607427547193935  1.0000
  H   H25       1.0  0.0036668565371656033  0.7886220720373062  0.07572059607230129  1.0000
  H   H26       1.0  0.9963337207564608  0.21137744702611633  0.9242800502374064  1.0000
  H   H27       1.0  0.7495200848892482  0.8257395608689536  0.07309211685111434  1.0000
  H   H28       1.0  0.2504813550336706  0.17426092513998273  0.9269096691467309  1.0000
  H   H29       1.0  0.752429219045297  0.42454246357586806  0.16592073767322543  1.0000
  H   H30       1.0  0.24757324432073347  0.5754580164488274  0.834079162489651  1.0000
  H   H31       1.0  0.2706238152379328  0.20601294007541068  0.4609251618791532  1.0000
  H   H32       1.0  0.729375588492431  0.7939875316494281  0.5390736063092872  1.0000
  H   H33       1.0  0.2535549602989065  0.0915485418867732  0.696637710221111  1.0000
  H   H34       1.0  0.746443265858069  0.9084528923442009  0.3033617259008067  1.0000
  H   H35       1.0  0.3814355547408184  0.7272025724276078  0.6629890508902676  1.0000
  H   H36       1.0  0.6185650238895164  0.2727969433542513  0.33701074673452064  1.0000
  C   C1        1.0  0.11041513823947474  0.9591093909375845  0.1356987087906347  1.0000
  C   C2        1.0  0.8895845737514492  0.040889167743472406  0.8643024952007676  1.0000
  C   C3        1.0  0.044517006671000614  0.04213014999476881  0.19531396094563286  1.0000
  C   C4        1.0  0.955482549852938  0.957869368489753  0.8046868738292048  1.0000
  C   C5        1.0  0.018211740219271626  0.9933412815083146  0.32656777053023933  1.0000
  C   C6        1.0  0.9817867941982712  0.0066582396788775  0.6734341013946477  1.0000
  C   C7        1.0  0.05590251063352982  0.8628364174100938  0.3935542138114768  1.0000
  C   C8        1.0  0.9440972000206925  0.13716214455253353  0.6064478388648452  1.0000
  C   C9        1.0  0.12223008898516954  0.7851081974594932  0.32725462431562863  1.0000
  C   C10       1.0  0.8777694675387622  0.21489132102502856  0.6727462104592091  1.0000
  C   C11       1.0  0.17347143784641614  0.6478590883549773  0.39502174859688205  1.0000
  C   C12       1.0  0.826525056368446  0.35214042839282905  0.6049796515733517  1.0000
  C   C13       1.0  0.11629732200209728  0.5778440050197278  0.5183808140494434  1.0000
  C   C14       1.0  0.8837012124154383  0.42215551616746433  0.48162105787544357  1.0000
  C   C15       1.0  0.17627715862802526  0.4517890853111127  0.5798382946370991  1.0000
  C   C16       1.0  0.8237232618619074  0.5482113968373525  0.4201628311409565  1.0000
  C   C17       1.0  0.29237813593884704  0.4000932978577013  0.517618354621831  1.0000
  C   C18       1.0  0.7076212651181066  0.5999071804302787  0.48238211093644157  1.0000
  C   C19       1.0  0.34079196331887823  0.47485156182056454  0.3935472080327215  1.0000
  C   C20       1.0  0.6592035127997065  0.5251479477851931  0.6064526832328098  1.0000
  C   C21       1.0  0.022468241204649096  0.5848448387843775  0.12516153783862188  1.0000
  C   C22       1.0  0.9775333568586717  0.41515468085795265  0.8748389200059492  1.0000
  C   C23       1.0  0.9491887018724512  0.7094301840826064  0.09586020722605315  1.0000
  C   C24       1.0  0.0508127407238845  0.29057029536318885  0.9041398814019528  1.0000
  C   C25       1.0  0.8075079145493474  0.7294917366235866  0.09441342685321528  1.0000
  C   C26       1.0  0.1924925059405922  0.2705087455248788  0.9055876989248401  1.0000
  C   C27       1.0  0.7367111702713701  0.6277700286686567  0.11925616867858926  1.0000
  C   C28       1.0  0.2632894070222633  0.37222949039476566  0.8807444776311185  1.0000
  C   C29       1.0  0.8083769187956875  0.5018950265154983  0.14978823157710522  1.0000
  C   C30       1.0  0.1916235030309538  0.49810545235138887  0.8502120455160307  1.0000
  C   C31       1.0  0.9492957129178451  0.48193026086548957  0.15463601572697874  1.0000
  C   C32       1.0  0.05070486437578129  0.518069258197933  0.8453646305827291  1.0000
  C   C33       1.0  0.20153275245431962  0.42440074068116457  0.16438729379896702  1.0000
  C   C34       1.0  0.7984675165787462  0.5756006914260469  0.8356109167077717  1.0000
  C   C35       1.0  0.33574517362477246  0.0312456401573584  0.42809843568045375  1.0000
  C   C36       1.0  0.6642532079991953  0.9687548342701504  0.5719013696580361  1.0000
  C   C37       1.0  0.2942970065935384  0.10183836657103033  0.5048601651291873  1.0000
  C   C38       1.0  0.7057013750304222  0.8981621078564787  0.49513964020930235  1.0000
  C   C39       1.0  0.28561139401625724  0.0382012395906983  0.635473402686891  1.0000
  C   C40       1.0  0.714386988944419  0.9617992315552331  0.36452555396667913  1.0000
  C   C41       1.0  0.3165588302427834  0.9037480374072048  0.6931248860832397  1.0000
  C   C42       1.0  0.6834404166838866  0.09625339740266982  0.3068743615735484  1.0000
  C   C43       1.0  0.3567286543792819  0.831251421426337  0.6177144521255472  1.0000
  C   C44       1.0  0.6432705925473954  0.16875001338354417  0.3822847955312412  1.0000
  C   C45       1.0  0.3659323979113652  0.8950533269151394  0.4872747352830159  1.0000
  C   C46       1.0  0.6340668503520136  0.10494810461316464  0.5127236636888596  1.0000
  C   C47       1.0  0.39701737381766117  0.9888274266765793  0.25454565002037555  1.0000
  C   C48       1.0  0.6029820272392853  0.011173051611400798  0.745454815537897  1.0000
  C   C49       1.0  0.30772767156577885  0.8375215328868041  0.8339125327755637  1.0000
  C   C50       1.0  0.6922727515975711  0.1624789426985132  0.16608689563265946  1.0000
  C   C51       1.0  0.5856863674734782  0.6525599775468506  0.11197801146135337  1.0000
  C   C52       1.0  0.4143150751228574  0.3474405018989445  0.8880220771666527  1.0000
  S   S1        1.0  0.418626626779961  0.831312100645569  0.3718356575245492  1.0000
  S   S2        1.0  0.581372620146709  0.1686893341643056  0.6281635901322389  1.0000
  S   S3        1.0  0.06401480717173062  0.33813301212242663  0.19466271668933638  1.0000
  S   S4        1.0  0.9359866394347306  0.6618674574786497  0.8053348258839251  1.0000
  N   N1        1.0  0.149949832899928  0.8336467377942043  0.19995832627924395  1.0000
  N   N2        1.0  0.8500488583213014  0.16635182030794482  0.8000430661772879  1.0000
  N   N3        1.0  0.2815969990931251  0.5952497246653721  0.33290227258326155  1.0000
  N   N4        1.0  0.7184008294988189  0.4047478664912632  0.6670979801851402  1.0000
  N   N5        1.0  0.3528880452390482  0.0813274404673265  0.2976376685747368  1.0000
  N   N6        1.0  0.6471112030243303  0.9186739910609703  0.7023607303971388  1.0000
  N   N7        1.0  0.42448583088902586  0.0046973734134284  0.1332192339335805  1.0000
  N   N8        1.0  0.5755154575770264  0.9953040625542616  0.866779636792948  1.0000
  N   N9        1.0  0.1624731519482339  0.5503044149590651  0.1307151411395394  1.0000
  N   N10       1.0  0.8375282919848032  0.4496960612051595  0.869284098803547  1.0000
  N   N11       1.0  0.32970011737354815  0.362485973138682  0.1759747207794504  1.0000
  N   N12       1.0  0.6703035262392806  0.6375135378167371  0.824022814080102  1.0000
  O   O1        1.0  0.35427533959785523  0.7176112581341059  0.8809677394574605  1.0000
  O   O2        1.0  0.6457240627958072  0.2823892168723106  0.11903187741589247  1.0000
  O   O3        1.0  0.2541493048506284  0.9017824241742146  0.9025534831798009  1.0000
  O   O4        1.0  0.7458521377457074  0.09821805527158033  0.097446605448205  1.0000
  O   O5        1.0  0.5237941242623024  0.5603366785019971  0.13274031017191862  1.0000
  O   O6        1.0  0.47620660849831614  0.4396618807579599  0.8672607053543542  1.0000
  O   O7        1.0  0.5215713834385625  0.7690876084916456  0.08357928330335078  1.0000
  O   O8        1.0  0.4784291938550638  0.2309119105717771  0.9164213630063498  1.0000
