data_image0
_chemical_formula_structural       Zn2H24Pb2C20N4O16
_chemical_formula_sum              "Zn2 H24 Pb2 C20 N4 O16"
_cell_length_a       7.483601075539538
_cell_length_b       8.30732198475292
_cell_length_c       11.68256962031599
_cell_angle_alpha    103.29052732788175
_cell_angle_beta     107.16480049306469
_cell_angle_gamma    97.78289371934312

_space_group_name_H-M_alt    "P 1"
_space_group_IT_number       1

loop_
  _space_group_symop_operation_xyz
  'x, y, z'

loop_
  _atom_site_type_symbol
  _atom_site_label
  _atom_site_symmetry_multiplicity
  _atom_site_fract_x
  _atom_site_fract_y
  _atom_site_fract_z
  _atom_site_occupancy
  Zn  Zn1       1.0  0.09613515864479175  0.653390970184226  0.6642270031601781  1.0000
  Zn  Zn2       1.0  0.9037687672747836  0.3465398604886829  0.3356583563816855  1.0000
  H   H1        1.0  0.5148548321339773  0.5296219121057673  0.5867741090981082  1.0000
  H   H2        1.0  0.48536055890373575  0.4703503489934348  0.41332172256301186  1.0000
  H   H3        1.0  0.6583635484743127  0.6981356263344908  0.7155085178935108  1.0000
  H   H4        1.0  0.3416072872740088  0.30197524781298307  0.2845579059407298  1.0000
  H   H5        1.0  0.29758137260714784  0.35674171262450466  0.7722413650479394  1.0000
  H   H6        1.0  0.7022834864341831  0.643302996943383  0.22772329831362728  1.0000
  H   H7        1.0  0.4778986038303258  0.33982033993698474  0.7035319324904987  1.0000
  H   H8        1.0  0.5220172618098573  0.660194352675617  0.2964802651264263  1.0000
  H   H9        1.0  0.5423974351234475  0.7990005509927867  0.8742891753417152  1.0000
  H   H10       1.0  0.457685715266912  0.20095674128170765  0.12572406688867224  1.0000
  H   H11       1.0  0.6078414239899458  0.6142222386270787  0.9086045618123318  1.0000
  H   H12       1.0  0.3920737781547317  0.3856504461238614  0.09134694535435982  1.0000
  H   H13       1.0  0.2866407158705612  0.5223696891583599  0.9261070759553572  1.0000
  H   H14       1.0  0.7133874756118743  0.4776561638525719  0.07394930014861958  1.0000
  H   H15       1.0  0.41094003312247196  0.7204036087652809  0.03335256285541281  1.0000
  H   H16       1.0  0.5890915538159335  0.2796663640951991  0.9666347933398497  1.0000
  H   H17       1.0  0.3615004595019541  0.9602801826169836  0.928976619438927  1.0000
  H   H18       1.0  0.6385196768062612  0.0396812463154603  0.07103872463287077  1.0000
  H   H19       1.0  0.19780282641286817  0.9551086146658746  0.012354562162109116  1.0000
  H   H20       1.0  0.8021837418716586  0.0448546005914849  0.9876361578095111  1.0000
  H   H21       1.0  0.8970495320101364  0.724067235523108  0.8823860758698101  1.0000
  H   H22       1.0  0.10300441442455369  0.27598801527089717  0.11775554024987399  1.0000
  H   H23       1.0  0.03076447241194563  0.6278819214285676  0.988079115689082  1.0000
  H   H24       1.0  0.9693122874904885  0.3720269824922368  0.011918906921856352  1.0000
  Pb  Pb1       1.0  0.8252278013681503  0.08747812521350075  0.6059200794959663  1.0000
  Pb  Pb2       1.0  0.17500583865113833  0.9126799514678152  0.3943009511045543  1.0000
  C   C1        1.0  0.4263342325930708  0.7631012043558839  0.5923111457423784  1.0000
  C   C2        1.0  0.5736661676527106  0.23679707472233957  0.40762699779622824  1.0000
  C   C3        1.0  0.5079637204628397  0.637968606089302  0.6581708626520281  1.0000
  C   C4        1.0  0.4920622482469454  0.3620177637760093  0.3418381205967407  1.0000
  C   C5        1.0  0.35100337487057937  0.394361048032728  0.7021532688393746  1.0000
  C   C6        1.0  0.6489158946623306  0.6056765110665268  0.29782955645583087  1.0000
  C   C7        1.0  0.194366896926816  0.31124439135806625  0.5771987902289906  1.0000
  C   C8        1.0  0.8055725204885036  0.6888484107329161  0.4227813491871969  1.0000
  C   C9        1.0  0.48508023901653974  0.6657092326469181  0.8649001327549397  1.0000
  C   C10       1.0  0.5149052503527471  0.3342614252481653  0.13508722117136066  1.0000
  C   C11       1.0  0.3410204865656965  0.6550430257357219  0.9327575800200235  1.0000
  C   C12       1.0  0.6589793791313951  0.34496324758374175  0.06724110284944368  1.0000
  C   C13       1.0  0.21323367814419206  0.9085305032389853  0.9199663055018021  1.0000
  C   C14       1.0  0.7867777802063997  0.09144292508013759  0.08003128112306256  1.0000
  C   C15       1.0  0.08557698677545024  0.982395201835345  0.8261903024858694  1.0000
  C   C16       1.0  0.9144875204326224  0.01756863307160469  0.17379229611527333  1.0000
  C   C17       1.0  0.9035052228689292  0.4703216719023188  0.7952114355999665  1.0000
  C   C18       1.0  0.0964255268020864  0.529722397321116  0.20477871185359217  1.0000
  C   C19       1.0  0.0004982274526242631  0.641921039037179  0.8932961116204794  1.0000
  C   C20       1.0  0.9995081926192597  0.3580758254902534  0.10672204488489002  1.0000
  N   N1        1.0  0.39577624468662254  0.5795743222013527  0.7304391557739149  1.0000
  N   N2        1.0  0.6041935090393974  0.4204468112727183  0.2695486081199831  1.0000
  N   N3        1.0  0.17494505046791878  0.7234892477211967  0.8769175197501365  1.0000
  N   N4        1.0  0.8250419592923491  0.2764877150259437  0.12307019230150464  1.0000
  O   O1        1.0  0.5145763183793759  0.8207791096976816  0.5281643056853865  1.0000
  O   O2        1.0  0.4854075764782095  0.17908089306871489  0.47175830294974447  1.0000
  O   O3        1.0  0.2716272942607531  0.8046564562036022  0.6025323916093865  1.0000
  O   O4        1.0  0.7283948537088208  0.19528928432102075  0.3974321650333436  1.0000
  O   O5        1.0  0.13697235426079143  0.40194149686556097  0.5063581257203039  1.0000
  O   O6        1.0  0.8630341750236924  0.598131329705424  0.49360030555329343  1.0000
  O   O7        1.0  0.12796688774652407  0.1527004954370952  0.5556324851752875  1.0000
  O   O8        1.0  0.8718874350524289  0.8474010635026515  0.44437044152208915  1.0000
  O   O9        1.0  0.9437884982935499  0.4424728504705726  0.6930860313181239  1.0000
  O   O10       1.0  0.056120800931353174  0.5575583250744457  0.30689318815892347  1.0000
  O   O11       1.0  0.788314557099511  0.3671413644462758  0.8167438758868142  1.0000
  O   O12       1.0  0.21160867766862876  0.6328897772466178  0.18323613814530396  1.0000
  O   O13       1.0  0.9741419488379888  0.8751818504032653  0.7224658364563933  1.0000
  O   O14       1.0  0.025905648369395396  0.12477997349933637  0.277528827487444  1.0000
  O   O15       1.0  0.0965169195481224  0.13928983561240216  0.8532960845518714  1.0000
  O   O16       1.0  0.9035809304583396  0.860689820916761  0.1466400802854011  1.0000
