data_image0
_chemical_formula_structural       Zn4H8C8Br4N12
_chemical_formula_sum              "Zn4 H8 C8 Br4 N12"
_cell_length_a       6.355607914185199
_cell_length_b       8.989735718830676
_cell_length_c       9.716747474010225
_cell_angle_alpha    90.00003944836207
_cell_angle_beta     90.00019773002741
_cell_angle_gamma    102.51206587966647

_space_group_name_H-M_alt    "P 1"
_space_group_IT_number       1

loop_
  _space_group_symop_operation_xyz
  'x, y, z'

loop_
  _atom_site_type_symbol
  _atom_site_label
  _atom_site_symmetry_multiplicity
  _atom_site_fract_x
  _atom_site_fract_y
  _atom_site_fract_z
  _atom_site_occupancy
  Zn  Zn1       1.0  0.045544785016971914  0.31731273621340966  0.5738897462637029  1.0000
  Zn  Zn2       1.0  0.45445732297073244  0.18268810472401498  0.07389167991556181  1.0000
  Zn  Zn3       1.0  0.9544564761820242  0.6826864827680056  0.42611021246881375  1.0000
  Zn  Zn4       1.0  0.5455435747075158  0.8173099748645926  0.9261093079669965  1.0000
  H   H1        1.0  0.7352606074120445  0.39470065332482557  0.8337564978192734  1.0000
  H   H2        1.0  0.764740912015789  0.1052964159982821  0.33375064280214434  1.0000
  H   H3        1.0  0.2647396946104692  0.605305422834867  0.16624449006537395  1.0000
  H   H4        1.0  0.23525636575612913  0.8947051129958722  0.6662503450766339  1.0000
  H   H5        1.0  0.8554051702566741  0.979560125263369  0.6883903346238756  1.0000
  H   H6        1.0  0.6445869312570167  0.5204292143392095  0.18839025807461954  1.0000
  H   H7        1.0  0.1445956113666682  0.0204425223109013  0.31161579901499453  1.0000
  H   H8        1.0  0.35542327129884654  0.47957337077941276  0.8116076423696444  1.0000
  C   C1        1.0  0.7333383011223944  0.2741697957495647  0.8207490121129626  1.0000
  C   C2        1.0  0.7666689614923359  0.22583064341412032  0.32075251288589623  1.0000
  C   C3        1.0  0.26667491032117147  0.7258224931827684  0.17923139276539504  1.0000
  C   C4        1.0  0.23333302674813444  0.7741708543528816  0.6792453875465443  1.0000
  C   C5        1.0  0.7975864278423972  0.06391353529237162  0.749024406791364  1.0000
  C   C6        1.0  0.7024048140308636  0.4360869135459993  0.2490237657409012  1.0000
  C   C7        1.0  0.20240321596423164  0.93606406644421  0.2509848142757393  1.0000
  C   C8        1.0  0.29759499306913983  0.5639077478594743  0.7509731055350459  1.0000
  Br  Br1       1.0  0.318712639132798  0.17798314714646324  0.5508278316497057  1.0000
  Br  Br2       1.0  0.1812826060636894  0.32202113367285523  0.050851748075359623  1.0000
  Br  Br3       1.0  0.6812893490962254  0.8220183506171566  0.4491649230279295  1.0000
  Br  Br4       1.0  0.8187109204299078  0.6779735693742382  0.9491574730033965  1.0000
  N   N1        1.0  0.6242609421921657  0.1653083457751165  0.9023080050382435  1.0000
  N   N2        1.0  0.8757227520764346  0.3346763741224875  0.40229850996536254  1.0000
  N   N3        1.0  0.37571035465590813  0.8346807956222406  0.09771459497002873  1.0000
  N   N4        1.0  0.124275121351225  0.6653171583005956  0.5977024779113196  1.0000
  N   N5        1.0  0.6654129146868968  0.030057255711440706  0.8559046252190474  1.0000
  N   N6        1.0  0.834589925275104  0.4699535363092976  0.3559095225792675  1.0000
  N   N7        1.0  0.3346028567487027  0.9699578523175634  0.14407886712409382  1.0000
  N   N8        1.0  0.16541654131952302  0.530057066200527  0.6440935236175351  1.0000
  N   N9        1.0  0.8437381069703493  0.21518082059122176  0.7234213086808412  1.0000
  N   N10       1.0  0.6562556663749463  0.2848081589770644  0.22341734118573706  1.0000
  N   N11       1.0  0.1562652192958822  0.78482980273197  0.2765765917567934  1.0000
  N   N12       1.0  0.3437442721130851  0.7151967777857636  0.7765785009431811  1.0000
