data_image0
_chemical_formula_structural       Zn2H37C56N7O18
_chemical_formula_sum              "Zn2 H37 C56 N7 O18"
_cell_length_a       9.898198006447098
_cell_length_b       10.962155214037253
_cell_length_c       23.557263815127506
_cell_angle_alpha    86.63978843232498
_cell_angle_beta     89.89275107356808
_cell_angle_gamma    86.83406344858267

_space_group_name_H-M_alt    "P 1"
_space_group_IT_number       1

loop_
  _space_group_symop_operation_xyz
  'x, y, z'

loop_
  _atom_site_type_symbol
  _atom_site_label
  _atom_site_symmetry_multiplicity
  _atom_site_fract_x
  _atom_site_fract_y
  _atom_site_fract_z
  _atom_site_occupancy
  Zn  Zn1       1.0  0.6471856126867763  0.4901843055962161  0.4991314250701393  1.0000
  Zn  Zn2       1.0  0.350608378367042  0.5033458308308735  0.4997917211014524  1.0000
  H   H1        1.0  0.25938501119071583  0.34436203129139636  0.0589315265544954  1.0000
  H   H2        1.0  0.24178129370174867  0.354760952203172  0.9513310887017141  1.0000
  H   H3        1.0  0.2996006429203888  0.6091990480596863  0.326910519715284  1.0000
  H   H4        1.0  0.7015727226092635  0.44554999141310236  0.3134519595024514  1.0000
  H   H5        1.0  0.6842466527765724  0.4722936297112523  0.20695543761703314  1.0000
  H   H6        1.0  0.4032860044871215  0.7412542196215168  0.7601169043553427  1.0000
  H   H7        1.0  0.4246051805959894  0.7005564486151099  0.6572070477529408  1.0000
  H   H8        1.0  0.543553504119771  0.36876369309513285  0.8035148013287383  1.0000
  H   H9        1.0  0.3244203265033434  0.9111881308692914  0.45070681591437983  1.0000
  H   H10       1.0  0.6541987323850051  0.7383618146037351  0.5867549775043984  1.0000
  H   H11       1.0  0.8371194482641613  0.8195477974308429  0.6408050938579208  1.0000
  H   H12       1.0  0.7354011650061524  0.18266244063661216  0.5688134983693374  1.0000
  H   H13       1.0  0.24039228869595772  0.6524911260255307  0.4179746968804565  1.0000
  H   H14       1.0  0.10867972723187341  0.798212634172664  0.352782323545668  1.0000
  H   H15       1.0  0.8567285553306194  0.8150240274534892  0.35783212373441137  1.0000
  H   H16       1.0  0.7361395051906428  0.6808570900376906  0.42769057839355906  1.0000
  H   H17       1.0  0.8710155240671753  0.38216529838591373  0.5651604480738754  1.0000
  H   H18       1.0  0.387621742232895  0.20519792598052794  0.7200334050532505  1.0000
  H   H19       1.0  0.39878496955164183  0.25495275342710494  0.646993235210644  1.0000
  H   H20       1.0  0.4931730633562452  0.12100481257333229  0.6730057992447698  1.0000
  H   H21       1.0  0.6432276426671706  0.2960904456327497  0.6600230913175622  1.0000
  H   H22       1.0  0.6359531295397788  0.24334135541707974  0.7322078144548599  1.0000
  H   H23       1.0  0.8553430104192118  0.2301050641788862  0.6593561735602762  1.0000
  H   H24       1.0  0.8415503241593713  0.11152177952904198  0.7131660875909702  1.0000
  H   H25       1.0  0.0020181369761545025  0.16916607901074338  0.6963573822738809  1.0000
  H   H26       1.0  0.9851588240171054  0.9685007066375559  0.6540710059816632  1.0000
  H   H27       1.0  0.9949022089499167  0.08500661132823237  0.6000243894030959  1.0000
  H   H28       1.0  0.17740031509863746  0.5032450617773349  0.6386552106909065  1.0000
  H   H29       1.0  0.018624314820499397  0.4366778633849223  0.6517580374830487  1.0000
  H   H30       1.0  0.17186821790258483  0.3567466004413616  0.6744428310856065  1.0000
  H   H31       1.0  0.08943733720381891  0.2690954919632134  0.5860674328741169  1.0000
  H   H32       1.0  0.24487332816107002  0.33711753975556746  0.5725721608030341  1.0000
  H   H33       1.0  0.27316081175307255  0.836804780636804  0.2640568091324624  1.0000
  H   H34       1.0  0.3546657632013464  0.8446447577917481  0.19713868471928467  1.0000
  H   H35       1.0  0.17484021844212802  0.8642923616019542  0.2009452167705348  1.0000
  H   H36       1.0  0.23909244411422048  0.6535447624236708  0.1712391115135503  1.0000
  H   H37       1.0  0.1622122770791208  0.6453817869988753  0.23861443221723994  1.0000
  C   C1        1.0  0.47247324938847163  0.7334113460900014  0.5046551003413313  1.0000
  C   C2        1.0  0.5069710450811231  0.5077108766972102  0.3895969046516398  1.0000
  C   C3        1.0  0.527159277273789  0.25925152652649786  0.5043418272976012  1.0000
  C   C4        1.0  0.5085563686872449  0.4969177939327593  0.6101914039778435  1.0000
  C   C5        1.0  0.36841934724804304  0.49984989357959353  0.8778425479661037  1.0000
  C   C6        1.0  0.5384388653348822  0.6609562521253949  0.8710315514740259  1.0000
  C   C7        1.0  0.5296257494548797  0.669044127565172  0.9338703075993848  1.0000
  C   C8        1.0  0.4558018741738294  0.5836927928081577  0.9670840448503526  1.0000
  C   C9        1.0  0.3755194921133693  0.5003560811851314  0.9405816252815242  1.0000
  C   C10       1.0  0.6017989515927269  0.7530337421222129  0.961637056736521  1.0000
  C   C11       1.0  0.6090875598880459  0.7493479598206249  0.021513386665091592  1.0000
  C   C12       1.0  0.5386834200503827  0.6657719456547894  0.054969814235434504  1.0000
  C   C13       1.0  0.46087300033416784  0.5816030413829266  0.027572548934905704  1.0000
  C   C14       1.0  0.389648136402407  0.49285839438817886  0.05976471614822999  1.0000
  C   C15       1.0  0.3119909036707611  0.41188769070731707  0.0327219172062243  1.0000
  C   C16       1.0  0.30329045696335305  0.41685389350408997  0.973208828699093  1.0000
  C   C17       1.0  0.5398691670245627  0.6663369464005625  0.1182483389781197  1.0000
  C   C18       1.0  0.3998818523688073  0.48273238340149743  0.12259073150606531  1.0000
  C   C19       1.0  0.375202187311416  0.6038428824174316  0.2413252988423054  1.0000
  C   C20       1.0  0.3849174157542024  0.5821330212502787  0.300266352284055  1.0000
  C   C21       1.0  0.5008849356462406  0.5259401775705965  0.3262055720638203  1.0000
  C   C22       1.0  0.6112414403009582  0.4886957855828414  0.292864136383443  1.0000
  C   C23       1.0  0.6018097722676571  0.5044975797827076  0.2339922035158111  1.0000
  C   C24       1.0  0.4851364031256652  0.5613408561175318  0.2090207438614655  1.0000
  C   C25       1.0  0.4389754221356341  0.6515020302074461  0.7469829686721426  1.0000
  C   C26       1.0  0.4520870556423163  0.6285132161688125  0.6897039101832263  1.0000
  C   C27       1.0  0.4998137578113813  0.5133964893012715  0.6729578966589501  1.0000
  C   C28       1.0  0.533705117343672  0.41753125985744777  0.7136675682209487  1.0000
  C   C29       1.0  0.5194046633893024  0.4417168430292265  0.7710274257049932  1.0000
  C   C30       1.0  0.47288206323656823  0.5568156021661677  0.7872809240876536  1.0000
  C   C31       1.0  0.6709586474038718  0.8356658874707177  0.5825703538378022  1.0000
  C   C32       1.0  0.774127008490453  0.8814065204518255  0.6125643933925531  1.0000
  C   C33       1.0  0.8026924145764767  0.006823028822218197  0.6067463637753647  1.0000
  C   C34       1.0  0.716978242567869  0.08563411433903668  0.5735897262207246  1.0000
  C   C35       1.0  0.6086344035471427  0.042592976602094296  0.5419591145154925  1.0000
  C   C36       1.0  0.5885982177577915  0.913109409588628  0.5447978198721231  1.0000
  C   C37       1.0  0.4862022215244153  0.8674376631983662  0.510380947345574  1.0000
  C   C38       1.0  0.40284916394649173  0.9462306662502653  0.47663152361547384  1.0000
  C   C39       1.0  0.4237840365647898  0.07169585249735629  0.474192613058932  1.0000
  C   C40       1.0  0.5220449308145164  0.12234673793775387  0.5058444727978255  1.0000
  C   C41       1.0  0.1307944876919365  0.6590137529274996  0.4200276015811255  1.0000
  C   C42       1.0  0.05627104918949752  0.7398286210360255  0.3837097711102473  1.0000
  C   C43       1.0  0.9134980950881583  0.7491676217196712  0.3863322211873382  1.0000
  C   C44       1.0  0.8457825007123392  0.6752021484670436  0.4247403859913419  1.0000
  C   C45       1.0  0.9197419120493254  0.5903686567173877  0.46188911568810914  1.0000
  C   C46       1.0  0.06482977225198282  0.583208325438349  0.4606982197717926  1.0000
  C   C47       1.0  0.06984730423236842  0.43644725930390377  0.5367904488371806  1.0000
  C   C48       1.0  0.9260873223730357  0.4410449521469174  0.5353644093824954  1.0000
  C   C49       1.0  0.5765106961509332  0.29022004821278796  0.6972159547092858  1.0000
  C   C50       1.0  0.4567437619341774  0.2134442182952796  0.6835939021783872  1.0000
  C   C51       1.0  0.9288013489267685  0.0490958196550224  0.6341210028371123  1.0000
  C   C52       1.0  0.9054469292539693  0.1454035973500751  0.6781435629176897  1.0000
  C   C53       1.0  0.13852447058362571  0.3570047024724444  0.5831804644773015  1.0000
  C   C54       1.0  0.1251509745584229  0.4174887984419655  0.6404327614038793  1.0000
  C   C55       1.0  0.25306400455380634  0.6746652564616653  0.2157956746078113  1.0000
  C   C56       1.0  0.2643151540164085  0.8132806895923893  0.21952657704410683  1.0000
  N   N1        1.0  0.4586333231065113  0.574794241660271  0.8472631650616336  1.0000
  N   N2        1.0  0.4768545054563518  0.5701560791566109  0.1475414755656672  1.0000
  N   N3        1.0  0.1373711655410546  0.5049485830855288  0.49899925499450865  1.0000
  N   N4        1.0  0.8536237204468549  0.5140827792238198  0.49933742331928244  1.0000
  N   N5        1.0  0.6731761192662874  0.8511726430076151  0.9295344883482031  1.0000
  N   N6        1.0  0.3402192202672795  0.1478991626368895  0.432414765327799  1.0000
  N   N7        1.0  0.6980132296835893  0.8364291772670214  0.0472870139657573  1.0000
  O   O1        1.0  0.5833029085150301  0.6689923613664772  0.5018808659627325  1.0000
  O   O2        1.0  0.3546820023082091  0.6950958169398119  0.5007470645543393  1.0000
  O   O3        1.0  0.623215031242026  0.4936309740307791  0.41253261225763543  1.0000
  O   O4        1.0  0.3941017071751959  0.5103469754279572  0.4159210021749118  1.0000
  O   O5        1.0  0.642090555211624  0.3047176224036861  0.49997216826230334  1.0000
  O   O6        1.0  0.413183460013741  0.31750048282906107  0.5088033486719752  1.0000
  O   O7        1.0  0.6240939704475323  0.4743547609324636  0.5881858865843412  1.0000
  O   O8        1.0  0.39605310964327606  0.5115366991898965  0.58405816001315  1.0000
  O   O9        1.0  0.2922042889233794  0.4358266679910796  0.8532956119617765  1.0000
  O   O10       1.0  0.6148897211415302  0.7227704322607165  0.841824782061103  1.0000
  O   O11       1.0  0.5919022126264296  0.7465649268463536  0.1435304169132934  1.0000
  O   O12       1.0  0.3448174902684046  0.40394878614536384  0.1519608644377257  1.0000
  O   O13       1.0  0.601332320792352  0.9387453760571204  0.9098909140306759  1.0000
  O   O14       1.0  0.7977316050285167  0.8387844215499171  0.928505886834941  1.0000
  O   O15       1.0  0.3992842695397698  0.21674772591154576  0.3983993588889946  1.0000
  O   O16       1.0  0.2168293430249975  0.1329889705465561  0.4328080696795595  1.0000
  O   O17       1.0  0.8098038911162533  0.7942399453316396  0.0637544340983567  1.0000
  O   O18       1.0  0.6538678876046475  0.9439642131943274  0.046613153133200996  1.0000
