data_image0
_chemical_formula_structural       Zn24H144C144N96
_chemical_formula_sum              "Zn24 H144 C144 N96"
_cell_length_a       9.722613476009615
_cell_length_b       23.65937868900675
_cell_length_c       41.72015283405003
_cell_angle_alpha    90.00007951025721
_cell_angle_beta     89.99984210446654
_cell_angle_gamma    90.00003504240063

_space_group_name_H-M_alt    "P 1"
_space_group_IT_number       1

loop_
  _space_group_symop_operation_xyz
  'x, y, z'

loop_
  _atom_site_type_symbol
  _atom_site_label
  _atom_site_symmetry_multiplicity
  _atom_site_fract_x
  _atom_site_fract_y
  _atom_site_fract_z
  _atom_site_occupancy
  Zn  Zn1       1.0  0.7974050148032105  0.5025769771846385  0.9166590957519674  1.0000
  Zn  Zn2       1.0  0.7025949940621886  0.4974227919512443  0.41665927787257573  1.0000
  Zn  Zn3       1.0  0.2974070259395418  0.9974229736075981  0.5833406801869572  1.0000
  Zn  Zn4       1.0  0.20259421136078967  0.0025775412881116995  0.0833411936944941  1.0000
  Zn  Zn5       1.0  0.2025956082768943  0.49742231950086346  0.08334138753917131  1.0000
  Zn  Zn6       1.0  0.29740562902139084  0.5025773500643994  0.5833407260342655  1.0000
  Zn  Zn7       1.0  0.7025935971440375  0.0025771684080452997  0.4166593237198839  1.0000
  Zn  Zn8       1.0  0.797404354665872  0.9974230233920592  0.9166583308285398  1.0000
  Zn  Zn9       1.0  0.7002407816632187  0.3757593695311456  0.0391567787903853  1.0000
  Zn  Zn10      1.0  0.7997626796497456  0.6242398943812262  0.5391564507881769  1.0000
  Zn  Zn11      1.0  0.20023775619024062  0.1242401177854404  0.4608434545909574  1.0000
  Zn  Zn12      1.0  0.2997590001326529  0.8757592116718769  0.960843323643829  1.0000
  Zn  Zn13      1.0  0.2997588128885909  0.6242403498192957  0.9608434648089386  1.0000
  Zn  Zn14      1.0  0.20024000049327384  0.3757594023039417  0.4608435531176697  1.0000
  Zn  Zn15      1.0  0.7997638954230554  0.8757596015649651  0.5391565493153934  1.0000
  Zn  Zn16      1.0  0.7002395658936961  0.1242409303429213  0.039156200879041606  1.0000
  Zn  Zn17      1.0  0.7953146600503375  0.37644756041774485  0.7918560526242829  1.0000
  Zn  Zn18      1.0  0.7046827161134886  0.6235535926177818  0.29185657191835196  1.0000
  Zn  Zn19      1.0  0.29531669016784434  0.12355233443859959  0.7081442916921077  1.0000
  Zn  Zn20      1.0  0.20468100864957248  0.8764467965575735  0.20814405035017816  1.0000
  Zn  Zn21      1.0  0.20468493450351838  0.6235530042631439  0.20814395128305566  1.0000
  Zn  Zn22      1.0  0.2953148213807708  0.3764457040664482  0.7081431922968308  1.0000
  Zn  Zn23      1.0  0.7046818758550304  0.8764469622460566  0.2918557122150673  1.0000
  Zn  Zn24      1.0  0.795317557372506  0.12355334545811297  0.7918561932496362  1.0000
  H   H1        1.0  0.7992939539453231  0.47585785683548204  0.9925888161133474  1.0000
  H   H2        1.0  0.7007000109865587  0.5241437895927985  0.49258806160919744  1.0000
  H   H3        1.0  0.2993023328841389  0.024144575013295404  0.5074112859637909  1.0000
  H   H4        1.0  0.20069672011494077  0.9758557532495686  0.007411364746012302  1.0000
  H   H5        1.0  0.20069844089463368  0.524143553176117  0.0074119068735712  1.0000
  H   H6        1.0  0.2993026691624721  0.4758559297565625  0.5074109835275564  1.0000
  H   H7        1.0  0.7006982902014869  0.975856412332796  0.49258847825106505  1.0000
  H   H8        1.0  0.7992997888541779  0.024144388764384003  0.9925876803928873  1.0000
  H   H9        1.0  0.628340958406575  0.3168544785664976  0.9708801152690045  1.0000
  H   H10       1.0  0.8716635495064293  0.683145423842646  0.47087961565217284  1.0000
  H   H11       1.0  0.12833491697571733  0.18314495167469858  0.5291205755696566  1.0000
  H   H12       1.0  0.37166284980357034  0.8168545846177224  0.029120420399131302  1.0000
  H   H13       1.0  0.3716606932024575  0.683145240784789  0.029120607714290304  1.0000
  H   H14       1.0  0.12833707357635402  0.3168555635040278  0.5291206279473145  1.0000
  H   H15       1.0  0.8716636490446278  0.8168547676759061  0.47087990772230637  1.0000
  H   H16       1.0  0.6283377732820624  0.1831464027283687  0.9708793438157245  1.0000
  H   H17       1.0  0.6707476312301993  0.3763044118311142  0.91441316981598  1.0000
  H   H18       1.0  0.8292585754788602  0.6236953517842707  0.414412650753242  1.0000
  H   H19       1.0  0.17074391660971602  0.12369460639860821  0.5855872541982308  1.0000
  H   H20       1.0  0.3292562654988842  0.8763063366833136  0.0855869330447518  1.0000
  H   H21       1.0  0.32925504890966556  0.6236944621892774  0.08558731347433482  1.0000
  H   H22       1.0  0.17074513319750648  0.3763064808929427  0.5855871134609602  1.0000
  H   H23       1.0  0.829256706473231  0.876304690286304  0.4144127497082765  1.0000
  H   H24       1.0  0.6707433290604996  0.12369591865815718  0.9144123517863038  1.0000
  H   H25       1.0  0.877274722662385  0.40677051921341706  0.8648186185535353  1.0000
  H   H26       1.0  0.6227269300795442  0.5932299678319026  0.3648194062184729  1.0000
  H   H27       1.0  0.3772744881182462  0.0932298188977754  0.635180714557535  1.0000
  H   H28       1.0  0.1227261338359114  0.9067704007539845  0.13518150817629504  1.0000
  H   H29       1.0  0.12272898601162298  0.5932300454679835  0.13518138535248886  1.0000
  H   H30       1.0  0.3772726644754201  0.4067701741833219  0.6351803579963828  1.0000
  H   H31       1.0  0.6227271634964779  0.9067699004523392  0.3648190496564965  1.0000
  H   H32       1.0  0.8772744892476682  0.09322974126166632  0.864818495730546  1.0000
  H   H33       1.0  0.5950403407683069  0.4832187366344058  0.801705595109361  1.0000
  H   H34       1.0  0.9049558899568524  0.5167811726132996  0.3017049438504317  1.0000
  H   H35       1.0  0.09504438588813001  0.0167811079069722  0.6982948773392152  1.0000
  H   H36       1.0  0.4049565154288289  0.9832184215462475  0.19829531059260572  1.0000
  H   H37       1.0  0.4049571967188399  0.5167805600513021  0.19829536756739694  1.0000
  H   H38       1.0  0.09504164754088149  0.4832189694010722  0.6982943409804534  1.0000
  H   H39       1.0  0.904957265725173  0.9832186114434334  0.30170512656713566  1.0000
  H   H40       1.0  0.5950420505943583  0.0167812978037745  0.8017046933147257  1.0000
  H   H41       1.0  0.5976504515443325  0.542423659312881  0.8594194520631433  1.0000
  H   H42       1.0  0.9023502367647822  0.4575768144595216  0.3594187560883384  1.0000
  H   H43       1.0  0.09765172390957841  0.9575758186301401  0.6405811707530944  1.0000
  H   H44       1.0  0.4023508910008005  0.042423146299746896  0.1405818273696937  1.0000
  H   H45       1.0  0.40235120006470737  0.4575760600384128  0.1405812709201442  1.0000
  H   H46       1.0  0.09764935779302418  0.5424233275551131  0.6405805287418858  1.0000
  H   H47       1.0  0.9023499277030922  0.042423055389534184  0.3594188331529224  1.0000
  H   H48       1.0  0.5976497320810451  0.9575765730508222  0.8594184162293032  1.0000
  H   H49       1.0  0.5218194401597813  0.5258620470049564  0.9546175870550543  1.0000
  H   H50       1.0  0.9781821752016454  0.47413781543076544  0.45461685553937076  1.0000
  H   H51       1.0  0.0218239242502776  0.9741365665565879  0.5453830842754928  1.0000
  H   H52       1.0  0.47817776361205927  0.025863009709091497  0.04538296032740871  1.0000
  H   H53       1.0  0.4781801543934492  0.47413767234519366  0.045382416851950304  1.0000
  H   H54       1.0  0.021823590534488298  0.525863594581331  0.5453829086740073  1.0000
  H   H55       1.0  0.9781777273647589  0.0258635754588923  0.4546166799387026  1.0000
  H   H56       1.0  0.5218187453508989  0.9741384003024366  0.9546172832735638  1.0000
  H   H57       1.0  0.545636376820191  0.6964928695774688  0.9262953626868295  1.0000
  H   H58       1.0  0.9543624891325705  0.3035069232438161  0.4262954714968786  1.0000
  H   H59       1.0  0.045641299200980305  0.8035061726333624  0.5737055330983055  1.0000
  H   H60       1.0  0.4543621095317647  0.19649389591376118  0.0737055580696975  1.0000
  H   H61       1.0  0.45436116067296684  0.30350684977242537  0.07370464122083582  1.0000
  H   H62       1.0  0.0456412195360585  0.6964940641041293  0.5737054911785651  1.0000
  H   H63       1.0  0.9543603524109016  0.19649354671734187  0.4262947105003576  1.0000
  H   H64       1.0  0.5456364564869958  0.8035075140989036  0.9262954046075578  1.0000
  H   H65       1.0  0.7815246745804103  0.6400315441707747  0.9063435165316921  1.0000
  H   H66       1.0  0.7184733996672393  0.3599673542795044  0.4063442998795708  1.0000
  H   H67       1.0  0.28152944420176607  0.8599671346363565  0.5936565092581959  1.0000
  H   H68       1.0  0.21847269917995496  0.14003340561527008  0.09365688060579201  1.0000
  H   H69       1.0  0.21847286291590248  0.35996859784389573  0.09365600799150543  1.0000
  H   H70       1.0  0.2815303090010772  0.6400332104030824  0.5936566627957092  1.0000
  H   H71       1.0  0.7184701503489278  0.1400330073797491  0.4063439740336037  1.0000
  H   H72       1.0  0.781525866840539  0.8599684270624766  0.9063438423793146  1.0000
  H   H73       1.0  0.0082036504337779  0.42606787127112267  0.0374604776727381  1.0000
  H   H74       1.0  0.4917950458805151  0.573932953516909  0.5374604667798836  1.0000
  H   H75       1.0  0.5082001724031572  0.0739311451342601  0.46253987857136286  1.0000
  H   H76       1.0  0.9917962062667983  0.926066623447042  0.9625394244833249  1.0000
  H   H77       1.0  0.9917949155925712  0.5739322707436756  0.9625390468501325  1.0000
  H   H78       1.0  0.5082024916096302  0.4260684564953365  0.4625402562053864  1.0000
  H   H79       1.0  0.4917963365572787  0.9260668835543199  0.5374603650282808  1.0000
  H   H80       1.0  0.008202359761135399  0.073931827905696  0.037459620654253505  1.0000
  H   H81       1.0  0.9168148612215958  0.5094198158103181  0.12412433171665073  1.0000
  H   H82       1.0  0.5831845059352574  0.4905792342828688  0.6241233184825676  1.0000
  H   H83       1.0  0.4168133897580546  0.9905789359981655  0.3758763945241412  1.0000
  H   H84       1.0  0.083185403661048  0.009418916616311898  0.8758757233976696  1.0000
  H   H85       1.0  0.08318370480475319  0.4905803262044799  0.8758751928062198  1.0000
  H   H86       1.0  0.41681508861828587  0.5094209077326468  0.3758766854246006  1.0000
  H   H87       1.0  0.5831851762662482  0.009420360686192501  0.6241233696907146  1.0000
  H   H88       1.0  0.91681213383859  0.990579957401373  0.12412308204809362  1.0000
  H   H89       1.0  0.6826526028325901  0.45433758593173934  0.10212063056215472  1.0000
  H   H90       1.0  0.8173470255075727  0.5456618327429082  0.602119990053481  1.0000
  H   H91       1.0  0.18265123628228958  0.045662319631127  0.3978791346868675  1.0000
  H   H92       1.0  0.3173472959582355  0.954337700393502  0.8978795334348888  1.0000
  H   H93       1.0  0.31734699172411496  0.5456629787485597  0.8978788939605524  1.0000
  H   H94       1.0  0.18265359757711508  0.45433788660707125  0.39787977416087733  1.0000
  H   H95       1.0  0.8173473297434269  0.9543369770529322  0.6021203898356688  1.0000
  H   H96       1.0  0.6826502415383969  0.045662864286534  0.10211999108847891  1.0000
  H   H97       1.0  0.510157942799502  0.3315988870973356  0.7609621838412794  1.0000
  H   H98       1.0  0.9898408286040803  0.6684017673372581  0.2609630352169177  1.0000
  H   H99       1.0  0.010162758568817798  0.16839670946473723  0.7390378635273864  1.0000
  H   H100      1.0  0.48983868765841987  0.8315982708133729  0.23903740461123857  1.0000
  H   H101      1.0  0.4898426802854985  0.6684012549180167  0.23903758037324252  1.0000
  H   H102      1.0  0.0101587659486739  0.3315992200092878  0.7390372083828964  1.0000
  H   H103      1.0  0.9898347789225994  0.8316025872200826  0.2609623800724279  1.0000
  H   H104      1.0  0.5101598783647745  0.168401448536649  0.7609625992961001  1.0000
  H   H105      1.0  0.5462156201622365  0.4628271064738598  0.6932024048248665  1.0000
  H   H106      1.0  0.9537839555568296  0.5371729587434046  0.1932026970727705  1.0000
  H   H107      1.0  0.046219436228000205  0.0371689218134605  0.8067985782443258  1.0000
  H   H108      1.0  0.4537832627419219  0.9628279156789362  0.3067972864393269  1.0000
  H   H109      1.0  0.45378397438925333  0.5371721902112156  0.3067978387742869  1.0000
  H   H110      1.0  0.046215638997026104  0.462827605937484  0.8067973068345681  1.0000
  H   H111      1.0  0.9537791297934533  0.9628303748714871  0.19320166535516142  1.0000
  H   H112      1.0  0.5462153032844271  0.037172226335862  0.6932022380835436  1.0000
  H   H113      1.0  0.7786498054872979  0.4615651047678639  0.7321657538753001  1.0000
  H   H114      1.0  0.7213503362662478  0.5384346335543666  0.232165716435297  1.0000
  H   H115      1.0  0.278655114457763  0.03843140458038621  0.7678355598699299  1.0000
  H   H116      1.0  0.22134804700487357  0.9615657598077547  0.26783441578506745  1.0000
  H   H117      1.0  0.2213497890627707  0.53843419191751  0.2678347294161725  1.0000
  H   H118      1.0  0.27865131534878873  0.46156550846111344  0.767834047778905  1.0000
  H   H119      1.0  0.7213434515657442  0.9615687374350016  0.2321644440375721  1.0000
  H   H120      1.0  0.7786515475511989  0.03843395954180549  0.7321651087373056  1.0000
  H   H121      1.0  0.6230331717925353  0.24999948149100243  0.0190182853331748  1.0000
  H   H122      1.0  0.8769695000508263  0.7499997329183115  0.5190153698469686  1.0000
  H   H123      1.0  0.12303112303781208  0.24999956376542093  0.4809836752902825  1.0000
  H   H124      1.0  0.3769684798232973  0.7499998151934476  0.980981239188374  1.0000
  H   H125      1.0  0.9210380936228474  0.3088582874294303  0.08412847310176372  1.0000
  H   H126      1.0  0.578973062109334  0.691142355020133  0.584129057851982  1.0000
  H   H127      1.0  0.4210346730439056  0.19114167802430865  0.41587209840133005  1.0000
  H   H128      1.0  0.0789615885641837  0.8088579635596744  0.9158715769182137  1.0000
  H   H129      1.0  0.07896150093353782  0.6911418545855028  0.91587105142078  1.0000
  H   H130      1.0  0.42103476067707385  0.30885736433252475  0.41587214451396903  1.0000
  H   H131      1.0  0.5789741782722332  0.8088576186631045  0.5841291039641234  1.0000
  H   H132      1.0  0.9210390345182945  0.19114260112163348  0.0841286666811101  1.0000
  H   H133      1.0  0.8241423636275654  0.25000042387684823  0.7652633300215045  1.0000
  H   H134      1.0  0.6758563567235427  0.749999818463891  0.2652637271321083  1.0000
  H   H135      1.0  0.3241411807707165  0.2499994782203387  0.7347360370830743  1.0000
  H   H136      1.0  0.17585620240068783  0.7499984501412557  0.2347357151162371  1.0000
  H   H137      1.0  0.7042749192095671  0.30873367762303866  0.8563409580145631  1.0000
  H   H138      1.0  0.7957237485726127  0.6912684792458137  0.35634195149822295  1.0000
  H   H139      1.0  0.20427473000115268  0.19126619435979825  0.6436584857792839  1.0000
  H   H140      1.0  0.2957309339748874  0.8087332007991322  0.1436586125211221  1.0000
  H   H141      1.0  0.2957359891811747  0.691269845715958  0.1436583268133731  1.0000
  H   H142      1.0  0.20427173186126169  0.3087303947727875  0.643657812717457  1.0000
  H   H143      1.0  0.7957248645503369  0.8087331023252773  0.35634175781986954  1.0000
  H   H144      1.0  0.7042727746975288  0.19126905454432833  0.8563418707701872  1.0000
  C   C1        1.0  0.7587658112553941  0.440518360846383  0.9789066985301247  1.0000
  C   C2        1.0  0.7412355157922048  0.5594824066221732  0.4789061854732496  1.0000
  C   C3        1.0  0.25876893775203774  0.0594823701583209  0.5210934294773963  1.0000
  C   C4        1.0  0.24122995284064067  0.9405175690690724  0.021093214948784605  1.0000
  C   C5        1.0  0.24123069770661223  0.5594817811690476  0.0210935450703502  1.0000
  C   C6        1.0  0.25877127847617487  0.44051815805872957  0.5210930993548432  1.0000
  C   C7        1.0  0.7412327138630063  0.9405177718571591  0.4789063347368057  1.0000
  C   C8        1.0  0.7587655275984418  0.05948257294475209  0.9789058301904422  1.0000
  C   C9        1.0  0.6704264039785527  0.35878964638757077  0.9671241396629355  1.0000
  C   C10       1.0  0.8295791770467531  0.6412102467899318  0.46712387380932807  1.0000
  C   C11       1.0  0.1704212840580794  0.1412093717612777  0.532876284557247  1.0000
  C   C12       1.0  0.3295774666707203  0.8587905964281219  0.03287618916765211  1.0000
  C   C13       1.0  0.3295762761587824  0.6412096502987766  0.03287682301217391  1.0000
  C   C14       1.0  0.170421446033501  0.35879116322269783  0.5328768491749544  1.0000
  C   C15       1.0  0.8295793390226578  0.8587907702549631  0.4671241987342258  1.0000
  C   C16       1.0  0.6704210993537244  0.14121081358337048  0.9671238147403473  1.0000
  C   C17       1.0  0.6918539587558071  0.3881365390629909  0.9390425117979221  1.0000
  C   C18       1.0  0.8081529841326613  0.6118628624249708  0.4390417572760584  1.0000
  C   C19       1.0  0.19185154740097943  0.11186332980020812  0.5609578987126582  1.0000
  C   C20       1.0  0.30814995558797165  0.8881375527440339  0.060957840024741514  1.0000
  C   C21       1.0  0.3081507784468087  0.6118640256188356  0.0609577318000873  1.0000
  C   C22       1.0  0.19185175307422503  0.38813770225597477  0.5609577672450073  1.0000
  C   C23       1.0  0.8081501042115349  0.8881372348812278  0.43904234488633165  1.0000
  C   C24       1.0  0.6918496389693587  0.11186385726699649  0.9390416844982997  1.0000
  C   C25       1.0  0.8003952649721099  0.4357505490353404  0.855480002228319  1.0000
  C   C26       1.0  0.6996054700918606  0.5642503377208357  0.3554804783102909  1.0000
  C   C27       1.0  0.30039590495766794  0.0642493470963501  0.64451961976107  1.0000
  C   C28       1.0  0.1996066632041718  0.9357500501793226  0.1445201472056681  1.0000
  C   C29       1.0  0.1996084437012655  0.5642491703153285  0.1445200016773711  1.0000
  C   C30       1.0  0.30039206740413965  0.4357493816284688  0.6445190462127428  1.0000
  C   C31       1.0  0.6996057466535816  0.9357495269236159  0.3554806238372592  1.0000
  C   C32       1.0  0.800393959880516  0.06424966917066402  0.8554796170086973  1.0000
  C   C33       1.0  0.6537939562706541  0.47602542882664517  0.8234387153575469  1.0000
  C   C34       1.0  0.8462030450100998  0.52397537917156  0.3234383470164772  1.0000
  C   C35       1.0  0.15379929860919359  0.023975275805504702  0.6765610004242221  1.0000
  C   C36       1.0  0.34620391775033704  0.9760246228922326  0.17656146563130193  1.0000
  C   C37       1.0  0.34620358122107575  0.5239742905235403  0.1765615282424307  1.0000
  C   C38       1.0  0.1537944924876342  0.47602476284281897  0.6765609378144077  1.0000
  C   C39       1.0  0.84620441006561  0.9760244435448656  0.32343876378914876  1.0000
  C   C40       1.0  0.6537956768028933  0.023975096457917303  0.8234385382757026  1.0000
  C   C41       1.0  0.6550825566283932  0.505310679455917  0.8520114884764355  1.0000
  C   C42       1.0  0.8449171910818266  0.4946897761082029  0.3520110980150051  1.0000
  C   C43       1.0  0.1550868819131139  0.9946892355807223  0.6479883785177591  1.0000
  C   C44       1.0  0.3449187306604955  0.0053097475568221995  0.14798952218746564  1.0000
  C   C45       1.0  0.3449180664523368  0.4946894625603236  0.1479889948150372  1.0000
  C   C46       1.0  0.1550803464152821  0.5053095205754374  0.6479881868155459  1.0000
  C   C47       1.0  0.844917855290774  0.005309215773671401  0.3520113856947944  1.0000
  C   C48       1.0  0.6550818924199219  0.9946899717940451  0.8520109611038366  1.0000
  C   C49       1.0  0.5603595797793304  0.5648951858372369  0.9442489798699542  1.0000
  C   C50       1.0  0.9396401015969075  0.4351050737781891  0.4442484821239887  1.0000
  C   C51       1.0  0.06036285414815269  0.9351042827373917  0.5557516668038434  1.0000
  C   C52       1.0  0.4396387106356556  0.06489574167994759  0.0557520774774645  1.0000
  C   C53       1.0  0.4396410433031406  0.4351053788440711  0.055751263729369824  1.0000
  C   C54       1.0  0.06036257854421479  0.5648954909036733  0.5557520011669865  1.0000
  C   C55       1.0  0.9396377689351141  0.0648954366128862  0.4442483371028346  1.0000
  C   C56       1.0  0.5603588268544896  0.9351056683322978  0.9442486455078055  1.0000
  C   C57       1.0  0.5757444860215627  0.6526599424228365  0.929319054434018  1.0000
  C   C58       1.0  0.9242533155105549  0.34733943516485505  0.42931897715597245  1.0000
  C   C59       1.0  0.07574950955640962  0.8473386846867469  0.5706818220881476  1.0000
  C   C60       1.0  0.4242549635980808  0.15266137642831273  0.07068183198109071  1.0000
  C   C61       1.0  0.4242540800002033  0.3473397769274839  0.0706811891656329  1.0000
  C   C62       1.0  0.07574730756623177  0.6526611295176323  0.5706822252126074  1.0000
  C   C63       1.0  0.9242521420557848  0.152661457329323  0.4293184215106792  1.0000
  C   C64       1.0  0.5757446309524495  0.8473404562495617  0.9293188910036889  1.0000
  C   C65       1.0  0.6924024583481981  0.6246144069642128  0.9193228778398181  1.0000
  C   C66       1.0  0.8075975188954485  0.3753845233888102  0.4193233765542602  1.0000
  C   C67       1.0  0.1924063764574768  0.8753834041220615  0.5806774446615252  1.0000
  C   C68       1.0  0.30759694951741773  0.12461583623110066  0.0806775072181622  1.0000
  C   C69       1.0  0.3075971362050254  0.37538531238593714  0.08067712606718662  1.0000
  C   C70       1.0  0.19240618977254803  0.6246156186284039  0.5806775861208495  1.0000
  C   C71       1.0  0.8075942466215197  0.12461631522909762  0.4193232783220893  1.0000
  C   C72       1.0  0.6924016165056059  0.8753855737806902  0.9193227363821496  1.0000
  C   C73       1.0  0.9510313119393033  0.4416804283215328  0.0580085249339533  1.0000
  C   C74       1.0  0.5489688400147513  0.5583193045923237  0.5580078263544125  1.0000
  C   C75       1.0  0.451027383555612  0.0583186993366454  0.4419920273797118  1.0000
  C   C76       1.0  0.048967539477914095  0.9416788931218465  0.9419911497617904  1.0000
  C   C77       1.0  0.0489672540870458  0.5583197136932653  0.9419909995889172  1.0000
  C   C78       1.0  0.45102972600938057  0.44168168275379577  0.4419921775534164  1.0000
  C   C79       1.0  0.5489691254051365  0.9416797520173077  0.5580082162201025  1.0000
  C   C80       1.0  0.9510299980228326  0.05831955823016699  0.05800741599148301  1.0000
  C   C81       1.0  0.901202912066843  0.48418793306488794  0.1027152489752368  1.0000
  C   C82       1.0  0.5987967092169982  0.5158110644055045  0.6027142455208647  1.0000
  C   C83       1.0  0.40120150812506955  0.015811182075147204  0.39728533521716264  1.0000
  C   C84       1.0  0.09879600263779048  0.9841858778309742  0.8972846987154529  1.0000
  C   C85       1.0  0.0987946254297825  0.5158126316151481  0.8972842755481241  1.0000
  C   C86       1.0  0.40120391386658133  0.48418907761014635  0.3972857583859765  1.0000
  C   C87       1.0  0.598796029367449  0.9841876919440082  0.6027146686901689  1.0000
  C   C88       1.0  0.901201534861528  0.015812573521337497  0.10271410673014002  1.0000
  C   C89       1.0  0.7851076279084238  0.45675354147932273  0.09189604366818573  1.0000
  C   C90       1.0  0.7148910932688607  0.5432454293979203  0.5918952271238851  1.0000
  C   C91       1.0  0.2851061363932317  0.0432459671583914  0.4081038957236702  1.0000
  C   C92       1.0  0.21489124594994274  0.956752387336259  0.9081038825291687  1.0000
  C   C93       1.0  0.2148899095882015  0.5432470232007134  0.9081034808551752  1.0000
  C   C94       1.0  0.2851085012857837  0.456754289951931  0.4081045370908072  1.0000
  C   C95       1.0  0.7148914011007149  0.9567529068604727  0.5918958684913493  1.0000
  C   C96       1.0  0.7851062915482742  0.043246486681717  0.09189516260890682  1.0000
  C   C97       1.0  0.5517116905553792  0.36711544677193336  0.7476036523817556  1.0000
  C   C98       1.0  0.9482892964770427  0.6328843294967684  0.24760402313150826  1.0000
  C   C99       1.0  0.0517132092840953  0.13287931489919197  0.7523968477867273  1.0000
  C   C100      1.0  0.44828499278047224  0.8671152755491676  0.25239644328129174  1.0000
  C   C101      1.0  0.4482899610558704  0.6328834272480321  0.2523965912165735  1.0000
  C   C102      1.0  0.0517113266082774  0.3671162351839499  0.7523957410831842  1.0000
  C   C103      1.0  0.9482843282062136  0.8671204044512918  0.2476036355055626  1.0000
  C   C104      1.0  0.5517115161802763  0.13288317580478554  0.7476038003185224  1.0000
  C   C105      1.0  0.5733583900206155  0.4351467792060858  0.7129523129484383  1.0000
  C   C106      1.0  0.926638894207329  0.5648537572206536  0.21295240455691566  1.0000
  C   C107      1.0  0.07336351026267347  0.0648496785658779  0.7870486527549193  1.0000
  C   C108      1.0  0.42663633754818153  0.9351466877163901  0.2870475963226582  1.0000
  C   C109      1.0  0.42664017599972937  0.5648529401445188  0.28704817034352464  1.0000
  C   C110      1.0  0.07335864329102999  0.43514723012445705  0.7870468802743036  1.0000
  C   C111      1.0  0.92663505575878  0.9351496181190697  0.21295159084456836  1.0000
  C   C112      1.0  0.5733591428848968  0.0648530316332412  0.7129524075856608  1.0000
  C   C113      1.0  0.6881607403771852  0.43472668806910514  0.7323323584674315  1.0000
  C   C114      1.0  0.8118373423374762  0.5652730506626256  0.2323325238534864  1.0000
  C   C115      1.0  0.18816506275506129  0.06526853054892  0.767668773478988  1.0000
  C   C116      1.0  0.3118350150953262  0.9347273654329696  0.2676677901668327  1.0000
  C   C117      1.0  0.31183885417541296  0.5652721859503059  0.2676676454392394  1.0000
  C   C118      1.0  0.18816328074610308  0.434727091353018  0.7676674800533548  1.0000
  C   C119      1.0  0.811833503266712  0.9347311888013936  0.23233147012066271  1.0000
  C   C120      1.0  0.6881614938660475  0.06527193125171489  0.7323324534333083  1.0000
  C   C121      1.0  0.704855716680811  0.2499995135449993  0.03673679444166571  1.0000
  C   C122      1.0  0.7951467448339785  0.74999974441765  0.5367353694583841  1.0000
  C   C123      1.0  0.20485593531189042  0.249999552266928  0.4632641550628378  1.0000
  C   C124      1.0  0.295145934934709  0.7499993604740851  0.9632627300797197  1.0000
  C   C125      1.0  0.859223497081352  0.27915376353464433  0.070513238691106  1.0000
  C   C126      1.0  0.6407867917381438  0.7208460001173551  0.5705130880884043  1.0000
  C   C127      1.0  0.35922098764419985  0.22084618638972842  0.4294876120521636  1.0000
  C   C128      1.0  0.140776140881627  0.7791534886599011  0.9294863086720186  1.0000
  C   C129      1.0  0.14077712600617792  0.7208459558147526  0.9294860461386278  1.0000
  C   C130      1.0  0.3592210310507937  0.2791532965693477  0.4294876348927446  1.0000
  C   C131      1.0  0.6407878636754063  0.7791539556278337  0.5705131109289923  1.0000
  C   C132      1.0  0.8592234536730247  0.22084623068995066  0.0705134555426739  1.0000
  C   C133      1.0  0.7919204266699182  0.25000045046626695  0.7901920601288098  1.0000
  C   C134      1.0  0.7080769692472373  0.7499998531480115  0.29019219693235954  1.0000
  C   C135      1.0  0.29191748265549217  0.24999944353611875  0.709807806976123  1.0000
  C   C136      1.0  0.20808019641619072  0.749999268883421  0.20980746439323641  1.0000
  C   C137      1.0  0.7297784404266564  0.27913355649008753  0.8373939798654177  1.0000
  C   C138      1.0  0.7702204522584282  0.7208685538074846  0.33739477316394334  1.0000
  C   C139      1.0  0.22977704185612413  0.2208654765694433  0.6626056873039874  1.0000
  C   C140      1.0  0.2702263401559933  0.7791326971644139  0.16260556748000002  1.0000
  C   C141      1.0  0.27023041090622263  0.7208691215173317  0.16260482557821382  1.0000
  C   C142      1.0  0.22977502817259682  0.2791303202117064  0.662605470436354  1.0000
  C   C143      1.0  0.7702204956343479  0.7791325521192719  0.3373945562953224  1.0000
  C   C144      1.0  0.7297753114577786  0.22086955817849943  0.8373946761196507  1.0000
  N   N1        1.0  0.7481896275328879  0.4399658963182845  0.9467145856866495  1.0000
  N   N2        1.0  0.751813110166708  0.5600343693578863  0.4467140662954563  1.0000
  N   N3        1.0  0.24819237272976122  0.0600348320292952  0.5532855490874908  1.0000
  N   N4        1.0  0.2518092213310723  0.9399656089909955  0.05328532735863689  1.0000
  N   N5        1.0  0.2518099670206482  0.5600342456972314  0.0532854182205256  1.0000
  N   N6        1.0  0.2481926555741722  0.43996577265693304  0.5532847391481682  1.0000
  N   N7        1.0  0.7518103074138905  0.9399653099866113  0.44671445481868943  1.0000
  N   N8        1.0  0.7481883161687151  0.060035378353823915  0.9467137177802628  1.0000
  N   N9        1.0  0.7130002231047712  0.39229056245473976  0.9923376134366465  1.0000
  N   N10       1.0  0.7870040301065301  0.6077093926962218  0.49233710888277227  1.0000
  N   N11       1.0  0.21299946671289402  0.10770973438634708  0.5076625438521561  1.0000
  N   N12       1.0  0.28699752624264363  0.8922901718286198  0.0076627416419441  1.0000
  N   N13       1.0  0.2869973143849053  0.6077083115650055  0.0076628698553165  1.0000
  N   N14       1.0  0.21300173562960373  0.3922920173158815  0.5076626553306056  1.0000
  N   N15       1.0  0.7870021849007216  0.8922904076294317  0.49233746005435114  1.0000
  N   N16       1.0  0.7129989827256793  0.10771081551636287  0.9923365431896016  1.0000
  N   N17       1.0  0.7483978622088117  0.47947233672325507  0.8722081626279063  1.0000
  N   N18       1.0  0.7516037028210576  0.5205281684848586  0.3722085711880184  1.0000
  N   N19       1.0  0.24839760713037862  0.020526701014205204  0.6277914926286741  1.0000
  N   N20       1.0  0.2516051595932396  0.9794718098138515  0.12779226075222996  1.0000
  N   N21       1.0  0.2516079035246435  0.5205273826276695  0.12779184127712281  1.0000
  N   N22       1.0  0.24839486320292534  0.47947070553413346  0.6277911930266741  1.0000
  N   N23       1.0  0.7516040444827751  0.979470905009073  0.3722082715845262  1.0000
  N   N24       1.0  0.7483944349596784  0.020527486870932397  0.8722077431546112  1.0000
  N   N25       1.0  0.7462217323391582  0.4319321468927981  0.825859560895772  1.0000
  N   N26       1.0  0.7537772972612656  0.5680686670570196  0.325860005310318  1.0000
  N   N27       1.0  0.246223054940515  0.0680677356294694  0.6741405751375211  1.0000
  N   N28       1.0  0.2537781330890638  0.9319317344533502  0.17414106493197326  1.0000
  N   N29       1.0  0.2537799192698742  0.5680675724584958  0.17414116208751557  1.0000
  N   N30       1.0  0.24622024023472727  0.43193105229228484  0.674139519212716  1.0000
  N   N31       1.0  0.7537785966678924  0.9319311383910857  0.3258601478454395  1.0000
  N   N32       1.0  0.7462204329341232  0.0680679848966719  0.8258589389753652  1.0000
  N   N33       1.0  0.6817365037122017  0.5688927512353033  0.9288710027777543  1.0000
  N   N34       1.0  0.8182633601979107  0.4311070479168889  0.42887105893960614  1.0000
  N   N35       1.0  0.18173958959424397  0.9311059025016847  0.5711290868558124  1.0000
  N   N36       1.0  0.3182607641281834  0.06889415971280499  0.0711295783176169  1.0000
  N   N37       1.0  0.3182641193713777  0.4311073907803474  0.07112900112908702  1.0000
  N   N38       1.0  0.1817403484735678  0.568893939430474  0.5711294243512129  1.0000
  N   N39       1.0  0.8182610334864934  0.0688942395145489  0.4288713964356603  1.0000
  N   N40       1.0  0.6817357448350806  0.9311076729640888  0.928870665283512  1.0000
  N   N41       1.0  0.49250131373919714  0.6144543834484679  0.9451253360934758  1.0000
  N   N42       1.0  0.007498714749864601  0.38554533003983954  0.44512507599817047  1.0000
  N   N43       1.0  0.9925062242647443  0.8855447710289112  0.5548752737934421  1.0000
  N   N44       1.0  0.5074991075267051  0.11445622218143109  0.054875520389011015  1.0000
  N   N45       1.0  0.5074972522825689  0.38554533590184553  0.054874907506175005  1.0000
  N   N46       1.0  0.9925039653887284  0.6144556573079781  0.554875886677607  1.0000
  N   N47       1.0  0.007495427351720698  0.11445537098627771  0.44512425072844053  1.0000
  N   N48       1.0  0.4925015155544941  0.8855464558273025  0.9451252025957616  1.0000
  N   N49       1.0  0.8175774412502008  0.42989650783447086  0.06348984686008662  1.0000
  N   N50       1.0  0.6824205885803067  0.570102815886578  0.5634890721312615  1.0000
  N   N51       1.0  0.31757565253648323  0.0701030089612331  0.43651055114274584  1.0000
  N   N52       1.0  0.1824213926215279  0.9298962606861777  0.9365100582962712  1.0000
  N   N53       1.0  0.18242009624469094  0.5701036341804908  0.9365099173554301  1.0000
  N   N54       1.0  0.317577977443193  0.42989732612880965  0.43651093177623324  1.0000
  N   N55       1.0  0.6824218849546141  0.9298958650582207  0.5634896924569051  1.0000
  N   N56       1.0  0.8175771734098873  0.0701030359967092  0.0634885074570093  1.0000
  N   N57       1.0  0.0059828311584766  0.47441872937864804  0.0810861764346527  1.0000
  N   N58       1.0  0.4940194614413898  0.5255809346430808  0.5810851674691976  1.0000
  N   N59       1.0  0.5059787704446919  0.0255798638039408  0.41891466061495225  1.0000
  N   N60       1.0  0.9940160690024628  0.9744169522162025  0.918913523910071  1.0000
  N   N61       1.0  0.9940167633964875  0.5255814126365691  0.9189135877802032  1.0000
  N   N62       1.0  0.505981161641401  0.474420052703593  0.4189150761302899  1.0000
  N   N63       1.0  0.494018767047514  0.9744185875498488  0.581085343292216  1.0000
  N   N64       1.0  0.005979411438517  0.02558192180092791  0.0810850418440268  1.0000
  N   N65       1.0  0.6736017353392896  0.3913895650041752  0.754252927399307  1.0000
  N   N66       1.0  0.8263971157100086  0.6086106502725244  0.2542526380388352  1.0000
  N   N67       1.0  0.17360638244083762  0.10860649528694917  0.7457482138620009  1.0000
  N   N68       1.0  0.32639395560384793  0.8913893468157708  0.24574790635874422  1.0000
  N   N69       1.0  0.326397859210779  0.6086097316811988  0.24574755589216585  1.0000
  N   N70       1.0  0.1736035073767326  0.39138991440790233  0.7457468864835378  1.0000
  N   N71       1.0  0.8263921835795074  0.8913932240636627  0.25425226942996204  1.0000
  N   N72       1.0  0.673603581886148  0.10860994986933999  0.7542525769333823  1.0000
  N   N73       1.0  0.4873053055154982  0.3920378715958606  0.7227789894126176  1.0000
  N   N74       1.0  0.012694276644168702  0.6079621407036766  0.22277937963192335  1.0000
  N   N75       1.0  0.9873092205421158  0.10795742217577237  0.7772212320682997  1.0000
  N   N76       1.0  0.5126903864001022  0.8920377775716017  0.2772206463918323  1.0000
  N   N77       1.0  0.5126953175657152  0.607961002423977  0.2772212541860455  1.0000
  N   N78       1.0  0.9873042893831255  0.39203926930722577  0.7772201448914448  1.0000
  N   N79       1.0  0.012690374009373798  0.8920418745093102  0.22277901153085375  1.0000
  N   N80       1.0  0.48730612256238726  0.10796109644741847  0.7227793575158261  1.0000
  N   N81       1.0  0.7608478259267953  0.29729621296753095  0.0489790800279977  1.0000
  N   N82       1.0  0.739157575861796  0.7027034977520045  0.5489776538119742  1.0000
  N   N83       1.0  0.26084503386236685  0.2027037122423252  0.4510223130394239  1.0000
  N   N84       1.0  0.23915286757848964  0.7972960157383608  0.9510204815486676  1.0000
  N   N85       1.0  0.23915382569077784  0.7027035063819937  0.9510202048014026  1.0000
  N   N86       1.0  0.26084613281237523  0.2972953762676269  0.4510221104010697  1.0000
  N   N87       1.0  0.7391586748095875  0.7972960071086346  0.5489779305585785  1.0000
  N   N88       1.0  0.7608477555065106  0.2027041262769913  0.0489792826658615  1.0000
  N   N89       1.0  0.7693400118332363  0.2973398352227505  0.8073178620852132  1.0000
  N   N90       1.0  0.7306561522694538  0.7026617784823871  0.3073181870469028  1.0000
  N   N91       1.0  0.26933822914974564  0.20266047577224106  0.6926820194661618  1.0000
  N   N92       1.0  0.2306596532005116  0.7973386172192602  0.19268265829482092  1.0000
  N   N93       1.0  0.23066472537112045  0.7026611521241434  0.19268214182064725  1.0000
  N   N94       1.0  0.26933829962931805  0.29733794086799753  0.6926825359386939  1.0000
  N   N95       1.0  0.7306582798127437  0.7973383982467864  0.3073179844414966  1.0000
  N   N96       1.0  0.7693409698819593  0.20266194746204746  0.8073175853045029  1.0000
