data_image0
_chemical_formula_structural       H18Pb2C18S2N2O12
_chemical_formula_sum              "H18 Pb2 C18 S2 N2 O12"
_cell_length_a       7.2161883922078625
_cell_length_b       7.807570564128586
_cell_length_c       12.466311185658808
_cell_angle_alpha    88.63496173053205
_cell_angle_beta     75.53206252039486
_cell_angle_gamma    64.3731906011934

_space_group_name_H-M_alt    "P 1"
_space_group_IT_number       1

loop_
  _space_group_symop_operation_xyz
  'x, y, z'

loop_
  _atom_site_type_symbol
  _atom_site_label
  _atom_site_symmetry_multiplicity
  _atom_site_fract_x
  _atom_site_fract_y
  _atom_site_fract_z
  _atom_site_occupancy
  H   H1        1.0  0.22901927455006918  0.5488970658704131  0.2574756055161559  1.0000
  H   H2        1.0  0.7710135350393588  0.4511181118878369  0.7425367835150426  1.0000
  H   H3        1.0  0.0013116153027894028  0.5628076617058609  0.2560561288596191  1.0000
  H   H4        1.0  0.9987195163295866  0.4372372431179413  0.7439422766000806  1.0000
  H   H5        1.0  0.14218942111079264  0.29071831492520056  0.3300792170366834  1.0000
  H   H6        1.0  0.8577459476634673  0.7092911871371186  0.669927375719553  1.0000
  H   H7        1.0  0.00479209976953854  0.3561705438975906  0.5372373575336555  1.0000
  H   H8        1.0  0.9952029250330985  0.6438018698845409  0.4627717392342278  1.0000
  H   H9        1.0  0.11780804959716566  0.09658941853871279  0.6580190998222905  1.0000
  H   H10       1.0  0.8821638171920154  0.9033659608128773  0.341992894740095  1.0000
  H   H11       1.0  0.36527028591795846  0.7592647368504328  0.5751581528640062  1.0000
  H   H12       1.0  0.6347665636105403  0.24071571167078784  0.4248190425331942  1.0000
  H   H13       1.0  0.1703073678227369  0.8492337862877333  0.7711275296341145  1.0000
  H   H14       1.0  0.8296095049069054  0.15073158183479046  0.22888101972770872  1.0000
  H   H15       1.0  0.21010408169505748  0.9818315070577196  0.8701503297736084  1.0000
  H   H16       1.0  0.7898818981267867  0.0181446326776893  0.1298206988446253  1.0000
  H   H17       1.0  0.949969257666162  0.9949144992899192  0.8815893361136208  1.0000
  H   H18       1.0  0.049977601637792204  0.0051008062534805  0.11842509962713883  1.0000
  Pb  Pb1       1.0  0.31287251946191935  0.3430921029081515  0.025973506744577414  1.0000
  Pb  Pb2       1.0  0.6871042435066883  0.6569177357588811  0.9740591575788929  1.0000
  C   C1        1.0  0.42988193231899174  0.9162936657987472  0.2179826797471948  1.0000
  C   C2        1.0  0.5701622103186567  0.08370412867307657  0.7820115630140595  1.0000
  C   C3        1.0  0.3288223276263196  0.9908808091892283  0.33798363492403655  1.0000
  C   C4        1.0  0.6711876364557982  0.009131251356414804  0.6620088690296343  1.0000
  C   C5        1.0  0.19114862553975343  0.17700342286020995  0.38382749182274994  1.0000
  C   C6        1.0  0.8087959502674522  0.8229960160137537  0.6161739530725472  1.0000
  C   C7        1.0  0.11548261309474846  0.2119241608332985  0.4996328174795438  1.0000
  C   C8        1.0  0.8844657622821047  0.7880382426921951  0.500370415172718  1.0000
  C   C9        1.0  0.17846757840804636  0.06397153085536189  0.5679542622753433  1.0000
  C   C10       1.0  0.8215323838702703  0.9359907511014567  0.43204469249219113  1.0000
  C   C11       1.0  0.31601126329167073  0.8755465615953355  0.5226458566009031  1.0000
  C   C12       1.0  0.6840297827264409  0.1244312004756196  0.47734281573682597  1.0000
  C   C13       1.0  0.3867166620086168  0.8444138032086315  0.40749433192352325  1.0000
  C   C14       1.0  0.6132661500096289  0.15559812195346714  0.592486874873828  1.0000
  C   C15       1.0  0.17410618061531138  0.7306608270205216  0.9244956899141602  1.0000
  C   C16       1.0  0.8258762440512583  0.2693373817812271  0.07552194386119744  1.0000
  C   C17       1.0  0.1218261463820697  0.9023468725465802  0.8593963002770625  1.0000
  C   C18       1.0  0.8781255676776213  0.09764966964014116  0.14060256143820746  1.0000
  S   S1        1.0  0.5496161596325991  0.6284176388930475  0.3195103945669403  1.0000
  S   S2        1.0  0.4504196199136317  0.37159430179249847  0.6804759574720267  1.0000
  N   N1        1.0  0.5514578427282119  0.7243148958177629  0.2026460411839325  1.0000
  N   N2        1.0  0.44859292078150054  0.2756957007883685  0.7973469863402942  1.0000
  O   O1        1.0  0.1297768065182723  0.5717198150309812  0.21085431220461714  1.0000
  O   O2        1.0  0.8702686112713565  0.42832517286247906  0.7891508417213019  1.0000
  O   O3        1.0  0.4085073667288556  0.0168080568366307  0.13768379602652916  1.0000
  O   O4        1.0  0.5914887845496468  0.9831883399693238  0.8623086174626098  1.0000
  O   O5        1.0  0.4406077565425763  0.5057577547281937  0.33045778971199286  1.0000
  O   O6        1.0  0.5595106890265813  0.4941700490184785  0.6695318683448693  1.0000
  O   O7        1.0  0.7636097638338697  0.5343475701130345  0.33574383378108763  1.0000
  O   O8        1.0  0.23642780947114522  0.4657953107787947  0.6642300330368871  1.0000
  O   O9        1.0  0.3477051081908231  0.6580951823530653  0.9535756348456845  1.0000
  O   O10       1.0  0.65234419889417  0.34184804908448985  0.046391666536607076  1.0000
  O   O11       1.0  0.04842406910427855  0.6520400528147545  0.9472817966469338  1.0000
  O   O12       1.0  0.9515213293099906  0.3479989404222294  0.05279254532329249  1.0000
