data_image0
_chemical_formula_structural       Fe2H24C36S12N20
_chemical_formula_sum              "Fe2 H24 C36 S12 N20"
_cell_length_a       7.962986665495757
_cell_length_b       10.23441621519164
_cell_length_c       15.740251064968708
_cell_angle_alpha    88.8155439969952
_cell_angle_beta     89.98140029748407
_cell_angle_gamma    114.10435419716629

_space_group_name_H-M_alt    "P 1"
_space_group_IT_number       1

loop_
  _space_group_symop_operation_xyz
  'x, y, z'

loop_
  _atom_site_type_symbol
  _atom_site_label
  _atom_site_symmetry_multiplicity
  _atom_site_fract_x
  _atom_site_fract_y
  _atom_site_fract_z
  _atom_site_occupancy
  Fe  Fe1       1.0  0.4999658281779848  0.9997547062086557  0.5002680250461964  1.0000
  Fe  Fe2       1.0  0.005963878306587802  0.017376317917744202  0.9984347950422432  1.0000
  H   H1        1.0  0.33897564336628255  0.24011797512372365  0.4793712228683304  1.0000
  H   H2        1.0  0.1707797412238109  0.7777275306923315  0.978509919154732  1.0000
  H   H3        1.0  0.881725192282531  0.22919684773031435  0.5284158251747044  1.0000
  H   H4        1.0  0.6049623362819787  0.7776718511932046  0.0218260344696191  1.0000
  H   H5        1.0  0.6617099789212518  0.7592645020921012  0.5211079937489842  1.0000
  H   H6        1.0  0.8504766058501191  0.23607654495005195  0.0266695797839134  1.0000
  H   H7        1.0  0.11894752759707936  0.7698609931289583  0.4718209374451732  1.0000
  H   H8        1.0  0.390205731933399  0.24008986056714576  0.9718210175725589  1.0000
  H   H9        1.0  0.4925785953696363  0.2884926649371877  0.7798712821322908  1.0000
  H   H10       1.0  0.9967686227385572  0.7056849286913192  0.27825143552321663  1.0000
  H   H11       1.0  0.780296788945499  0.27599408000079245  0.22673425953114196  1.0000
  H   H12       1.0  0.72116001075878  0.7114760098480559  0.7254582110126649  1.0000
  H   H13       1.0  0.5087964901090987  0.7124691324264419  0.2205287529047837  1.0000
  H   H14       1.0  0.9968460152842128  0.2813506189211807  0.7243367469610932  1.0000
  H   H15       1.0  0.21878969591397637  0.7242632272139744  0.7737958563309207  1.0000
  H   H16       1.0  0.2716207747815886  0.2740045143466858  0.2720022028575428  1.0000
  H   H17       1.0  0.5848304948495908  0.13223536511474523  0.686464389495555  1.0000
  H   H18       1.0  0.9165090067670223  0.8737928737077284  0.1843071942514101  1.0000
  H   H19       1.0  0.532858131839582  0.10424072258094698  0.3199644706681113  1.0000
  H   H20       1.0  0.9677769433667156  0.884929428830006  0.8160341655661796  1.0000
  H   H21       1.0  0.41579321291068544  0.8678456531348074  0.31433358891915475  1.0000
  H   H22       1.0  0.07831115436501795  0.11765470557016762  0.818715936599965  1.0000
  H   H23       1.0  0.4665855415673974  0.8960250150536735  0.6806316294641519  1.0000
  H   H24       1.0  0.026329074993185514  0.11132259155589001  0.17826989833809392  1.0000
  C   C1        1.0  0.17762225870473713  0.0031323318343439007  0.3940798481022654  1.0000
  C   C2        1.0  0.32489628824739475  0.005990490617435297  0.8936292820994043  1.0000
  C   C3        1.0  0.8227259251913  0.9963510161276974  0.6059234868297524  1.0000
  C   C4        1.0  0.6763256891407394  0.0025486171147193013  0.1056920056994386  1.0000
  C   C5        1.0  0.37593010344883754  0.2527706225105391  0.5461857113490822  1.0000
  C   C6        1.0  0.12865892841042384  0.7592702170116183  0.04495142151991871  1.0000
  C   C7        1.0  0.8584008345576138  0.2387244398834767  0.4611628578731555  1.0000
  C   C8        1.0  0.6312920800262279  0.7610521190824429  0.956089354243737  1.0000
  C   C9        1.0  0.6245929064435387  0.7467284078622284  0.45430354872602413  1.0000
  C   C10       1.0  0.8835502178539018  0.2459470494365377  0.9593063356403989  1.0000
  C   C11       1.0  0.14192010853778933  0.7605048781157394  0.5391280776931566  1.0000
  C   C12       1.0  0.3635186713416942  0.24745851200381  0.03874186809939321  1.0000
  C   C13       1.0  0.3321829199951836  0.3434250691593803  0.5985385147083804  1.0000
  C   C14       1.0  0.1639047058448568  0.6614630676478795  0.09749790040768863  1.0000
  C   C15       1.0  0.9941537160578874  0.3346489772694241  0.40735710346828574  1.0000
  C   C16       1.0  0.4980278785523638  0.6620026502715818  0.9050405808448403  1.0000
  C   C17       1.0  0.66822733081294  0.6561724624102895  0.40181604246458863  1.0000
  C   C18       1.0  0.8417577395549855  0.33759205068479053  0.904835677064277  1.0000
  C   C19       1.0  0.006076479427484618  0.6646262594180782  0.5928846139627951  1.0000
  C   C20       1.0  0.49789302295330634  0.337029431113308  0.0929781786812924  1.0000
  C   C21       1.0  0.4593584261122175  0.2795903798855974  0.7124056683615835  1.0000
  C   C22       1.0  0.034295754668548395  0.7198845098722161  0.2109941473102737  1.0000
  C   C23       1.0  0.8056112607402853  0.2658673584226463  0.2941911395625354  1.0000
  C   C24       1.0  0.6937810978005815  0.7246494229191923  0.7919048096305162  1.0000
  C   C25       1.0  0.5413885404692922  0.7206770742411095  0.28806512117738253  1.0000
  C   C26       1.0  0.9622611413997292  0.2715479127331973  0.7918821383553835  1.0000
  C   C27       1.0  0.19399897769687885  0.7339313192977104  0.7062314173902922  1.0000
  C   C28       1.0  0.30078760871386123  0.26674027311206316  0.2049977122721032  1.0000
  C   C29       1.0  0.5097719140671799  0.1919853317164879  0.660863601543433  1.0000
  C   C30       1.0  0.9910346669615467  0.8142834254218272  0.1595322414917888  1.0000
  C   C31       1.0  0.6664331914368874  0.1692312330354895  0.3458506584424228  1.0000
  C   C32       1.0  0.8312104467297915  0.8219453649953009  0.8416947275586895  1.0000
  C   C33       1.0  0.49083127967671925  0.8079671994422953  0.3397922774934586  1.0000
  C   C34       1.0  0.007637724539243618  0.17948300164521666  0.8438734560195585  1.0000
  C   C35       1.0  0.33324724705290987  0.8306285701026397  0.654640103646642  1.0000
  C   C36       1.0  0.16285298364537232  0.1754601387255477  0.15321161928569182  1.0000
  S   S1        1.0  0.993301969006218  0.0028376930927506983  0.3529361144164512  1.0000
  S   S2        1.0  0.5041507527653551  0.9959167322496681  0.8521328939055479  1.0000
  S   S3        1.0  0.00801515061751  0.9969992193648735  0.646159389689636  1.0000
  S   S4        1.0  0.4927166844604756  0.002266436328724801  0.1489265034489975  1.0000
  S   S5        1.0  0.22097853755330024  0.4556016446134166  0.5669219614132361  1.0000
  S   S6        1.0  0.2692432481619136  0.5461940193333419  0.0667639776172138  1.0000
  S   S7        1.0  0.21745797728566885  0.4563288676991917  0.43776677927515106  1.0000
  S   S8        1.0  0.2714255582177786  0.5465651631566999  0.9375509460479563  1.0000
  S   S9        1.0  0.7790420164365558  0.5436663583734074  0.4332626436031504  1.0000
  S   S10       1.0  0.7386527016599872  0.4551712294104817  0.9343011007889501  1.0000
  S   S11       1.0  0.7829874008096239  0.5426258526164958  0.5624046147915323  1.0000
  S   S12       1.0  0.7269359731680326  0.4524263442768087  0.0633015195748001  1.0000
  N   N1        1.0  0.3140550232486988  0.0024303381638972996  0.42500977153097363  1.0000
  N   N2        1.0  0.19263568261143155  0.012787827301792698  0.9250281533426092  1.0000
  N   N3        1.0  0.6857887686758276  0.9969759765412007  0.5755411685418252  1.0000
  N   N4        1.0  0.8116879667258988  0.0027810036817897048  0.073272748094027  1.0000
  N   N5        1.0  0.46540855260873576  0.17699171554867382  0.5781967768442797  1.0000
  N   N6        1.0  0.041842827545032504  0.8352574124366754  0.0772989868896943  1.0000
  N   N7        1.0  0.6925627882798296  0.15230227702929264  0.4297626191223358  1.0000
  N   N8        1.0  0.7981771877533749  0.8415384790890528  0.9232099294371636  1.0000
  N   N9        1.0  0.535130128792467  0.822628824556979  0.4224625851232844  1.0000
  N   N10       1.0  0.9652633979773813  0.16365980298878205  0.9280164484097072  1.0000
  N   N11       1.0  0.30747839884139694  0.8472343184703419  0.5706463861005773  1.0000
  N   N12       1.0  0.19398164007908048  0.16326304224691776  0.0696607197811758  1.0000
  N   N13       1.0  0.3703145118014746  0.3558141511712378  0.6813999126269579  1.0000
  N   N14       1.0  0.12086939139150857  0.6433369473958026  0.18013070907779388  1.0000
  N   N15       1.0  0.9716246052050012  0.34853703619265985  0.3239796129516819  1.0000
  N   N16       1.0  0.5263267533893341  0.6444822661749258  0.8232617655422416  1.0000
  N   N17       1.0  0.6302126827850147  0.6441686799104929  0.31891903426893725  1.0000
  N   N18       1.0  0.8777092171978254  0.3505756884621718  0.821449919768348  1.0000
  N   N19       1.0  0.02821369854724045  0.6509539704678103  0.6763204347846283  1.0000
  N   N20       1.0  0.47007513446274624  0.34743596678643474  0.1757851949689524  1.0000
