data_image0
_chemical_formula_structural       Ag2B2H18C14S4N6F8
_chemical_formula_sum              "Ag2 B2 H18 C14 S4 N6 F8"
_cell_length_a       7.32042855523309
_cell_length_b       8.71864003213161
_cell_length_c       11.139454790422532
_cell_angle_alpha    79.77890606075437
_cell_angle_beta     78.57565863694533
_cell_angle_gamma    68.31501239555176

_space_group_name_H-M_alt    "P 1"
_space_group_IT_number       1

loop_
  _space_group_symop_operation_xyz
  'x, y, z'

loop_
  _atom_site_type_symbol
  _atom_site_label
  _atom_site_symmetry_multiplicity
  _atom_site_fract_x
  _atom_site_fract_y
  _atom_site_fract_z
  _atom_site_occupancy
  Ag  Ag1       1.0  0.4613631558454897  0.6288218092246184  0.3509254554092324  1.0000
  Ag  Ag2       1.0  0.5386248107212808  0.3711583159007645  0.6490881797728607  1.0000
  B   B1        1.0  0.6377330149957672  0.2949156144625391  0.150448722689319  1.0000
  B   B2        1.0  0.3622450051426754  0.7051204951335633  0.8495439498377737  1.0000
  H   H1        1.0  0.16572987120442664  0.34097815277101506  0.8173625060015869  1.0000
  H   H2        1.0  0.8342440918449938  0.6590218139217823  0.1826537629988609  1.0000
  H   H3        1.0  0.9002180606567408  0.44195368304868765  0.840549317130261  1.0000
  H   H4        1.0  0.09976379121714259  0.5580638329860224  0.15946971577651686  1.0000
  H   H5        1.0  0.059746628795743176  0.53284891418955  0.8795241294242689  1.0000
  H   H6        1.0  0.9402528535259408  0.46715002767197683  0.12048802142700774  1.0000
  H   H7        1.0  0.6823648864380801  0.9623858304217308  0.2724321826911763  1.0000
  H   H8        1.0  0.31769506507317413  0.03761477804069099  0.7275367476312626  1.0000
  H   H9        1.0  0.6832340027291935  0.7859949579494694  0.3825370231208041  1.0000
  H   H10       1.0  0.3167804346540706  0.21400771382415937  0.6174286404741524  1.0000
  H   H11       1.0  0.5783278278182635  0.14434317787624446  0.4468287723204727  1.0000
  H   H12       1.0  0.42168415624430355  0.8556619576538225  0.5531341735093847  1.0000
  H   H13       1.0  0.0639384924896973  0.1476512949413831  0.10630725955584815  1.0000
  H   H14       1.0  0.9360705880715443  0.8523153277573029  0.8937144764150562  1.0000
  H   H15       1.0  0.22408621169664403  0.057171668731435005  0.9730381236985582  1.0000
  H   H16       1.0  0.7759104737442257  0.9428010420166543  0.026972716255258426  1.0000
  H   H17       1.0  0.29128682187739224  0.1889879676229356  0.04976273675236341  1.0000
  H   H18       1.0  0.7087284452597802  0.8109836629261977  0.9502467031709404  1.0000
  C   C1        1.0  0.04341129947803074  0.46082171807881167  0.8131452240421598  1.0000
  C   C2        1.0  0.9565777468541509  0.5391821317535772  0.18687120035647817  1.0000
  C   C3        1.0  0.060437838307393646  0.5500264632521094  0.6872420902651657  1.0000
  C   C4        1.0  0.9395441148082142  0.4499710680663184  0.3127698783451933  1.0000
  C   C5        1.0  0.02087922974777008  0.7285513323974653  0.49502807134965837  1.0000
  C   C6        1.0  0.9791068888723589  0.2714462356775798  0.5049833427584505  1.0000
  C   C7        1.0  0.7040718475776945  0.9068327525299081  0.3674559516705927  1.0000
  C   C8        1.0  0.29595425118645124  0.0931688043038648  0.6325173088313749  1.0000
  C   C9        1.0  0.5668770612211631  0.020978499404151304  0.4565718636580059  1.0000
  C   C10       1.0  0.433138762197821  0.9790241816750082  0.5433927181287503  1.0000
  C   C11       1.0  0.3248080576417324  0.9524625905914589  0.14026833474166273  1.0000
  C   C12       1.0  0.6752165880631297  0.047506616835498505  0.8597366199574596  1.0000
  C   C13       1.0  0.2190762338224275  0.09572346542446297  0.06259708830501154  1.0000
  C   C14       1.0  0.7809320858756197  0.9042480979702672  0.9374114818404424  1.0000
  S   S1        1.0  0.9660751417059501  0.870893009737493  0.36640279622671573  1.0000
  S   S2        1.0  0.033947117478192006  0.12909487127675587  0.6335962436635187  1.0000
  S   S3        1.0  0.8600585910923328  0.7024329414864212  0.6271755019754581  1.0000
  S   S4        1.0  0.13992594632667024  0.2975683597550329  0.37283738856569226  1.0000
  N   N1        1.0  0.20652149078055976  0.6272113070863269  0.5010322293061764  1.0000
  N   N2        1.0  0.7934645017884633  0.37278003320262326  0.49898277458449075  1.0000
  N   N3        1.0  0.22781794616006573  0.5277043421897788  0.611023461883619  1.0000
  N   N4        1.0  0.7721609013386229  0.4722906704700093  0.3889901698799109  1.0000
  N   N5        1.0  0.407012231248622  0.8369590328410934  0.20425867377834814  1.0000
  N   N6        1.0  0.5930216077216812  0.163011505722352  0.7957457782179276  1.0000
  F   F1        1.0  0.47042044609295175  0.4160201418890423  0.21035253728583575  1.0000
  F   F2        1.0  0.5295342210955454  0.5839597186501635  0.7896745036554479  1.0000
  F   F3        1.0  0.5736991672909042  0.1722874331236567  0.12133447265144073  1.0000
  F   F4        1.0  0.4263483497987651  0.8277453992768214  0.878603714840523  1.0000
  F   F5        1.0  0.7804635955527955  0.21593478627160317  0.2334868656070413  1.0000
  F   F6        1.0  0.21952444790071715  0.7840776907417891  0.7664997450826053  1.0000
  F   F7        1.0  0.7266649535844041  0.3678551352976313  0.044029255221964485  1.0000
  F   F8        1.0  0.27326689797418174  0.6322767068848518  0.9559909890752042  1.0000
