data_image0
_chemical_formula_structural       Zn2H20C40I4N2O10
_chemical_formula_sum              "Zn2 H20 C40 I4 N2 O10"
_cell_length_a       13.654437261305434
_cell_length_b       14.7175101469451
_cell_length_c       16.07688165345159
_cell_angle_alpha    90.0605784110356
_cell_angle_beta     88.82728560517695
_cell_angle_gamma    66.27356258224037

_space_group_name_H-M_alt    "P 1"
_space_group_IT_number       1

loop_
  _space_group_symop_operation_xyz
  'x, y, z'

loop_
  _atom_site_type_symbol
  _atom_site_label
  _atom_site_symmetry_multiplicity
  _atom_site_fract_x
  _atom_site_fract_y
  _atom_site_fract_z
  _atom_site_occupancy
  Zn  Zn1       1.0  0.4829968211267115  0.5994213001770632  0.5076874815612911  1.0000
  Zn  Zn2       1.0  0.5117522732795976  0.4016194152179296  0.508877155778414  1.0000
  H   H1        1.0  0.527192995494751  0.6455774017237701  0.08870707456544118  1.0000
  H   H2        1.0  0.5097371306400474  0.3586162699172917  0.08136391438303288  1.0000
  H   H3        1.0  0.5248443832910682  0.3585520627064085  0.926536069056098  1.0000
  H   H4        1.0  0.6152887489320095  0.03260287029031161  0.6003140369199612  1.0000
  H   H5        1.0  0.6029370312849238  0.8677013096208981  0.5971753951706515  1.0000
  H   H6        1.0  0.36424334235007194  0.9738679685253614  0.4071182936377368  1.0000
  H   H7        1.0  0.3762195712590213  0.1388993686917317  0.4106606499384994  1.0000
  H   H8        1.0  0.05994892431176881  0.22011001289559576  0.5366545720365108  1.0000
  H   H9        1.0  0.8787038807076683  0.6503445152657436  0.46225453988371595  1.0000
  H   H10       1.0  0.9590643053603997  0.7696202933283234  0.43510886678066624  1.0000
  H   H11       1.0  0.7923701399776775  0.23504051310955992  0.5936287450901714  1.0000
  H   H12       1.0  0.9292710970061576  0.14741268538941915  0.5857037800702043  1.0000
  H   H13       1.0  0.8811234684951399  0.060319731667171125  0.4682465721062669  1.0000
  H   H14       1.0  0.8029402432162626  0.0653902092331293  0.5594359601458831  1.0000
  H   H15       1.0  0.7458984252874928  0.14938021040231317  0.4760343733961462  1.0000
  H   H16       1.0  0.6659922836123613  0.5745821350066507  0.8476706579562288  1.0000
  H   H17       1.0  0.7012290387192479  0.6480160370079913  0.920267294886983  1.0000
  H   H18       1.0  0.5744686879824953  0.8026974685737261  0.8470532156543553  1.0000
  H   H19       1.0  0.6811033726097405  0.7235403936727709  0.7808768253590797  1.0000
  H   H20       1.0  0.5505100646304727  0.7243313892868956  0.771961534793412  1.0000
  C   C1        1.0  0.5201684007230583  0.5029700617428502  0.6678266389298384  1.0000
  C   C2        1.0  0.013055417929656742  0.547287000061722  0.5296002110122728  1.0000
  C   C3        1.0  0.12061213808423323  0.5247912014302828  0.5525921718074469  1.0000
  C   C4        1.0  0.9677099389578316  0.4740613604880863  0.5398612906403739  1.0000
  C   C5        1.0  0.04002964234621237  0.37302800298206756  0.5502180176331561  1.0000
  C   C6        1.0  0.1413819799905909  0.356877457363737  0.5871426771795285  1.0000
  C   C7        1.0  0.17373144190644751  0.4332098512380044  0.5983009074412065  1.0000
  C   C8        1.0  0.8574520045257471  0.4933293770710209  0.535756435904531  1.0000
  C   C9        1.0  0.899806679081699  0.31966468693411093  0.5113423303424085  1.0000
  C   C10       1.0  0.17158101444861967  0.5892800778678053  0.5282884949614369  1.0000
  C   C11       1.0  0.5272598134092162  0.5819976019097908  0.05389998514029768  1.0000
  C   C12       1.0  0.29216549082457993  0.5538366716697923  0.5279659690049171  1.0000
  C   C13       1.0  0.5159228242230754  0.5025785337619483  0.09565974273028387  1.0000
  C   C14       1.0  0.517176671259719  0.4206124339770128  0.049081760676237686  1.0000
  C   C15       1.0  0.5263622671488831  0.42033209611493316  0.963170159524324  1.0000
  C   C16       1.0  0.535585738822995  0.500419387067872  0.9203580524054755  1.0000
  C   C17       1.0  0.5385479406844951  0.5811031987605376  0.9675161643454329  1.0000
  C   C18       1.0  0.5043647926875606  0.5039604974278616  0.18348383790311826  1.0000
  C   C19       1.0  0.5346789788954426  0.5015090689094137  0.8326006808270345  1.0000
  C   C20       1.0  0.5298958119399516  0.5015687441950546  0.7569355850788211  1.0000
  C   C21       1.0  0.4947841176890933  0.5030507253182607  0.25899162500950007  1.0000
  C   C22       1.0  0.5538133372356667  0.927403913804703  0.5569007439086988  1.0000
  C   C23       1.0  0.48839655627678286  0.5017443770571787  0.3487857428937956  1.0000
  C   C24       1.0  0.4826044171312913  0.912127606195462  0.5021426478532192  1.0000
  C   C25       1.0  0.41873153536975144  0.9875863978437066  0.448907564385017  1.0000
  C   C26       1.0  0.42561755476956625  0.07908605210089802  0.45069736515972625  1.0000
  C   C27       1.0  0.4968703924551788  0.09424784506909134  0.5054059767410095  1.0000
  C   C28       1.0  0.560956377021  0.0187435179857971  0.5584729459234621  1.0000
  C   C29       1.0  0.47480478066924536  0.8187843788613806  0.5012691286613984  1.0000
  C   C30       1.0  0.5053628414386039  0.18721764528298482  0.5079353206074797  1.0000
  C   C31       1.0  0.7042264911360406  0.442014920049786  0.5035314474407568  1.0000
  C   C32       1.0  0.004544547566140999  0.2976797935587712  0.5332258246775439  1.0000
  C   C33       1.0  0.8210130430923428  0.4193908972283823  0.5167100104089781  1.0000
  C   C34       1.0  0.10980651707248501  0.6792882678035996  0.490450443588557  1.0000
  C   C35       1.0  0.0033136574350223227  0.7018542028228651  0.4689278110501504  1.0000
  C   C36       1.0  0.9576910758932653  0.6355641402497129  0.4857891988620009  1.0000
  C   C37       1.0  0.8548520280425437  0.1848286185869625  0.5510601470400825  1.0000
  C   C38       1.0  0.8191205264825925  0.11054061171422092  0.510944918058328  1.0000
  C   C39       1.0  0.6379610923996709  0.6473426360423034  0.8789213001112939  1.0000
  C   C40       1.0  0.6085609633534689  0.7297897789942527  0.815869925539175  1.0000
  I   I1        1.0  0.22788651980716423  0.2154780653071953  0.6380659788597  1.0000
  I   I2        1.0  0.7491272150876752  0.6301788074433149  0.5902336543279174  1.0000
  I   I3        1.0  0.16617476451062171  0.7869694131618488  0.45089047651898523  1.0000
  I   I4        1.0  0.27887116140798435  0.4302224314731832  0.6923107488340319  1.0000
  N   N1        1.0  0.5154681506431801  0.261722022484129  0.5107052638885887  1.0000
  N   N2        1.0  0.46835474204615934  0.7425788992992821  0.5015068143269727  1.0000
  O   O1        1.0  0.5233607244296082  0.5780882685276013  0.6302785998894647  1.0000
  O   O2        1.0  0.5084085964763788  0.42919986599168414  0.6351194117131767  1.0000
  O   O3        1.0  0.33100253821269376  0.6161737530403286  0.546580586330826  1.0000
  O   O4        1.0  0.3454009457925125  0.46479348830948913  0.5034180771452126  1.0000
  O   O5        1.0  0.45254837918681556  0.5859116079541805  0.38588841091896586  1.0000
  O   O6        1.0  0.5199998414211822  0.4167327799517794  0.3826643648466683  1.0000
  O   O7        1.0  0.6462985887566218  0.527863080797225  0.47667192394096947  1.0000
  O   O8        1.0  0.6717296979501555  0.3743306416610679  0.5204102484545102  1.0000
  O   O9        1.0  0.8737799012890548  0.2435784086205786  0.48524596096640926  1.0000
  O   O10       1.0  0.5440384895902143  0.6627607455040092  0.9307690290518236  1.0000
