data_image0
_chemical_formula_structural       Ho4Cu6H48C48O60
_chemical_formula_sum              "Ho4 Cu6 H48 C48 O60"
_cell_length_a       12.768066297570165
_cell_length_b       12.773210377614115
_cell_length_c       16.420627222002018
_cell_angle_alpha    89.99724141550784
_cell_angle_beta     89.99968765462096
_cell_angle_gamma    119.9862222980744

_space_group_name_H-M_alt    "P 1"
_space_group_IT_number       1

loop_
  _space_group_symop_operation_xyz
  'x, y, z'

loop_
  _atom_site_type_symbol
  _atom_site_label
  _atom_site_symmetry_multiplicity
  _atom_site_fract_x
  _atom_site_fract_y
  _atom_site_fract_z
  _atom_site_occupancy
  Ho  Ho1       1.0  0.666606874382829  0.33327183087094153  0.7500213276045004  1.0000
  Ho  Ho2       1.0  0.333381649985668  0.6667035696496482  0.7499997716275217  1.0000
  Ho  Ho3       1.0  0.3333361601047217  0.6666384115671633  0.24999207446646207  1.0000
  Ho  Ho4       1.0  0.6667162499797215  0.33330828019774106  0.24999779793320442  1.0000
  Cu  Cu1       1.0  1.561544997479804e-05  0.49999915284654145  0.9999661491718824  1.0000
  Cu  Cu2       1.0  0.5000010058328429  0.9999885457683604  0.9999907295676849  1.0000
  Cu  Cu3       1.0  0.5000092549372537  0.49999721530015484  3.49336173073e-05  1.0000
  Cu  Cu4       1.0  0.5000088126059978  0.4999929752237619  0.5000121819035642  1.0000
  Cu  Cu5       1.0  0.5000141437338924  0.9999929150675724  0.49995806348851357  1.0000
  Cu  Cu6       1.0  0.9999974615526457  0.4999619902252021  0.5000275464712658  1.0000
  H   H1        1.0  0.9361019706182603  0.23911532944177313  0.7947125757288874  1.0000
  H   H2        1.0  0.8037454150022895  0.15111993898529613  0.8560800961055506  1.0000
  H   H3        1.0  0.30294007110214943  0.06390126058192168  0.7947976491562301  1.0000
  H   H4        1.0  0.3473710870184377  0.19626937831326782  0.8560890190623454  1.0000
  H   H5        1.0  0.7607922497400422  0.6969457131182606  0.7947410771880856  1.0000
  H   H6        1.0  0.8488664783624741  0.6526072699804355  0.8560404492435651  1.0000
  H   H7        1.0  0.06387967561705203  0.760893121883093  0.7947088835334313  1.0000
  H   H8        1.0  0.19624494042192717  0.8488915758320488  0.8560534848040149  1.0000
  H   H9        1.0  0.6970350353758972  0.9360996443415173  0.7947449991739219  1.0000
  H   H10       1.0  0.6526440395045651  0.8037445013488589  0.8560567422001597  1.0000
  H   H11       1.0  0.23909410710181322  0.3030006470825553  0.7948612513750462  1.0000
  H   H12       1.0  0.151102005783045  0.3475077777942772  0.8561016543578077  1.0000
  H   H13       1.0  0.6970944730927043  0.761034112102649  0.7051487310356849  1.0000
  H   H14       1.0  0.6525069585577582  0.848929244691888  0.6438779459830356  1.0000
  H   H15       1.0  0.23906131323533922  0.9360816525089531  0.7051530938544062  1.0000
  H   H16       1.0  0.151106203803117  0.8036603113234904  0.643911808116286  1.0000
  H   H17       1.0  0.06396914804960115  0.30299657277885217  0.7052330762917407  1.0000
  H   H18       1.0  0.19639530130827854  0.34745924592665733  0.6439226910819187  1.0000
  H   H19       1.0  0.30291742479742106  0.2390807736325583  0.7052558126890602  1.0000
  H   H20       1.0  0.3473450187474469  0.1511065474310128  0.6439374903087368  1.0000
  H   H21       1.0  0.7610256699973519  0.06399828658174289  0.7051284366008731  1.0000
  H   H22       1.0  0.8488981591435801  0.19647639363613206  0.6438981484541274  1.0000
  H   H23       1.0  0.9360127836963483  0.6969785660959641  0.7051659893350575  1.0000
  H   H24       1.0  0.8035441308543266  0.6524639580132853  0.6438945771963631  1.0000
  H   H25       1.0  0.06382600792281314  0.7608215410269848  0.20524601618209462  1.0000
  H   H26       1.0  0.19622768166954077  0.8488381266252459  0.14392843356959867  1.0000
  H   H27       1.0  0.6969513755299913  0.9361133317947146  0.2052870008376786  1.0000
  H   H28       1.0  0.6526679203950038  0.803800229731024  0.1439590937608131  1.0000
  H   H29       1.0  0.2390459666822835  0.30295289443705536  0.2052053336810147  1.0000
  H   H30       1.0  0.15108099591188312  0.3474441425310957  0.14392240316769292  1.0000
  H   H31       1.0  0.9361583459733537  0.23908255084366895  0.205204035842435  1.0000
  H   H32       1.0  0.803734042078993  0.1511052623180117  0.14390510683956848  1.0000
  H   H33       1.0  0.30301336114743543  0.06399315731704988  0.20517218041175064  1.0000
  H   H34       1.0  0.34752427076973896  0.19641898940848523  0.14391342068532964  1.0000
  H   H35       1.0  0.7607818671140617  0.6969399329679288  0.20533058238267196  1.0000
  H   H36       1.0  0.8488916879059969  0.6527244798202357  0.1439628959489383  1.0000
  H   H37       1.0  0.30303839513280906  0.23912802634795574  0.2947593140170142  1.0000
  H   H38       1.0  0.3474394431294384  0.15112472343165703  0.3560782074453357  1.0000
  H   H39       1.0  0.7611432572017519  0.06401659908108555  0.294851784020274  1.0000
  H   H40       1.0  0.8489673453283046  0.19645437712181724  0.3561009829843087  1.0000
  H   H41       1.0  0.9360492442097267  0.6970284246072039  0.2949057766876066  1.0000
  H   H42       1.0  0.8034933046115286  0.6523866423901055  0.3561187248298268  1.0000
  H   H43       1.0  0.6970792440792764  0.7610843505145083  0.2948787732628588  1.0000
  H   H44       1.0  0.6523937077178983  0.848916123964599  0.3561301039932729  1.0000
  H   H45       1.0  0.23905738203911422  0.9360522454603527  0.294750987524445  1.0000
  H   H46       1.0  0.15112009366116996  0.8037033455943784  0.3560695743607241  1.0000
  H   H47       1.0  0.06387578783385807  0.302972973278031  0.29480051810397606  1.0000
  H   H48       1.0  0.19631025459424475  0.347376351168556  0.3560792401088761  1.0000
  C   C1        1.0  0.878260072428624  0.3433913815249451  0.8655303994335313  1.0000
  C   C2        1.0  0.8509853322042176  0.2313440278550372  0.8164284823604433  1.0000
  C   C3        1.0  0.4650763846448881  0.12165902811696566  0.8655843175796747  1.0000
  C   C4        1.0  0.3803119951534555  0.14896399817442316  0.8164579548187803  1.0000
  C   C5        1.0  0.6565702608860914  0.5348438245739612  0.8655596560942982  1.0000
  C   C6        1.0  0.7685886462264193  0.6196223748552182  0.8164178023574705  1.0000
  C   C7        1.0  0.12174185136126409  0.6566249599153975  0.8655281591226753  1.0000
  C   C8        1.0  0.14900102167918314  0.7686618593546442  0.816413364830872  1.0000
  C   C9        1.0  0.5349091415223411  0.8783224500221889  0.8655686349297228  1.0000
  C   C10       1.0  0.6196809969769032  0.8510386055135934  0.8164295668797763  1.0000
  C   C11       1.0  0.3434163013575713  0.46516421570306926  0.8655823339431024  1.0000
  C   C12       1.0  0.2313675477630354  0.38038934575457245  0.8164758081041157  1.0000
  C   C13       1.0  0.5349080402358127  0.6566391806583595  0.6344271905990126  1.0000
  C   C14       1.0  0.6196595067093112  0.7687082509147628  0.6835140805106406  1.0000
  C   C15       1.0  0.3434318665562727  0.8782967225971346  0.6343754283362343  1.0000
  C   C16       1.0  0.23137437722912327  0.8510079836676497  0.6835164290285436  1.0000
  C   C17       1.0  0.12174648469768104  0.4651294771842416  0.6344736423073057  1.0000
  C   C18       1.0  0.1490623383991903  0.3803693226409165  0.6835714272933869  1.0000
  C   C19       1.0  0.4650717890000564  0.34338569493317544  0.6344541367839085  1.0000
  C   C20       1.0  0.380293545637862  0.23134149684103977  0.6835687320739866  1.0000
  C   C21       1.0  0.6565632528777384  0.12171815922718568  0.6343950634725388  1.0000
  C   C22       1.0  0.7686482219554944  0.1490549522086509  0.6835140117826768  1.0000
  C   C23       1.0  0.8782282375016165  0.5348191500125024  0.6344490982168836  1.0000
  C   C24       1.0  0.8509140069985576  0.6195847135617851  0.6835357479030506  1.0000
  C   C25       1.0  0.1217172266429714  0.6565718597612076  0.1344397638350117  1.0000
  C   C26       1.0  0.14895812895292687  0.768594891182836  0.1835587324163583  1.0000
  C   C27       1.0  0.5348654275455329  0.8782937064532844  0.13442908338125648  1.0000
  C   C28       1.0  0.6196411541554735  0.8510375989079573  0.183584067716076  1.0000
  C   C29       1.0  0.3434005035812575  0.46511187421781824  0.1344647073270906  1.0000
  C   C30       1.0  0.2313298208063585  0.38033581943567185  0.1835621034320098  1.0000
  C   C31       1.0  0.8782976476084343  0.34337225700298984  0.1344109463179279  1.0000
  C   C32       1.0  0.8510364786706219  0.23133879572464608  0.18353183037447002  1.0000
  C   C33       1.0  0.4651656889033972  0.12172520579894539  0.1344082274879739  1.0000
  C   C34       1.0  0.3804159967382361  0.14905523378945407  0.1835326791469782  1.0000
  C   C35       1.0  0.6566039833024317  0.5348681675845978  0.1344840490689023  1.0000
  C   C36       1.0  0.7686282215062193  0.6196664436370868  0.1836112793736646  1.0000
  C   C37       1.0  0.4651671969664619  0.3433943106214627  0.3655581980506071  1.0000
  C   C38       1.0  0.38040133810852683  0.23136347562009962  0.316443902256502  1.0000
  C   C39       1.0  0.6566272423803665  0.12168942082947588  0.3655746396914097  1.0000
  C   C40       1.0  0.7687358063596148  0.14905642187354548  0.3164695686865571  1.0000
  C   C41       1.0  0.8782655893004045  0.5348235064848409  0.3655775177668872  1.0000
  C   C42       1.0  0.8509471261199478  0.6195892125498899  0.3164894764176083  1.0000
  C   C43       1.0  0.5348737392037677  0.6566063445089083  0.36557753297376644  1.0000
  C   C44       1.0  0.6196046726146064  0.768701834597891  0.31649886563255347  1.0000
  C   C45       1.0  0.3434360988605292  0.8783020862646395  0.3655513482752895  1.0000
  C   C46       1.0  0.23136393141437134  0.8509928641736622  0.3164305726094554  1.0000
  C   C47       1.0  0.12173342562374503  0.4651054447807184  0.36557587476089287  1.0000
  C   C48       1.0  0.14898723697603342  0.3803241114431585  0.3164520755885505  1.0000
  O   O1        1.0  0.8201509621581307  0.39660531098076734  0.8494947320008279  1.0000
  O   O2        1.0  0.9589342893997281  0.37134600837581616  0.9199260666603806  1.0000
  O   O3        1.0  0.5763983098590016  0.17973496454232651  0.8495399122677938  1.0000
  O   O4        1.0  0.4123582134816886  0.04102081917720563  0.919967887268939  1.0000
  O   O5        1.0  0.603344106894525  0.4235914022230458  0.8495282887887187  1.0000
  O   O6        1.0  0.6286769744235199  0.5875806629270313  0.9199830770822857  1.0000
  O   O7        1.0  0.1798402388556893  0.6034040689412732  0.8494828350633342  1.0000
  O   O8        1.0  0.041087181219090496  0.6286786552858387  0.9199407598682399  1.0000
  O   O9        1.0  0.42358837139650524  0.8202297413860576  0.8495283953507312  1.0000
  O   O10       1.0  0.5876167442355538  0.9589457029782052  0.9199574026444282  1.0000
  O   O11       1.0  0.3966654782925545  0.5764111278387246  0.8495205307484639  1.0000
  O   O12       1.0  0.3713100577752328  0.4124263599056731  0.9200085920241676  1.0000
  O   O13       1.0  0.42359359168218436  0.603394189396624  0.6504903520135841  1.0000
  O   O14       1.0  0.5876197575279746  0.6286952145076936  0.5800189757494679  1.0000
  O   O15       1.0  0.3967035645641844  0.8202522021442674  0.6504427668375712  1.0000
  O   O16       1.0  0.3713122765424613  0.9588943000086727  0.579965670135671  1.0000
  O   O17       1.0  0.17976590316967384  0.576384414207041  0.650495383804291  1.0000
  O   O18       1.0  0.041060112197165086  0.41236696362623343  0.5800859131410903  1.0000
  O   O19       1.0  0.576389707165056  0.3966047756688268  0.650497545103832  1.0000
  O   O20       1.0  0.41235928493951945  0.3713294464730905  0.5800431220947431  1.0000
  O   O21       1.0  0.6032656059789616  0.17973424377385058  0.65047144244339  1.0000
  O   O22       1.0  0.62869755911764  0.04112699143353627  0.5799880283085488  1.0000
  O   O23       1.0  0.8202162685304724  0.4235651186277421  0.6504937325219231  1.0000
  O   O24       1.0  0.9589046264475696  0.5875657374019025  0.5800504834844702  1.0000
  O   O25       1.0  0.1797990103672688  0.6033365727253183  0.150501617713104  1.0000
  O   O26       1.0  0.041104932436041894  0.6286591269896035  0.0800051217003741  1.0000
  O   O27       1.0  0.4235420236872894  0.8201962248772926  0.15046374536207452  1.0000
  O   O28       1.0  0.5875863196536246  0.9589155437869009  0.0800339433625084  1.0000
  O   O29       1.0  0.39662293910654967  0.5763632556866725  0.15049485658722972  1.0000
  O   O30       1.0  0.3713409823755783  0.4123728251361172  0.08007234605499043  1.0000
  O   O31       1.0  0.8202191281781237  0.39660784724555465  0.150469059286074  1.0000
  O   O32       1.0  0.9589217201777983  0.37129114987710893  0.07998068480118552  1.0000
  O   O33       1.0  0.5764834621553162  0.17976567370273924  0.1504661290347613  1.0000
  O   O34       1.0  0.41244187989059355  0.04111283668900252  0.08001397818613751  1.0000
  O   O35       1.0  0.6034086275764777  0.4236111938860104  0.1505056604963002  1.0000
  O   O36       1.0  0.6286709116172841  0.5876052970405465  0.0800815406529694  1.0000
  O   O37       1.0  0.5764879168272898  0.396621067674772  0.3495066080665552  1.0000
  O   O38       1.0  0.41245479479695024  0.37132209317784487  0.4199773751170284  1.0000
  O   O39       1.0  0.6033698611589173  0.17975393957356522  0.3495328786203018  1.0000
  O   O40       1.0  0.6286990691038882  0.04102878647810112  0.4199454229489845  1.0000
  O   O41       1.0  0.8202864490909362  0.42357756169663197  0.3495161926748764  1.0000
  O   O42       1.0  0.9589071338745825  0.5875614765726309  0.4199920420183929  1.0000
  O   O43       1.0  0.4235592846102562  0.603324268473635  0.3495067217840244  1.0000
  O   O44       1.0  0.5876016534379501  0.6286846116273916  0.4199891564731502  1.0000
  O   O45       1.0  0.39667387719248387  0.820216126392914  0.3495163809345101  1.0000
  O   O46       1.0  0.37135990344186315  0.9589495011879732  0.4199248889840207  1.0000
  O   O47       1.0  0.1797542007837052  0.5763556588907476  0.3495330677402464  1.0000
  O   O48       1.0  0.041090946238291744  0.412363208946516  0.4199958048729613  1.0000
  O   O49       1.0  0.7760538058854677  0.223809100957794  0.7500000105495772  1.0000
  O   O50       1.0  0.44767774099891267  0.2238379878982428  0.7500199327604945  1.0000
  O   O51       1.0  0.7761093905629436  0.5522546205174447  0.7500001905229398  1.0000
  O   O52       1.0  0.223917774867303  0.776185545279219  0.7499772404860252  1.0000
  O   O53       1.0  0.5522998120496468  0.7761417657812614  0.7500066470018041  1.0000
  O   O54       1.0  0.2239128797124224  0.4477222314482532  0.7500062937403484  1.0000
  O   O55       1.0  0.22384665959457103  0.7760989342787923  0.2500073006272814  1.0000
  O   O56       1.0  0.5522481988212888  0.7760931699096358  0.24998859643663712  1.0000
  O   O57       1.0  0.22383882370156966  0.44767363460255166  0.2500107752573086  1.0000
  O   O58       1.0  0.7761724856589112  0.22385043866790244  0.24999475068738522  1.0000
  O   O59       1.0  0.44778602569145676  0.22387241874035613  0.2499890952319817  1.0000
  O   O60       1.0  0.7762297175698263  0.5522821413809919  0.2499912771116612  1.0000
