data_image0
_chemical_formula_structural       H16Pb2C16S4N4O16
_chemical_formula_sum              "H16 Pb2 C16 S4 N4 O16"
_cell_length_a       7.110549573787233
_cell_length_b       7.614619483533587
_cell_length_c       13.779681349463582
_cell_angle_alpha    83.1356367087231
_cell_angle_beta     86.99968167715544
_cell_angle_gamma    62.099573216628784

_space_group_name_H-M_alt    "P 1"
_space_group_IT_number       1

loop_
  _space_group_symop_operation_xyz
  'x, y, z'

loop_
  _atom_site_type_symbol
  _atom_site_label
  _atom_site_symmetry_multiplicity
  _atom_site_fract_x
  _atom_site_fract_y
  _atom_site_fract_z
  _atom_site_occupancy
  H   H1        1.0  0.4895441296498432  0.8407664633718923  0.2719402368492397  1.0000
  H   H2        1.0  0.5104564900167432  0.1592323950090702  0.7280601710224062  1.0000
  H   H3        1.0  0.651075385939244  0.8791932275360494  0.11474019214772818  1.0000
  H   H4        1.0  0.3489244539141581  0.12080715634269268  0.8852579639927003  1.0000
  H   H5        1.0  0.5819412642829608  0.7868270339727416  0.015254281203105806  1.0000
  H   H6        1.0  0.4180543847649005  0.2131703964817007  0.9847434679997848  1.0000
  H   H7        1.0  0.8239145676439676  0.6360538891298191  0.08005090236513719  1.0000
  H   H8        1.0  0.17608319926150526  0.363945002603991  0.9199481392260725  1.0000
  H   H9        1.0  0.9101952696984483  0.8647607540197411  0.22330219533704107  1.0000
  H   H10       1.0  0.08980687965470222  0.1352350739427024  0.7767012641043041  1.0000
  H   H11       1.0  0.07819340513027129  0.9611529703126748  0.08127740974892111  1.0000
  H   H12       1.0  0.9218093309106835  0.0388444076251986  0.9187215773159567  1.0000
  H   H13       1.0  0.206625206899659  0.10789507634923719  0.10335916603747111  1.0000
  H   H14       1.0  0.7933788971255141  0.8921052677887431  0.896640313577237  1.0000
  H   H15       1.0  0.9393822313897787  0.22826346338832337  0.061276127964667616  1.0000
  H   H16       1.0  0.06061628687232462  0.7717368651472114  0.9387264266601038  1.0000
  Pb  Pb1       1.0  0.40979012249304253  0.28691909760686946  0.4846271329040306  1.0000
  Pb  Pb2       1.0  0.5901947814973737  0.7130887899591868  0.5153724481177306  1.0000
  C   C1        1.0  0.398857811680159  0.6042725932897852  0.3137877046706379  1.0000
  C   C2        1.0  0.6011420730829257  0.39572775972339247  0.6862126293088835  1.0000
  C   C3        1.0  0.47284920362962185  0.7187062966183502  0.24670221568492684  1.0000
  C   C4        1.0  0.527150004626293  0.2812925681505192  0.7532982349928617  1.0000
  C   C5        1.0  0.5480062667036734  0.6607564348109491  0.1571100350372348  1.0000
  C   C6        1.0  0.45199789571783816  0.3392409264504933  0.8428896351678645  1.0000
  C   C7        1.0  0.656535292302287  0.7472599888844582  0.08789148273582728  1.0000
  C   C8        1.0  0.34346526896796087  0.2527418523730347  0.9121087345454273  1.0000
  C   C9        1.0  0.7908850705143208  0.0351187642596784  0.34951843602006966  1.0000
  C   C10       1.0  0.20911113973127726  0.9648890619146044  0.6504815284988652  1.0000
  C   C11       1.0  0.907087627480408  0.9857463112263715  0.25903008594804083  1.0000
  C   C12       1.0  0.0929166097905707  0.014250998592480402  0.7409732139888875  1.0000
  C   C13       1.0  0.9806419757297818  0.10667466624862948  0.21012446711833382  1.0000
  C   C14       1.0  0.019359348900508316  0.8933227180771437  0.7898745627526937  1.0000
  C   C15       1.0  0.056738851505564  0.09907652938758818  0.1079020820587502  1.0000
  C   C16       1.0  0.9432638995052759  0.9009208382617613  0.8920976309524988  1.0000
  S   S1        1.0  0.3559524845578466  0.43855936396182227  0.1723230855489035  1.0000
  S   S2        1.0  0.6440623780114123  0.5614275710535707  0.8276725749982248  1.0000
  S   S3        1.0  0.9700619629278008  0.24873516438047721  0.3724081334389311  1.0000
  S   S4        1.0  0.02992770655255576  0.7512831203187318  0.6275920825876895  1.0000
  N   N1        1.0  0.36075363332386706  0.46004341048100617  0.2856027315293376  1.0000
  N   N2        1.0  0.6392477347328622  0.5399510012567603  0.71439576298571  1.0000
  N   N3        1.0  0.7980536269571561  0.1759120888139307  0.4003484009644752  1.0000
  N   N4        1.0  0.20194406806533052  0.8240927378073903  0.5996524372850587  1.0000
  O   O1        1.0  0.43907875846476674  0.23269682892881602  0.15610427460000412  1.0000
  O   O2        1.0  0.5609258319086762  0.7673139623715957  0.8438937905989194  1.0000
  O   O3        1.0  0.15879293146021212  0.5827970722450573  0.12493264021365041  1.0000
  O   O4        1.0  0.8412077885458945  0.41719288894889667  0.8750647096973128  1.0000
  O   O5        1.0  0.5389699433810123  0.5024695843106172  0.12271476879354282  1.0000
  O   O6        1.0  0.4610278235244608  0.49752930742319273  0.8772842727976667  1.0000
  O   O7        1.0  0.3805484988371859  0.624433867178048  0.4061657346294326  1.0000
  O   O8        1.0  0.6194521642558328  0.3755620186149002  0.5938341378862263  1.0000
  O   O9        1.0  0.8981630807966781  0.45116438489999666  0.3947677315361773  1.0000
  O   O10       1.0  0.10183393623540841  0.5488360117545525  0.6052305102165434  1.0000
  O   O11       1.0  0.1840123349207303  0.10638389938007008  0.40445494947143606  1.0000
  O   O12       1.0  0.8159860665487102  0.893622394908526  0.5955472239725594  1.0000
  O   O13       1.0  0.9787646421027533  0.2649894046968768  0.251250251064441  1.0000
  O   O14       1.0  0.021237418914274886  0.7350094267191382  0.748751565893784  1.0000
  O   O15       1.0  0.6624588353065377  0.9676718359670033  0.37901224534937944  1.0000
  O   O16       1.0  0.3375367283716884  0.03233448138592369  0.6209892877605513  1.0000
