data_image0
_chemical_formula_structural       Cd4H48C68N4O20
_chemical_formula_sum              "Cd4 H48 C68 N4 O20"
_cell_length_a       9.981800281519455
_cell_length_b       10.967861789797983
_cell_length_c       15.445931909538464
_cell_angle_alpha    95.47234322047198
_cell_angle_beta     89.9838874449585
_cell_angle_gamma    117.06532160225593

_space_group_name_H-M_alt    "P 1"
_space_group_IT_number       1

loop_
  _space_group_symop_operation_xyz
  'x, y, z'

loop_
  _atom_site_type_symbol
  _atom_site_label
  _atom_site_symmetry_multiplicity
  _atom_site_fract_x
  _atom_site_fract_y
  _atom_site_fract_z
  _atom_site_occupancy
  Cd  Cd1       1.0  0.9629729287463318  0.043009585312106  0.3787607303229024  1.0000
  Cd  Cd2       1.0  0.9198468795392002  0.9569660144261151  0.12117401360912088  1.0000
  Cd  Cd3       1.0  0.03702868046092795  0.9569927235927693  0.6212393821759649  1.0000
  Cd  Cd4       1.0  0.08015369954809869  0.04303423437365689  0.8788266063269036  1.0000
  H   H1        1.0  0.09564636029835331  0.6055858578458952  0.4820147733885706  1.0000
  H   H2        1.0  0.4901072737192749  0.3946251483732013  0.018014747594364205  1.0000
  H   H3        1.0  0.9043537047432152  0.3944133622242277  0.517984481806515  1.0000
  H   H4        1.0  0.5098923039713057  0.6053751009975415  0.9819852250515384  1.0000
  H   H5        1.0  0.1115468662778198  0.42600589744574074  0.37920424056762414  1.0000
  H   H6        1.0  0.6856182850131842  0.5740963974232685  0.12079548107748654  1.0000
  H   H7        1.0  0.8884521961499274  0.5739933216078654  0.6207963094887676  1.0000
  H   H8        1.0  0.3143812926773961  0.4259038519474743  0.8792044915684161  1.0000
  H   H9        1.0  0.06331570388502428  0.42129454676256717  0.21878783705437854  1.0000
  H   H10       1.0  0.6421243029934162  0.5786570716893211  0.281250096922527  1.0000
  H   H11       1.0  0.9366838733998648  0.5787057020790201  0.7812127829753311  1.0000
  H   H12       1.0  0.3578752751028631  0.42134317821057726  0.7187492283395615  1.0000
  H   H13       1.0  0.99856451694648  0.5959903854127901  0.16646159705933883  1.0000
  H   H14       1.0  0.40264073580159737  0.40400525240389135  0.3335919872367087  1.0000
  H   H15       1.0  0.0014350603384016853  0.4040098634287972  0.8335390229703707  1.0000
  H   H16       1.0  0.5973593567461108  0.5959960267548184  0.6664080553825187  1.0000
  H   H17       1.0  0.6530573563213125  0.7999290177064468  0.30344515174459025  1.0000
  H   H18       1.0  0.8528590617441196  0.19996555412316752  0.19646258162100597  1.0000
  H   H19       1.0  0.34694422497410216  0.20007123158067944  0.696554820713942  1.0000
  H   H20       1.0  0.14714206051785794  0.8000377846114831  0.8035376009448714  1.0000
  H   H21       1.0  0.37693430300755193  0.7329797880032418  0.29068865229666596  1.0000
  H   H22       1.0  0.6438041153369126  0.26707511942062473  0.20923189589650096  1.0000
  H   H23       1.0  0.6230657616283181  0.26701943153772584  0.7093112502822339  1.0000
  H   H24       1.0  0.3561959768050968  0.7329261592089226  0.7907687941065336  1.0000
  H   H25       1.0  0.2906694754921946  0.9063383576894923  0.349179716455133  1.0000
  H   H26       1.0  0.38413188629848344  0.0937597620658011  0.15084700254977434  1.0000
  H   H27       1.0  0.7093310756832665  0.09365983149253762  0.6508207634405638  1.0000
  H   H28       1.0  0.6158692084573474  0.9062415175802631  0.849152392591954  1.0000
  H   H29       1.0  0.7521767346529271  0.18643811216981732  0.4260521256645191  1.0000
  H   H30       1.0  0.5654403457546237  0.8135313081694875  0.07381302969975682  1.0000
  H   H31       1.0  0.2478223285862171  0.8135611079421138  0.5739471296242515  1.0000
  H   H32       1.0  0.4345632670574772  0.18647100065177824  0.9261870826117404  1.0000
  H   H33       1.0  0.37366050348179397  0.1571391454039741  0.38528987997352715  1.0000
  H   H34       1.0  0.2163027103492469  0.842817252886242  0.11480675931762366  1.0000
  H   H35       1.0  0.626340048505064  0.8428590448363737  0.6147093051545556  1.0000
  H   H36       1.0  0.7836978970555961  0.1571850560604346  0.8851933532749288  1.0000
  H   H37       1.0  0.39924439785758636  0.11809706726434402  0.4908685442898176  1.0000
  H   H38       1.0  0.2809163966582275  0.8817659883573581  0.009195441480692092  1.0000
  H   H39       1.0  0.6007541505244304  0.8819011230596201  0.5091306410256282  1.0000
  H   H40       1.0  0.7190856999000202  0.11823529124689712  0.9908039535673512  1.0000
  H   H41       1.0  0.7582328414417603  0.5495140838165185  0.4577794678142056  1.0000
  H   H42       1.0  0.2085921934967132  0.4504101148196469  0.04227562949442641  1.0000
  H   H43       1.0  0.24176619469693605  0.45048307773598845  0.5422183526666089  1.0000
  H   H44       1.0  0.7914078707334582  0.5495891041921582  0.9577249204682732  1.0000
  H   H45       1.0  0.2999791845546794  0.2587777937194318  0.4998396784758158  1.0000
  H   H46       1.0  0.0412175833148467  0.7412312832504354  0.00019116681578170206  1.0000
  H   H47       1.0  0.700020366846843  0.7412203981502045  0.5001575645945167  1.0000
  H   H48       1.0  0.9587814783015106  0.25876793474485293  0.999810678008224  1.0000
  C   C1        1.0  0.03558874975538379  0.8081996346086698  0.4524954844776944  1.0000
  C   C2        1.0  0.227539789994502  0.1919033293033507  0.04754170210171081  1.0000
  C   C3        1.0  0.9644113423866328  0.1918016440208845  0.5475052055253402  1.0000
  C   C4        1.0  0.7724603025532133  0.8080979498553588  0.9524583405175095  1.0000
  C   C5        1.0  0.0356545974103142  0.7007993216321253  0.3840103768749615  1.0000
  C   C6        1.0  0.3349293968611208  0.2993454946862641  0.11602573833205554  1.0000
  C   C7        1.0  0.964342489730143  0.29920195765200935  0.6159896660253139  1.0000
  C   C8        1.0  0.665072184434301  0.7006547546008619  0.883974234126484  1.0000
  C   C9        1.0  0.07274067582608973  0.6018587436006085  0.41266366919555963  1.0000
  C   C10       1.0  0.4709487026769992  0.3983488626174251  0.08737720396159433  1.0000
  C   C11       1.0  0.9272558964572324  0.39814150589555203  0.5873363037313979  1.0000
  C   C12       1.0  0.5290508750135814  0.6016513867533106  0.9126227686843082  1.0000
  C   C13       1.0  0.08313272704579332  0.5015248461159914  0.35437781599656415  1.0000
  C   C14       1.0  0.5816698277407113  0.4986241515658775  0.145653269107747  1.0000
  C   C15       1.0  0.9168658492480688  0.4984754038257152  0.6456215093592095  1.0000
  C   C16       1.0  0.418330264807004  0.5013771275928319  0.8543467735114804  1.0000
  C   C17       1.0  0.055993461531272666  0.49897563488524094  0.26540814590917716  1.0000
  C   C18       1.0  0.557108363642655  0.5010498687651436  0.23463735816108774  1.0000
  C   C19       1.0  0.9440050864450453  0.5010225549095608  0.7345916867900827  1.0000
  C   C20       1.0  0.4428912144536241  0.49895038113475454  0.7653619671010007  1.0000
  C   C21       1.0  0.020400663806498243  0.5973979304551238  0.23573604717270777  1.0000
  C   C22       1.0  0.4230485053411144  0.4026398142406221  0.2643107823973736  1.0000
  C   C23       1.0  0.979598398621249  0.40260128859848987  0.7642645028836841  1.0000
  C   C24       1.0  0.5769500709527476  0.5973604357010841  0.7356885429583997  1.0000
  C   C25       1.0  0.010273625408487416  0.6988669076755016  0.29380447963341544  1.0000
  C   C26       1.0  0.3114476077508569  0.30121814277795517  0.20625207262690287  1.0000
  C   C27       1.0  0.9897249225678307  0.3011312821193001  0.7061953530658444  1.0000
  C   C28       1.0  0.6885524843911597  0.698783135851599  0.7937486173761388  1.0000
  C   C29       1.0  0.9658952445502464  0.7967994643088333  0.2556879134907747  1.0000
  C   C30       1.0  0.16922194815015248  0.203148543645618  0.24442929037226696  1.0000
  C   C31       1.0  0.03410733814189372  0.20320078440732914  0.7443127062578868  1.0000
  C   C32       1.0  0.8307781443975556  0.7968527355130918  0.7555707522469606  1.0000
  C   C33       1.0  0.6092804799435497  0.8702062281888557  0.32819466400709985  1.0000
  C   C34       1.0  0.7388125397131589  0.1297340943273113  0.17169164614372795  1.0000
  C   C35       1.0  0.39072058649473707  0.12979299131030336  0.6718052384781146  1.0000
  C   C36       1.0  0.26118806728599253  0.8702682140902099  0.8283091138326315  1.0000
  C   C37       1.0  0.4564782594786576  0.8342160422791168  0.3214592777066373  1.0000
  C   C38       1.0  0.6220588699008828  0.1658158564107453  0.17845511234294523  1.0000
  C   C39       1.0  0.5435222912910973  0.16578214637375052  0.6785418495728666  1.0000
  C   C40       1.0  0.3779402204387168  0.8341854222606101  0.8215455777537743  1.0000
  C   C41       1.0  0.40897336265533113  0.9297692343196504  0.3540037923801053  1.0000
  C   C42       1.0  0.47897267770024843  0.07029632353345512  0.14597872528453595  1.0000
  C   C43       1.0  0.5910267015748402  0.07022998469215481  0.6459967575825943  1.0000
  C   C44       1.0  0.5210274144417681  0.9297049550960923  0.8540219647184984  1.0000
  C   C45       1.0  0.5144434124584407  0.0584724372608747  0.3936117571080544  1.0000
  C   C46       1.0  0.45572163254854536  0.9415598017277486  0.10638952603645892  1.0000
  C   C47       1.0  0.4855576535741476  0.9415267817091217  0.6063887927609672  1.0000
  C   C48       1.0  0.5442789473501576  0.058440448130348  0.8936097991319517  1.0000
  C   C49       1.0  0.6654952857173625  0.0870511754980399  0.3973015938385133  1.0000
  C   C50       1.0  0.5781698507359039  0.9129295657239069  0.10257556906582016  1.0000
  C   C51       1.0  0.33450629557805917  0.9129490737890862  0.6026983786200193  1.0000
  C   C52       1.0  0.4218317584713631  0.08707274318096843  0.8974245434330401  1.0000
  C   C53       1.0  0.4576892848615728  0.15608683557888978  0.431127012716992  1.0000
  C   C54       1.0  0.30140192492079604  0.8438779466291347  0.06896133457878051  1.0000
  C   C55       1.0  0.5423097496543292  0.8439103238569743  0.5688733972990649  1.0000
  C   C56       1.0  0.6985996846921625  0.15612436280489564  0.9310381305362726  1.0000
  C   C57       1.0  0.5349756931742036  0.39158038903887865  0.47616842040341123  1.0000
  C   C58       1.0  0.14336906771588076  0.608409435390115  0.02387197864741352  1.0000
  C   C59       1.0  0.46502485962404444  0.6084178022597867  0.5238294699570433  1.0000
  C   C60       1.0  0.8566315109657265  0.3915908128805015  0.9761292886724251  1.0000
  C   C61       1.0  0.6450420699125912  0.5280546524189375  0.4762892626921912  1.0000
  C   C62       1.0  0.11691447085990354  0.4719203559355877  0.023741252324853714  1.0000
  C   C63       1.0  0.3549584832913554  0.4719435394088975  0.5237079802844563  1.0000
  C   C64       1.0  0.8830835618535885  0.5280768035420847  0.9762591577848883  1.0000
  C   C65       1.0  0.3890198772506109  0.36362446241543717  0.5002513996644922  1.0000
  C   C66       1.0  0.025421257011927996  0.6363839339234972  0.9997591801740244  1.0000
  C   C67       1.0  0.6109801890080463  0.636374759242166  0.49974591337916513  1.0000
  C   C68       1.0  0.974579321263981  0.36361631381795695  0.0002427345296212081  1.0000
  N   N1        1.0  0.7119312537089896  0.994577702252165  0.36498274275337655  1.0000
  N   N2        1.0  0.7170874907886712  0.005367499595436701  0.13487454867976112  1.0000
  N   N3        1.0  0.28806932618970654  0.0054225476059315  0.635016582415034  1.0000
  N   N4        1.0  0.2829151202210126  0.9946348092676304  0.865125563725421  1.0000
  O   O1        1.0  0.9879425461487659  0.7669419626846975  0.5262207765148263  1.0000
  O   O2        1.0  0.22117704215310144  0.23312485546168207  0.9738052326778118  1.0000
  O   O3        1.0  0.012056543785135421  0.23305931545749559  0.4737805609657003  1.0000
  O   O4        1.0  0.7788235373399033  0.7668753938672525  0.02619473987441271  1.0000
  O   O5        1.0  0.09030773608663625  0.9341927333611864  0.4380668487806646  1.0000
  O   O6        1.0  0.15624759188145276  0.0659201655863768  0.062002944887908015  1.0000
  O   O7        1.0  0.9096928434063611  0.06580751596774798  0.5619331237715528  1.0000
  O   O8        1.0  0.8437519858091278  0.9340800837843588  0.9379970277579944  1.0000
  O   O9        1.0  0.8736863771062173  0.8312103292807649  0.2945084192427957  1.0000
  O   O10       1.0  0.042489104817377714  0.1685068041763387  0.20569321973431445  1.0000
  O   O11       1.0  0.12631571864063318  0.16879094926517274  0.7054922705728757  1.0000
  O   O12       1.0  0.9575104724675039  0.8314934446652412  0.7943074002953949  1.0000
  O   O13       1.0  0.0195459872041612  0.8365278763546586  0.18280268099413635  1.0000
  O   O14       1.0  0.1832846815050502  0.1635528228214014  0.3173187394667708  1.0000
  O   O15       1.0  0.980456595487979  0.1634723723615039  0.817197938754525  1.0000
  O   O16       1.0  0.8167164132507806  0.8364484568246624  0.6826806556749576  1.0000
  O   O17       1.0  0.578654794623567  0.29172234740537567  0.45012751131351086  1.0000
  O   O18       1.0  0.2868471332409186  0.7082585744581351  0.04997170683176221  1.0000
  O   O19       1.0  0.42134421238619524  0.7082727529419088  0.5498721112784042  1.0000
  O   O20       1.0  0.7131524444496619  0.29174167491260766  0.9500282658141401  1.0000
