data_image0
_chemical_formula_structural       Cu3P2H26C30N6O10
_chemical_formula_sum              "Cu3 P2 H26 C30 N6 O10"
_cell_length_a       8.053410198807587
_cell_length_b       9.768305815261712
_cell_length_c       11.16727961111984
_cell_angle_alpha    106.39973973602169
_cell_angle_beta     107.18632797975557
_cell_angle_gamma    92.15436378734772

_space_group_name_H-M_alt    "P 1"
_space_group_IT_number       1

loop_
  _space_group_symop_operation_xyz
  'x, y, z'

loop_
  _atom_site_type_symbol
  _atom_site_label
  _atom_site_symmetry_multiplicity
  _atom_site_fract_x
  _atom_site_fract_y
  _atom_site_fract_z
  _atom_site_occupancy
  Cu  Cu1       1.0  0.4998733381587429  0.00020469161774629992  0.5001270138140157  1.0000
  Cu  Cu2       1.0  0.31553861880510686  0.06272863866661278  0.016594573438702312  1.0000
  Cu  Cu3       1.0  0.6842905947107456  0.9375106122738684  0.9837185513470458  1.0000
  P   P1        1.0  0.5691296544107447  0.052146243671416  0.2645338242336664  1.0000
  P   P2        1.0  0.4302805587933492  0.9475821135320998  0.7356602975820792  1.0000
  H   H1        1.0  0.825789544926252  0.3217029561074085  0.4154372417730414  1.0000
  H   H2        1.0  0.17410726524500572  0.6777735799407836  0.5847932011359234  1.0000
  H   H3        1.0  0.8338542447967257  0.5628445797911752  0.3711477304430133  1.0000
  H   H4        1.0  0.16667841267166492  0.4365775191573887  0.6290248648308818  1.0000
  H   H5        1.0  0.6011679637247694  0.5932913342802663  0.17802684179461883  1.0000
  H   H6        1.0  0.3995722238808455  0.406295665240286  0.8220826413205202  1.0000
  H   H7        1.0  0.3068847158722789  0.7796662501508536  0.054818506370566004  1.0000
  H   H8        1.0  0.6933109742446604  0.22042362137474206  0.9448439718016887  1.0000
  H   H9        1.0  0.1294995636109206  0.5424582910845999  0.95263241222262  1.0000
  H   H10       1.0  0.8705571283168823  0.45769578166188307  0.04708718451131937  1.0000
  H   H11       1.0  0.7620923239081918  0.7350252629159327  0.696314458639101  1.0000
  H   H12       1.0  0.23808018193634692  0.2651941772975163  0.3034060687251454  1.0000
  H   H13       1.0  0.9571278633192154  0.9631937487779823  0.8128185740655739  1.0000
  H   H14       1.0  0.04323618573112501  0.03695511944788879  0.18680343763178797  1.0000
  H   H15       1.0  0.4357092488586006  0.2958192740649466  0.5094314462651397  1.0000
  H   H16       1.0  0.5641704321207257  0.704409787209009  0.4905262687542162  1.0000
  H   H17       1.0  0.5936616567301981  0.5422409854076732  0.6263481338305324  1.0000
  H   H18       1.0  0.40630433994629567  0.45796477332596897  0.3735192126805061  1.0000
  H   H19       1.0  0.021531523304169315  0.34780022333447386  0.826009346083218  1.0000
  H   H20       1.0  0.9784543289838796  0.6523795975749777  0.1737823106992096  1.0000
  H   H21       1.0  0.8416596077991799  0.11264834940082841  0.7054951280387202  1.0000
  H   H22       1.0  0.15814933132669753  0.8875429557178763  0.29448447120291393  1.0000
  H   H23       1.0  0.2424031459694121  0.256131182985463  0.9337877516624146  1.0000
  H   H24       1.0  0.7575030527269105  0.7442524114440373  0.06664817704933058  1.0000
  H   H25       1.0  0.20526213903321633  0.10463563032205767  0.8042410898977508  1.0000
  H   H26       1.0  0.7941347063711535  0.8956095649909556  0.19627112946609054  1.0000
  C   C1        1.0  0.5961230170372573  0.23150418037763387  0.2481323710293992  1.0000
  C   C2        1.0  0.4040118798039459  0.7680435654151764  0.7519598314898771  1.0000
  C   C3        1.0  0.7272958426565737  0.3414033958934509  0.3334512057784807  1.0000
  C   C4        1.0  0.2728563280842167  0.658084037282684  0.6666438469234564  1.0000
  C   C5        1.0  0.7302996575877073  0.47438354681455747  0.30785368159226306  1.0000
  C   C6        1.0  0.2701267987055189  0.5251376176352663  0.6922973400094891  1.0000
  C   C7        1.0  0.6025055626663162  0.49304690992157396  0.20236971790501457  1.0000
  C   C8        1.0  0.3980124698915902  0.5065991560049667  0.797826892137742  1.0000
  C   C9        1.0  0.46680483201989637  0.3779939625484161  0.11702600037629907  1.0000
  C   C10       1.0  0.5335257838591758  0.6217708225275729  0.8831438818231591  1.0000
  C   C11       1.0  0.18394863214011545  0.7635796701817907  0.9756043717493483  1.0000
  C   C12       1.0  0.8162711266373748  0.23651933250259555  0.024055816151623312  1.0000
  C   C13       1.0  0.08185915932771338  0.630618404766558  0.9160738041241174  1.0000
  C   C14       1.0  0.9182550287773524  0.3695307076171657  0.08362107637851324  1.0000
  C   C15       1.0  0.9280162585900129  0.6127325928767392  0.810110195647276  1.0000
  C   C16       1.0  0.07207390551037209  0.3874403115559771  0.18961593290947576  1.0000
  C   C17       1.0  0.8813320234110408  0.7363467882397924  0.7745822146139004  1.0000
  C   C18       1.0  0.11884768633503034  0.26382999367633886  0.22511149742982184  1.0000
  C   C19       1.0  0.9898311722343252  0.8665367122239329  0.8394992323284924  1.0000
  C   C20       1.0  0.010466409293044899  0.13360065694848086  0.1601264927486099  1.0000
  C   C21       1.0  0.5662091433134009  0.31372817382130336  0.5808974003600369  1.0000
  C   C22       1.0  0.4336586554725343  0.6864872790799905  0.41906437705208793  1.0000
  C   C23       1.0  0.6571734276143888  0.45103161129753006  0.646261797673624  1.0000
  C   C24       1.0  0.3427665445129264  0.5491720059175406  0.35362778710893383  1.0000
  C   C25       1.0  0.8249576383817256  0.46957003014417603  0.7379864316757292  1.0000
  C   C26       1.0  0.175008408827658  0.5306154217363925  0.2618422891989526  1.0000
  C   C27       1.0  0.8922111769137828  0.3440978658899141  0.7577697928316384  1.0000
  C   C28       1.0  0.1077288635437554  0.6560866866857252  0.24208772271337856  1.0000
  C   C29       1.0  0.7930214214992688  0.21061288673704578  0.6899102411635242  1.0000
  C   C30       1.0  0.20682979478269203  0.7895859945699684  0.3100619177022566  1.0000
  N   N1        1.0  0.4706287875894831  0.2475790134683677  0.14208503106342357  1.0000
  N   N2        1.0  0.5295822637076242  0.7520824993507133  0.857901579686029  1.0000
  N   N3        1.0  0.14181509932385686  0.8801362887107798  0.9367840381978425  1.0000
  N   N4        1.0  0.8584713497169504  0.11994865043703841  0.06283803693504106  1.0000
  N   N5        1.0  0.6320078009694684  0.19526599151312496  0.6022346594263155  1.0000
  N   N6        1.0  0.3678157809293481  0.8049386717476849  0.3977746004839632  1.0000
  O   O1        1.0  0.7402749841880905  0.001318546999463901  0.32436435759758103  1.0000
  O   O2        1.0  0.2588102421050493  0.9981147476660793  0.6761627138348274  1.0000
  O   O3        1.0  0.4348881181719194  0.0594723023415327  0.34101980835301043  1.0000
  O   O4        1.0  0.5641309639854768  0.9404706504462227  0.6588897809083889  1.0000
  O   O5        1.0  0.48071993993647066  0.9629856290894949  0.11700852157903092  1.0000
  O   O6        1.0  0.518916995213182  0.03676790423035209  0.8831660518937525  1.0000
  O   O7        1.0  0.34342024509135183  0.3941423167312976  0.0206183669667936  1.0000
  O   O8        1.0  0.6570092810728811  0.6058872730421782  0.9796626717352055  1.0000
  O   O9        1.0  0.17421634861766216  0.1516556509851341  0.8865665121218314  1.0000
  O   O10       1.0  0.8252492013308697  0.8488325069116625  0.11389540423058966  1.0000
