data_image0
_chemical_formula_structural       Zr6H16C52S15Cl4O47
_chemical_formula_sum              "Zr6 H16 C52 S15 Cl4 O47"
_cell_length_a       16.398937617207935
_cell_length_b       16.494241644511398
_cell_length_c       16.488361759584457
_cell_angle_alpha    62.19503906309548
_cell_angle_beta     60.20716912149532
_cell_angle_gamma    60.03369209113191

_space_group_name_H-M_alt    "P 1"
_space_group_IT_number       1

loop_
  _space_group_symop_operation_xyz
  'x, y, z'

loop_
  _atom_site_type_symbol
  _atom_site_label
  _atom_site_symmetry_multiplicity
  _atom_site_fract_x
  _atom_site_fract_y
  _atom_site_fract_z
  _atom_site_occupancy
  Zr  Zr1       1.0  0.8882742102546575  0.9000226764444507  0.6088303804942402  1.0000
  Zr  Zr2       1.0  0.1042360982661208  0.10664469158847113  0.3968545989536806  1.0000
  Zr  Zr3       1.0  0.10675071154945932  0.8999989427912637  0.6019904966021059  1.0000
  Zr  Zr4       1.0  0.885977420512532  0.10952463171133789  0.4015448641668656  1.0000
  Zr  Zr5       1.0  0.10241790501299165  0.8932657446706215  0.3934756259817007  1.0000
  Zr  Zr6       1.0  0.8883926025065989  0.11165058019417969  0.6142020553108196  1.0000
  H   H1        1.0  0.08309714690293644  0.7542392358304396  0.5783897924173617  1.0000
  H   H2        1.0  0.07899651324213862  0.07850363602264572  0.2545920741633907  1.0000
  H   H3        1.0  0.08477751509585829  0.08845221036602877  0.5851961209617187  1.0000
  H   H4        1.0  0.7407966696065954  0.09071591256275732  0.5925588440970627  1.0000
  H   H5        1.0  0.1018024804329373  0.6248989952522235  0.35903992540177404  1.0000
  H   H6        1.0  0.5975227404319698  0.13148446447216597  0.9066247490291415  1.0000
  H   H7        1.0  0.8314621580436637  0.099123321490147  0.14734753767288578  1.0000
  H   H8        1.0  0.6261844427601632  0.39892180701738067  0.367572157556346  1.0000
  H   H9        1.0  0.9409884934922702  0.6106520858694681  0.7741872888617536  1.0000
  H   H10       1.0  0.14418972351277398  0.3316965752173856  0.1608007209559332  1.0000
  H   H11       1.0  0.6229559575707955  0.8615674157714962  0.6081043622591197  1.0000
  H   H12       1.0  0.9122187094850318  0.2920989556044231  0.787870144062893  1.0000
  H   H13       1.0  0.3131247457852596  0.8603989596779299  0.02056585072269712  1.0000
  H   H14       1.0  0.1916694343791079  0.9191801190134827  0.7308990301321857  1.0000
  H   H15       1.0  0.20446418413779116  0.6746195974170133  0.7266002408721235  1.0000
  H   H16       1.0  0.28333050434561363  0.28422726288813044  0.40543490058939113  1.0000
  C   C1        1.0  0.990488317561571  0.7359094974695494  0.49717141479261057  1.0000
  C   C2        1.0  0.2712168435146937  0.9894875482171485  0.23201001186637904  1.0000
  C   C3        1.0  0.9893958804485693  0.2767784859959906  0.5068228992124874  1.0000
  C   C4        1.0  0.7268086340890036  0.006211461601566263  0.7791027943988736  1.0000
  C   C5        1.0  0.002360285944845946  0.7354641135667421  0.7646410001543416  1.0000
  C   C6        1.0  0.7264194991999633  0.9993665057114995  0.5030713226784371  1.0000
  C   C7        1.0  0.002799287012408142  0.2623892766107758  0.23428744520010272  1.0000
  C   C8        1.0  0.2772824971910026  0.00030764739316425054  0.4900439090354851  1.0000
  C   C9        1.0  0.2736343624372212  0.7342161427181823  0.49471954263177764  1.0000
  C   C10       1.0  0.002562677784034335  0.9990652184502409  0.7772167632193006  1.0000
  C   C11       1.0  0.7275161765901927  0.2791390358251532  0.5054025521208699  1.0000
  C   C12       1.0  0.980119708078135  0.9972252483598112  0.24301121857229885  1.0000
  C   C13       1.0  0.9241061832437863  0.41934841612201984  0.5766519146669823  1.0000
  C   C14       1.0  0.045387566291545146  0.600501190811258  0.4262426568037299  1.0000
  C   C15       1.0  0.9839230989226169  0.36913082000979364  0.5062969796335467  1.0000
  C   C16       1.0  0.9867538874114746  0.6486053978497991  0.49731854268152637  1.0000
  C   C17       1.0  0.021278024857935274  0.5177262183562518  0.4549900954797224  1.0000
  C   C18       1.0  0.9453950823911653  0.5043731565499172  0.547608191027223  1.0000
  C   C19       1.0  0.41846621544947044  0.9244804468859301  0.08490734872586372  1.0000
  C   C20       1.0  0.5809961223020891  0.06800950818002607  0.9235952429052148  1.0000
  C   C21       1.0  0.36114754270805366  0.9882279980076376  0.14274327837539172  1.0000
  C   C22       1.0  0.6378214580646784  0.0034719188732453194  0.8678875291473033  1.0000
  C   C23       1.0  0.5008294302083485  0.03909468032522769  0.002638947738347546  1.0000
  C   C24       1.0  0.4986000623726668  0.9533765859490514  0.004893655479634269  1.0000
  C   C25       1.0  0.0726561664013729  0.9448000802490242  0.9130765449160592  1.0000
  C   C26       1.0  0.9037098281142093  0.04870144810860919  0.11490823751511664  1.0000
  C   C27       1.0  0.9998923501116513  0.9963485839317908  0.8689664218972339  1.0000
  C   C28       1.0  0.9782838539293339  0.9950159076612836  0.1559428574563032  1.0000
  C   C29       1.0  0.9367331184596424  0.028380778687818613  0.026924046108170938  1.0000
  C   C30       1.0  0.036198867914478905  0.9618508958860869  0.0032714463491601634  1.0000
  C   C31       1.0  0.40722921948108837  0.593588419619472  0.5700958037742865  1.0000
  C   C32       1.0  0.5969939678674477  0.4211738392232506  0.4321759406555046  1.0000
  C   C33       1.0  0.3635978216671064  0.6461449270153279  0.4975395035243082  1.0000
  C   C34       1.0  0.6399616341258609  0.36968264101933807  0.5042077536544768  1.0000
  C   C35       1.0  0.5124930521899742  0.5031404672510007  0.45611553608321037  1.0000
  C   C36       1.0  0.4927942444280476  0.5115614285882515  0.5463167631700899  1.0000
  C   C37       1.0  0.0489242910991264  0.5987239713095533  0.9111971402081238  1.0000
  C   C38       1.0  0.9693677890731676  0.5817259853338186  0.8331602258811515  1.0000
  C   C39       1.0  0.9626374285347908  0.49396718200360124  0.9018395379007061  1.0000
  C   C40       1.0  0.9975526394551721  0.4539339938234547  0.9819833679187225  1.0000
  C   C41       1.0  0.9772058883213574  0.3747794397617595  0.06849561071751972  1.0000
  C   C42       1.0  0.09940484230660475  0.3701775439357959  0.11390992820024343  1.0000
  C   C43       1.0  0.11654595089002137  0.44893240832082887  0.035608944572636934  1.0000
  C   C44       1.0  0.05571350561260138  0.5018640786250474  0.975377724382497  1.0000
  C   C45       1.0  0.008082054433167037  0.6375648115002406  0.8389855963839494  1.0000
  C   C46       1.0  0.023337578025689355  0.3375678757230745  0.136833846044027  1.0000
  C   C47       1.0  0.4188231770095427  0.06683669936845864  0.42554914857452536  1.0000
  C   C48       1.0  0.5983675731292026  0.9255325866850866  0.5512826176968065  1.0000
  C   C49       1.0  0.3707818731621803  0.9979904925596798  0.48402858387625985  1.0000
  C   C50       1.0  0.6429816996593021  0.9957818389130182  0.4957633272768262  1.0000
  C   C51       1.0  0.5174734571271034  0.951032070611447  0.5242037667412021  1.0000
  C   C52       1.0  0.5027340651703369  0.04026325636944952  0.4489007075299583  1.0000
  S   S1        1.0  0.0650696264659986  0.4260065819105704  0.4051974267495595  1.0000
  S   S2        1.0  0.9024622573671408  0.5948735716088435  0.5985960520085883  1.0000
  S   S3        1.0  0.4051158454135191  0.08248355924497022  0.09890886383522003  1.0000
  S   S4        1.0  0.5952438708605716  0.9081372964455883  0.9099842256781799  1.0000
  S   S5        1.0  0.8884308001989681  0.06776866648780827  0.9375272139890427  1.0000
  S   S6        1.0  0.08753626207186478  0.9212342982141806  0.08979685553178743  1.0000
  S   S7        1.0  0.42632471090517765  0.5956626586929589  0.4016467477464333  1.0000
  S   S8        1.0  0.5789935640790347  0.41930807414535565  0.6009647149115408  1.0000
  S   S9        1.0  0.4290162218681104  0.9011717140609862  0.564815702001468  1.0000
  S   S10       1.0  0.5892117362228859  0.09212315145257577  0.41042991404423645  1.0000
  S   S11       1.0  0.8305098532675929  0.38941204287626635  0.6909133615567384  1.0000
  S   S12       1.0  0.4057480873294709  0.8163101672641417  0.10158610920709794  1.0000
  S   S13       1.0  0.19997968671104638  0.8691915673222255  0.8702359200471078  1.0000
  S   S14       1.0  0.36747672677106646  0.6150431025276076  0.6829647883778307  1.0000
  S   S15       1.0  0.3883722137383146  0.17565498028922374  0.33196330757537135  1.0000
  Cl  Cl1       1.0  0.21997088322736155  0.4728143972245036  0.00802191672948288  1.0000
  Cl  Cl2       1.0  0.07667608651745159  0.6725988926092229  0.9327208090389334  1.0000
  Cl  Cl3       1.0  0.915322457087136  0.43697166473219795  0.8782539643933234  1.0000
  Cl  Cl4       1.0  0.8909949069064994  0.3292950315128493  0.09188606917925315  1.0000
  O   O1        1.0  0.9242241694912182  0.7706721583367936  0.5690082549826416  1.0000
  O   O2        1.0  0.23785184001341264  0.05823839822531334  0.2685685634895449  1.0000
  O   O3        1.0  0.058048587059722864  0.2430540852362172  0.43545753513130586  1.0000
  O   O4        1.0  0.7633570862497552  0.9379476508469293  0.7404088971382164  1.0000
  O   O5        1.0  0.07302253444341045  0.7683323562359945  0.7310913125812988  1.0000
  O   O6        1.0  0.7565033375426111  0.07105134790474223  0.44088685208888023  1.0000
  O   O7        1.0  0.9281626648825922  0.23574957793261586  0.2711917839770096  1.0000
  O   O8        1.0  0.24242236513578774  0.9339027694369617  0.5595239790800903  1.0000
  O   O9        1.0  0.2394579753381335  0.7654941083575225  0.42681807324457577  1.0000
  O   O10       1.0  0.9300496225237254  0.06338565961710421  0.7477363179459078  1.0000
  O   O11       1.0  0.7605341515653878  0.24290382115492565  0.5754717838028753  1.0000
  O   O12       1.0  0.05245506443988308  0.9295980603911217  0.2729456418774562  1.0000
  O   O13       1.0  0.07854933545522184  0.9354967888076118  0.7333265798789413  1.0000
  O   O14       1.0  0.76365527161839  0.24213919788655142  0.4360812294541532  1.0000
  O   O15       1.0  0.9125458920164391  0.06745099297490509  0.2789024161594541  1.0000
  O   O16       1.0  0.23510292014410814  0.7725646780157333  0.5635798575179863  1.0000
  O   O17       1.0  0.9283613801438334  0.7772854594469649  0.735417658716685  1.0000
  O   O18       1.0  0.2370923532595199  0.0690993336403878  0.4274526720782532  1.0000
  O   O19       1.0  0.06650577563802784  0.22936095594429418  0.2758401593276147  1.0000
  O   O20       1.0  0.7610702542916885  0.9328509804939242  0.5705852172567705  1.0000
  O   O21       1.0  0.7606612044425916  0.07477690695058926  0.7461444668743908  1.0000
  O   O22       1.0  0.05955538335381763  0.7687332386941961  0.4277141286252402  1.0000
  O   O23       1.0  0.2328237050132603  0.9245777858338471  0.2647555780468523  1.0000
  O   O24       1.0  0.9259907880029985  0.23818112968382374  0.579034481491405  1.0000
  O   O25       1.0  0.8135116210812399  0.06568095195724054  0.5676068093095025  1.0000
  O   O26       1.0  0.05907215790674055  0.06407209852622495  0.5627595713413314  1.0000
  O   O27       1.0  0.054499555659781186  0.0578198524746654  0.3253968814123027  1.0000
  O   O28       1.0  0.057519069161784765  0.8251077100779016  0.5572854485552625  1.0000
  O   O29       1.0  0.13193887183862066  0.9570005378070618  0.45500694641128087  1.0000
  O   O30       1.0  0.9497785130106707  0.959090709452184  0.46014827778079614  1.0000
  O   O31       1.0  0.9516941183809067  0.1334195944089701  0.4640980344963951  1.0000
  O   O32       1.0  0.9538540376544378  0.9614790741293007  0.6354011353398477  1.0000
  O   O33       1.0  0.8917858468743277  0.28226701284513905  0.7474165502497668  1.0000
  O   O34       1.0  0.7570309338210137  0.3778611607937067  0.6787269730866116  1.0000
  O   O35       1.0  0.8031452559848731  0.456549840712448  0.7406364098995085  1.0000
  O   O36       1.0  0.3009202139612558  0.8558202093107923  0.08720254706048551  1.0000
  O   O37       1.0  0.39382855167483666  0.7554732711580101  0.20011982502372672  1.0000
  O   O38       1.0  0.4847270179325351  0.7798272700678409  0.020323214590511954  1.0000
  O   O39       1.0  0.23399339349084866  0.9217858940387343  0.7571058778556863  1.0000
  O   O40       1.0  0.20364004097496036  0.7732208496016215  0.8901896868542634  1.0000
  O   O41       1.0  0.25449809414522684  0.8816086698497826  0.9079595470820648  1.0000
  O   O42       1.0  0.25784233942594176  0.609424615414234  0.7374509298933916  1.0000
  O   O43       1.0  0.3641255955164836  0.7099643603515845  0.6666418355829861  1.0000
  O   O44       1.0  0.427908002088124  0.5285195642650604  0.735887410497412  1.0000
  O   O45       1.0  0.27654554656557206  0.23949668365068535  0.3876086730497478  1.0000
  O   O46       1.0  0.3809715994494809  0.156574988411883  0.2602489274540006  1.0000
  O   O47       1.0  0.4543333466803644  0.2249130925981717  0.30480885483266457  1.0000
