data_image0
_chemical_formula_structural       AlH15C21N4O6
_chemical_formula_sum              "Al1 H15 C21 N4 O6"
_cell_length_a       4.120661910059326
_cell_length_b       13.484464467808934
_cell_length_c       13.484670066986618
_cell_angle_alpha    119.99943668624755
_cell_angle_beta     90.00060333481707
_cell_angle_gamma    89.99962826533046

_space_group_name_H-M_alt    "P 1"
_space_group_IT_number       1

loop_
  _space_group_symop_operation_xyz
  'x, y, z'

loop_
  _atom_site_type_symbol
  _atom_site_label
  _atom_site_symmetry_multiplicity
  _atom_site_fract_x
  _atom_site_fract_y
  _atom_site_fract_z
  _atom_site_occupancy
  Al  Al1       1.0  0.0049562617326302  0.4999875163174465  0.49998415558148673  1.0000
  H   H1        1.0  0.19276734328805387  0.8153713928293841  0.7828724434590767  1.0000
  H   H2        1.0  0.1945031080331248  0.02688570187880422  0.8940485107758037  1.0000
  H   H3        1.0  0.7914706942740821  0.03362857809997169  0.6359585738591136  1.0000
  H   H4        1.0  0.7914488922491857  0.10232358135711907  0.9663791118178792  1.0000
  H   H5        1.0  0.19275844469443373  0.4675013543991541  0.18462239964036092  1.0000
  H   H6        1.0  0.1945129542428745  0.36716540177864226  0.973112305467964  1.0000
  H   H7        1.0  0.7914716217952459  0.36404750939645675  0.8976629184095016  1.0000
  H   H8        1.0  0.19277917625906577  0.21711545206738242  0.5324979562494434  1.0000
  H   H9        1.0  0.19450266950401837  0.10594851565858227  0.6328434689509592  1.0000
  H   H10       1.0  0.9581256816397924  0.7356094600596137  0.4898852918639631  1.0000
  H   H11       1.0  0.004083494586240001  0.859459970591182  0.4920168761327089  1.0000
  H   H12       1.0  0.958151250235673  0.2542634778337601  0.2643764484998811  1.0000
  H   H13       1.0  0.004077992351078299  0.13254794549185084  0.140535128031857  1.0000
  H   H14       1.0  0.9581955429162576  0.5100977947155343  0.745715879958233  1.0000
  H   H15       1.0  0.004125189212871301  0.5079606724130983  0.8674270490212946  1.0000
  C   C1        1.0  0.5042550791812274  0.4089756817138195  0.3234543644941751  1.0000
  C   C2        1.0  0.5042644300454527  0.41447046202360144  0.591013564675336  1.0000
  C   C3        1.0  0.5042542572125583  0.6765361695205954  0.5855111927014248  1.0000
  C   C4        1.0  0.330644636524795  0.8634802216094712  0.7519118607111394  1.0000
  C   C5        1.0  0.3270139385776716  0.9823692226726595  0.813953460045134  1.0000
  C   C6        1.0  0.49071780575459206  0.04513951118438809  0.7718437161871776  1.0000
  C   C7        1.0  0.6601981861166663  0.9857409102623294  0.6683875706841247  1.0000
  C   C8        1.0  0.6747664658212429  0.8658269875741169  0.60679393363106  1.0000
  C   C9        1.0  0.5024290280377742  0.804191106023353  0.6491513208148445  1.0000
  C   C10       1.0  0.6601907709457464  0.18264292948482114  0.014262421517287278  1.0000
  C   C11       1.0  0.6747699450046838  0.24095436671503023  0.13416857768239507  1.0000
  C   C12       1.0  0.5024262128940437  0.34495646059480833  0.1958007725382345  1.0000
  C   C13       1.0  0.3306465113943631  0.3884236639883341  0.13651251768653336  1.0000
  C   C14       1.0  0.32700490216002015  0.3315834176991359  0.017625424504110778  1.0000
  C   C15       1.0  0.4907383975292419  0.22669491206097803  0.9548589941224818  1.0000
  C   C16       1.0  0.6602052815736742  0.33161998729208614  0.81734974559064  1.0000
  C   C17       1.0  0.6747595446203931  0.3932054902195646  0.7590246018060967  1.0000
  C   C18       1.0  0.502438823372664  0.35083993899431226  0.6550322112734648  1.0000
  C   C19       1.0  0.3306318315421848  0.24807568665969626  0.6115716465948607  1.0000
  C   C20       1.0  0.3270102577440355  0.18604596379842772  0.6684233085238205  1.0000
  C   C21       1.0  0.49070859558746366  0.22815469464164534  0.7732969032076155  1.0000
  N   N1        1.0  0.48565526149394594  0.16667116992024944  0.8333398990372061  1.0000
  N   N2        1.0  0.844354580525696  0.8088359948351354  0.5038473320053781  1.0000
  N   N3        1.0  0.8443655187363035  0.1950084862685344  0.19115971474219148  1.0000
  N   N4        1.0  0.8444115835056961  0.4961407639025737  0.8049793533175631  1.0000
  O   O1        1.0  0.7412218775343362  0.6266850591148838  0.6033712028729283  1.0000
  O   O2        1.0  0.7412365494787848  0.47668086700299034  0.37330091443646296  1.0000
  O   O3        1.0  0.7412302515676288  0.3966112629926925  0.5232996936929125  1.0000
  O   O4        1.0  0.26900745391726844  0.6245714399238835  0.5166943865456445  1.0000
  O   O5        1.0  0.2690080883774328  0.4832877714033471  0.6078628362252941  1.0000
  O   O6        1.0  0.26901723795182153  0.3921191271842019  0.37541755124831866  1.0000
