data_image0
_chemical_formula_structural       H40Pb4C52S4N24O12
_chemical_formula_sum              "H40 Pb4 C52 S4 N24 O12"
_cell_length_a       9.977438853215196
_cell_length_b       13.537481698726015
_cell_length_c       16.723861836677504
_cell_angle_alpha    107.54915579076938
_cell_angle_beta     107.35122535308737
_cell_angle_gamma    90.01347450311657

_space_group_name_H-M_alt    "P 1"
_space_group_IT_number       1

loop_
  _space_group_symop_operation_xyz
  'x, y, z'

loop_
  _atom_site_type_symbol
  _atom_site_label
  _atom_site_symmetry_multiplicity
  _atom_site_fract_x
  _atom_site_fract_y
  _atom_site_fract_z
  _atom_site_occupancy
  H   H1        1.0  0.5936368665147854  0.9090760251704426  0.41149628861847287  1.0000
  H   H2        1.0  0.18238914688132737  0.5909039382364228  0.5885849344556533  1.0000
  H   H3        1.0  0.40639907116036533  0.09097809462153351  0.5885410434722902  1.0000
  H   H4        1.0  0.8176052826875803  0.40904361576972553  0.4114098171176083  1.0000
  H   H5        1.0  0.41258275100754827  0.9108587079375144  0.2727198559628549  1.0000
  H   H6        1.0  0.14035305082198615  0.5892910274987956  0.7274944475699031  1.0000
  H   H7        1.0  0.587399829098807  0.08913554626175821  0.7273220289715852  1.0000
  H   H8        1.0  0.859626005470865  0.4107154627920053  0.2725098738815319  1.0000
  H   H9        1.0  0.7343084543694263  0.8431396972087912  0.1435727041692375  1.0000
  H   H10       1.0  0.5912630846262488  0.656878800458088  0.8563134113153693  1.0000
  H   H11       1.0  0.265626240664119  0.15688212893269343  0.8564301191925167  1.0000
  H   H12       1.0  0.408723354603019  0.34307755889985714  0.14368908660889454  1.0000
  H   H13       1.0  0.9030594168748323  0.8424237235490538  0.289725676215845  1.0000
  H   H14       1.0  0.6136347582512088  0.6575375277923925  0.7100475011454394  1.0000
  H   H15       1.0  0.09693735861663547  0.15766904565211354  0.7102794624178372  1.0000
  H   H16       1.0  0.38636822032156476  0.34236595640457784  0.28994313465108235  1.0000
  H   H17       1.0  0.345230997683359  0.8840790395648882  0.11183892066868852  1.0000
  H   H18       1.0  0.23415657247954166  0.615809978328926  0.8882404120353371  1.0000
  H   H19       1.0  0.6546904755872945  0.11583821552147103  0.8881674470453121  1.0000
  H   H20       1.0  0.765813062647311  0.3841839470665321  0.11175825840744846  1.0000
  H   H21       1.0  0.5351223874678583  0.8792956053675598  0.9126335445602934  1.0000
  H   H22       1.0  0.6229808968808471  0.6207330378031628  0.08750497475166705  1.0000
  H   H23       1.0  0.46483161878283863  0.12064755461226892  0.08738424242731216  1.0000
  H   H24       1.0  0.3769886534105  0.37931196994762933  0.9125175192998825  1.0000
  H   H25       1.0  0.13881053572490754  0.8944754729439667  0.8719171580655782  1.0000
  H   H26       1.0  0.2671818101428586  0.6057250038044941  0.12824186012527156  1.0000
  H   H27       1.0  0.8611470978450486  0.1055796294627243  0.1280894782101926  1.0000
  H   H28       1.0  0.7327834406286583  0.3942835283292966  0.8717740641464573  1.0000
  H   H29       1.0  0.9731373550401372  0.8969232263478802  0.7259061242893098  1.0000
  H   H30       1.0  0.24748667626935375  0.6029980077066597  0.2741525081546143  1.0000
  H   H31       1.0  0.026875205423458285  0.10317409702410879  0.2740974877300388  1.0000
  H   H32       1.0  0.7524859846094502  0.3969289780848442  0.7258473917425264  1.0000
  H   H33       1.0  0.29860568107755364  0.8745128296337797  0.6166465384726436  1.0000
  H   H34       1.0  0.6821442090329769  0.6255375026813398  0.3834593350087233  1.0000
  H   H35       1.0  0.7014457480192746  0.12548550063762323  0.3833827646010449  1.0000
  H   H36       1.0  0.317827456847283  0.3743960886067726  0.616533054646581  1.0000
  H   H37       1.0  0.47635493680747487  0.871737112621176  0.7560176559552402  1.0000
  H   H38       1.0  0.7205983527177794  0.628544260070271  0.24414234719541397  1.0000
  H   H39       1.0  0.5236465248170604  0.1281958984403886  0.24401473408022414  1.0000
  H   H40       1.0  0.2793706939908064  0.37147572894365066  0.7558714127758961  1.0000
  Pb  Pb1       1.0  0.9258585327776884  0.8561301141110605  0.5074321481180989  1.0000
  Pb  Pb2       1.0  0.4184153412994931  0.643881922359434  0.4925538429230515  1.0000
  Pb  Pb3       1.0  0.07421110899978343  0.14392255810740556  0.492536099770021  1.0000
  Pb  Pb4       1.0  0.5816217731616221  0.3560828700325088  0.5074477921148244  1.0000
  C   C1        1.0  0.20133841290999044  0.9028991400336397  0.4397433452125981  1.0000
  C   C2        1.0  0.7616479497607784  0.5970777922664611  0.5602321770544024  1.0000
  C   C3        1.0  0.7987732459260216  0.09714383144266492  0.5602320633373666  1.0000
  C   C4        1.0  0.23838390883064872  0.40291701010448844  0.4397333548399729  1.0000
  C   C5        1.0  0.6206306832108767  0.8939980338962032  0.3506007871910556  1.0000
  C   C6        1.0  0.27033901916900055  0.606037549026951  0.6494489223864974  1.0000
  C   C7        1.0  0.3793820496999417  0.10604265101905241  0.6494285827229974  1.0000
  C   C8        1.0  0.729651490562823  0.3939232217029983  0.3505487469353953  1.0000
  C   C9        1.0  0.5196746381580084  0.894770732364627  0.2726733859319665  1.0000
  C   C10       1.0  0.24744823278852834  0.605388811431908  0.7274472168207353  1.0000
  C   C11       1.0  0.48030706712151544  0.10523600696351562  0.727354499820784  1.0000
  C   C12       1.0  0.7525357151707226  0.3945975376212233  0.2725543203736224  1.0000
  C   C13       1.0  0.559518604277379  0.876513418522187  0.19620109323554408  1.0000
  C   C14       1.0  0.3639267250030899  0.6235651003877579  0.8038443200609109  1.0000
  C   C15       1.0  0.4404338148282109  0.12349296380891421  0.8038185375471086  1.0000
  C   C16       1.0  0.636052691987537  0.3764236930443091  0.19616032221426147  1.0000
  C   C17       1.0  0.7001066976346307  0.8572304518086541  0.20176044540894378  1.0000
  C   C18       1.0  0.498842914537299  0.6428520531993841  0.7981634711937814  1.0000
  C   C19       1.0  0.2998475941528441  0.14279627495481861  0.7982488624525175  1.0000
  C   C20       1.0  0.5011396300502042  0.3571205747678264  0.20184129142844404  1.0000
  C   C21       1.0  0.7931059603105266  0.8570302429393593  0.2821354604991343  1.0000
  C   C22       1.0  0.5113279215444707  0.642988171201317  0.7177309178572884  1.0000
  C   C23       1.0  0.20688729178325374  0.14304129100533206  0.7178772079339524  1.0000
  C   C24       1.0  0.4886673108109393  0.35694252453888714  0.28226573989800136  1.0000
  C   C25       1.0  0.45644052927669077  0.8792911597648257  0.1144426815584226  1.0000
  C   C26       1.0  0.34275860523129614  0.6207605220254923  0.8856409791538412  1.0000
  C   C27       1.0  0.5434938372044797  0.12068962543140321  0.8855726463624478  1.0000
  C   C28       1.0  0.657211595428322  0.37924608530486387  0.11436604864508142  1.0000
  C   C29       1.0  0.4231051203431165  0.8811677638776916  0.9084362736106186  1.0000
  C   C30       1.0  0.5151626751914337  0.6190179607856479  0.09170212984566466  1.0000
  C   C31       1.0  0.5768498346182014  0.11880535273407841  0.09157978811408193  1.0000
  C   C32       1.0  0.48480500647021796  0.38101216826916584  0.9083146275251934  1.0000
  C   C33       1.0  0.32126352968659005  0.8831684194115043  0.8259805820120435  1.0000
  C   C34       1.0  0.49559886771896794  0.6170341977253174  0.1741389005333005  1.0000
  C   C35       1.0  0.6787160039300845  0.11682147113349123  0.17403162347493156  1.0000
  C   C36       1.0  0.5043725468661506  0.3829811584144026  0.8258745661658935  1.0000
  C   C37       1.0  0.17716995399185  0.8903613706174768  0.8165988960172043  1.0000
  C   C38       1.0  0.36087942427911923  0.6098410781635765  0.18353449929940524  1.0000
  C   C39       1.0  0.8228072390202855  0.10967613771849473  0.1834104378861171  1.0000
  C   C40       1.0  0.6390889996880418  0.39014937891531093  0.8164730006310492  1.0000
  C   C41       1.0  0.08591489313941758  0.8918797296907217  0.7362205426112994  1.0000
  C   C42       1.0  0.34996606015299386  0.6081063878274335  0.26386053839915036  1.0000
  C   C43       1.0  0.9140939008172636  0.10817931866744604  0.26378830869921915  1.0000
  C   C44       1.0  0.6500009193518254  0.3918412065459337  0.7361351465995513  1.0000
  C   C45       1.0  0.26685166577848923  0.8790841143890378  0.674612846727257  1.0000
  C   C46       1.0  0.5924464579476378  0.6209500465101743  0.3254930094926536  1.0000
  C   C47       1.0  0.7331811950958596  0.12091855752959192  0.3254100154732384  1.0000
  C   C48       1.0  0.40752184832987143  0.37900074685858703  0.6745054241306434  1.0000
  C   C49       1.0  0.36608550077995977  0.877540756470751  0.7529886851691217  1.0000
  C   C50       1.0  0.6133626006760482  0.6226733859156114  0.2471658254496206  1.0000
  C   C51       1.0  0.633915423090315  0.12242324078973611  0.2470301752041878  1.0000
  C   C52       1.0  0.3866083403135434  0.3773280167337135  0.7528454927056673  1.0000
  S   S1        1.0  0.3404248026755  0.8552634605654108  0.4217069009434838  1.0000
  S   S2        1.0  0.9188432985081578  0.6447627941105126  0.5784119997947742  1.0000
  S   S3        1.0  0.6596339509935449  0.14469881249641503  0.578254284447013  1.0000
  S   S4        1.0  0.08116889562494119  0.35526726480841125  0.42154971863329393  1.0000
  N   N1        1.0  0.09785581131635732  0.9394821582272359  0.45385342606036977  1.0000
  N   N2        1.0  0.644006120515158  0.5604651291294191  0.5460241944227492  1.0000
  N   N3        1.0  0.9022846470696992  0.06060080784057931  0.5461386998850983  1.0000
  N   N4        1.0  0.3560392513439368  0.43950771871189426  0.4539500409830595  1.0000
  N   N5        1.0  0.7542758287774094  0.8749418376762322  0.3553676946922196  1.0000
  N   N6        1.0  0.39918334239645525  0.6249093109173741  0.6445303958230184  1.0000
  N   N7        1.0  0.24574308259604294  0.12512853013744524  0.6446536203209234  1.0000
  N   N8        1.0  0.6008130313375943  0.37502507727807455  0.3554626152831234  1.0000
  N   N9        1.0  0.4952040577413826  0.8773992600704903  0.04674691391127794  1.0000
  N   N10       1.0  0.4492007804624977  0.6228842124199759  0.9534082264757516  1.0000
  N   N11       1.0  0.5047386573457048  0.12262600715616401  0.9532820617251616  1.0000
  N   N12       1.0  0.5507672503375859  0.3771466603490198  0.04660792234162873  1.0000
  N   N13       1.0  0.38300054646178683  0.8805893646665127  0.9751696849588639  1.0000
  N   N14       1.0  0.40843026781444547  0.6197209186647966  0.024964406080513955  1.0000
  N   N15       1.0  0.6169452541690889  0.11942642920467961  0.024853903561300777  1.0000
  N   N16       1.0  0.5915361117633254  0.38030838006304896  0.9750509570653136  1.0000
  N   N17       1.0  0.12967152020044656  0.8866906498794623  0.6662478712249112  1.0000
  N   N18       1.0  0.4636292740047593  0.6130446859745861  0.3337855440431881  1.0000
  N   N19       1.0  0.8703628085788112  0.11335402257147112  0.3337668695682724  1.0000
  N   N20       1.0  0.5363408277985117  0.3868780463558751  0.6662050301657986  1.0000
  N   N21       1.0  0.06982131175114148  0.6607610563525483  0.40824456482694416  1.0000
  N   N22       1.0  0.6616607143714718  0.8393116267024825  0.5917905439671786  1.0000
  N   N23       1.0  0.9302319362325023  0.3393180867890848  0.5917481908417059  1.0000
  N   N24       1.0  0.3384143829740722  0.1606168904747207  0.4081201266547724  1.0000
  O   O1        1.0  0.1331037626304123  0.7105198329299114  0.4897611644196971  1.0000
  O   O2        1.0  0.6436133566916595  0.789563421611142  0.5102869182334687  1.0000
  O   O3        1.0  0.8669191345823251  0.28953044709439985  0.5102407965188291  1.0000
  O   O4        1.0  0.35643050248376085  0.21036579171643413  0.4896220439999226  1.0000
  O   O5        1.0  0.1279878400702614  0.5901041759763289  0.3662696480637564  1.0000
  O   O6        1.0  0.7617529469417265  0.9100305305089907  0.6338108043349565  1.0000
  O   O7        1.0  0.8720178168883737  0.4099196753691531  0.6337443933690069  1.0000
  O   O8        1.0  0.23827144127379538  0.08994437737950992  0.3660686205021051  1.0000
  O   O9        1.0  0.948898675008401  0.68426039901874  0.3711617176763299  1.0000
  O   O10       1.0  0.5777011107313045  0.8157474856807597  0.628799493370103  1.0000
  O   O11       1.0  0.05122412163007086  0.31589889319319303  0.6287969470264372  1.0000
  O   O12       1.0  0.4224613732427328  0.18413486289278327  0.3711475589108348  1.0000
