data_image0
_chemical_formula_structural       Nb2Ag2H16C20N4O2F8
_chemical_formula_sum              "Nb2 Ag2 H16 C20 N4 O2 F8"
_cell_length_a       3.9522852403080346
_cell_length_b       13.748684972536392
_cell_length_c       13.757486452040272
_cell_angle_alpha    69.06768384967883
_cell_angle_beta     81.11058633615721
_cell_angle_gamma    81.11988572238317

_space_group_name_H-M_alt    "P 1"
_space_group_IT_number       1

loop_
  _space_group_symop_operation_xyz
  'x, y, z'

loop_
  _atom_site_type_symbol
  _atom_site_label
  _atom_site_symmetry_multiplicity
  _atom_site_fract_x
  _atom_site_fract_y
  _atom_site_fract_z
  _atom_site_occupancy
  Nb  Nb1       1.0  0.9249596100360761  0.2624139458253865  0.2620572138409543  1.0000
  Nb  Nb2       1.0  0.07477190853016692  0.7379178828146422  0.7375243544683199  1.0000
  Ag  Ag1       1.0  0.5000576025313709  0.5004925084597857  0.9995178383719573  1.0000
  Ag  Ag2       1.0  0.49972604667873094  0.0005942205628742272  0.499440066881611  1.0000
  H   H1        1.0  0.7148802654636984  0.5192521198869074  0.769350965514121  1.0000
  H   H2        1.0  0.2854702829449423  0.23102068177103519  0.4807277278366867  1.0000
  H   H3        1.0  0.2846475904124405  0.48077466757303  0.23006601784798153  1.0000
  H   H4        1.0  0.7140694829875753  0.7697697217974805  0.5193306320535099  1.0000
  H   H5        1.0  0.6914008791495834  0.4176732275260163  0.6538021104263264  1.0000
  H   H6        1.0  0.30919931068309137  0.3464592255662353  0.5824333124675147  1.0000
  H   H7        1.0  0.3072645352488409  0.5818531471436117  0.3462438146578036  1.0000
  H   H8        1.0  0.690899129320407  0.653566980353446  0.4183055845491592  1.0000
  H   H9        1.0  0.32549996619681576  0.16830699155232756  0.9288742771477484  1.0000
  H   H10       1.0  0.673863132184785  0.07093748553923973  0.8315180043354855  1.0000
  H   H11       1.0  0.677602938353161  0.8312964758989948  0.07205518651740307  1.0000
  H   H12       1.0  0.32465272384113303  0.9281820856901958  0.16862131559539503  1.0000
  H   H13       1.0  0.35818118590729836  0.279674927853371  0.033189650385295984  1.0000
  H   H14       1.0  0.6408640704535314  0.9667621387127595  0.7200621610856143  1.0000
  H   H15       1.0  0.6455100680457662  0.7204387785159554  0.9671054538064607  1.0000
  H   H16       1.0  0.35689139630586914  0.033122316795093816  0.27944944424767465  1.0000
  C   C1        1.0  0.6282365839573886  0.44138028013098546  0.8016170709267099  1.0000
  C   C2        1.0  0.3718331945566503  0.19863115344114143  0.5585659815388836  1.0000
  C   C3        1.0  0.3718821014791375  0.5585517760991364  0.19815365637045798  1.0000
  C   C4        1.0  0.627537642195982  0.8017437953973924  0.4415203582789714  1.0000
  C   C5        1.0  0.6144770630548636  0.383885427536093  0.7375203159116662  1.0000
  C   C6        1.0  0.38578953031252206  0.26266444595455596  0.6161248822564003  1.0000
  C   C7        1.0  0.38532993555305955  0.6157352312967816  0.26259898470371457  1.0000
  C   C8        1.0  0.6137942890127946  0.7373074421789027  0.3843559149380125  1.0000
  C   C9        1.0  0.41814706208208463  0.24498708610747144  0.8900257198121648  1.0000
  C   C10       1.0  0.5814053863579007  0.10992897757241596  0.754880504953  1.0000
  C   C11       1.0  0.5841124082842127  0.7547029361690462  0.11054673577429236  1.0000
  C   C12       1.0  0.417258394319205  0.8895932349664689  0.24526611760363434  1.0000
  C   C13       1.0  0.5081995776225486  0.28303314625364356  0.7814286550941315  1.0000
  C   C14       1.0  0.49180283086425186  0.21859662771438346  0.7169297765192223  1.0000
  C   C15       1.0  0.4923392417690665  0.7164800929856481  0.21904698030071043  1.0000
  C   C16       1.0  0.5078169565154769  0.780972055854491  0.28355201626229126  1.0000
  C   C17       1.0  0.4341898379002129  0.3072511901700779  0.9491207980244877  1.0000
  C   C18       1.0  0.5651790352729126  0.0509139737159998  0.692571314717668  1.0000
  C   C19       1.0  0.5682946183258647  0.6927489504438071  0.05111638621563228  1.0000
  C   C20       1.0  0.43320476135055275  0.9490176167088716  0.3071992746936231  1.0000
  N   N1        1.0  0.5379844593648857  0.4040385105872702  0.905849752189219  1.0000
  N   N2        1.0  0.4616349342984662  0.09430778989757023  0.595835312350985  1.0000
  N   N3        1.0  0.4632642731905891  0.5961196841590207  0.09398817803915448  1.0000
  N   N4        1.0  0.5372722942265612  0.9060272897474704  0.4038794312719671  1.0000
  O   O1        1.0  0.47133761619083  0.2624921440356616  0.26231376728792094  1.0000
  O   O2        1.0  0.5283455653775209  0.7377087619467346  0.7374085965088778  1.0000
  F   F1        1.0  0.8902070207077771  0.3485849710467336  0.34945316183977576  1.0000
  F   F2        1.0  0.10947323634616893  0.6502608564503235  0.6516139739084108  1.0000
  F   F3        1.0  0.07099934374523535  0.17562214339125148  0.17452347024418194  1.0000
  F   F4        1.0  0.9287340554522672  0.8255878918387226  0.824174844852642  1.0000
  F   F5        1.0  0.9872375136587336  0.3861972954658127  0.1383027063516167  1.0000
  F   F6        1.0  0.012612156067980655  0.8616050061560827  0.6136810938638033  1.0000
  F   F7        1.0  0.012252020596570004  0.6150170682624391  0.8621863058885706  1.0000
  F   F8        1.0  0.9874152147483886  0.1377912683945368  0.384987094518621  1.0000
