data_image0
_chemical_formula_structural       CdH26C34I2N10O4
_chemical_formula_sum              "Cd1 H26 C34 I2 N10 O4"
_cell_length_a       8.267858140988258
_cell_length_b       9.3412000195742
_cell_length_c       11.946589018622868
_cell_angle_alpha    78.51458622992257
_cell_angle_beta     76.3772019490278
_cell_angle_gamma    87.4892887590138

_space_group_name_H-M_alt    "P 1"
_space_group_IT_number       1

loop_
  _space_group_symop_operation_xyz
  'x, y, z'

loop_
  _atom_site_type_symbol
  _atom_site_label
  _atom_site_symmetry_multiplicity
  _atom_site_fract_x
  _atom_site_fract_y
  _atom_site_fract_z
  _atom_site_occupancy
  Cd  Cd1       1.0  0.4999953537044703  0.4999999228707208  2.4683056452155493e-06  1.0000
  H   H1        1.0  0.19061948987723548  0.7900142750273744  0.6315584651574753  1.0000
  H   H2        1.0  0.8093757086355068  0.20999011152637334  0.36844280771308047  1.0000
  H   H3        1.0  0.9422133826162594  0.691816307368576  0.5792676210959585  1.0000
  H   H4        1.0  0.05778678808919582  0.30818698099621145  0.42073303847546123  1.0000
  H   H5        1.0  0.3291840862707147  0.6411661776341475  0.777674450411908  1.0000
  H   H6        1.0  0.6708036105837679  0.35883166376726194  0.2223291014569071  1.0000
  H   H7        1.0  0.2514762226945281  0.10627296167075428  0.7557069905857007  1.0000
  H   H8        1.0  0.7485276875602336  0.8937280977049228  0.24429092790198587  1.0000
  H   H9        1.0  0.3234066054386417  0.077542029795417  0.9502425786063711  1.0000
  H   H10       1.0  0.6765972987482698  0.9224612541712177  0.049757485085741814  1.0000
  H   H11       1.0  0.41341290724808744  0.8295509847918651  0.04436271063226366  1.0000
  H   H12       1.0  0.5865773134795731  0.17045119634892097  0.9556380474121511  1.0000
  H   H13       1.0  0.3524645668855229  0.12962019526961652  0.3174058362478434  1.0000
  H   H14       1.0  0.6475343831220357  0.8703797243902683  0.6825897144620044  1.0000
  H   H15       1.0  0.2520536828846218  0.06111376919527341  0.15247995450604893  1.0000
  H   H16       1.0  0.7479452381150438  0.9388817944793216  0.8475171569027823  1.0000
  H   H17       1.0  0.060688109141878506  0.8409247912130412  0.19814922695276488  1.0000
  H   H18       1.0  0.9393170167889979  0.1590696994341556  0.8018487442755883  1.0000
  H   H19       1.0  0.7831645861158025  0.599287567720708  0.7631577133749092  1.0000
  H   H20       1.0  0.2168331072622394  0.4007168025871408  0.23684232637022262  1.0000
  H   H21       1.0  0.40512856262256497  0.30209056958585023  0.8116306981131274  1.0000
  H   H22       1.0  0.5948703518337624  0.697912746872582  0.18837183182981931  1.0000
  H   H23       1.0  0.4754288858347664  0.2874451810305274  0.5980584814908241  1.0000
  H   H24       1.0  0.5245724828187477  0.7125526841857522  0.40194539310483884  1.0000
  H   H25       1.0  0.7022680579361805  0.45196093033111145  0.4596413015984453  1.0000
  H   H26       1.0  0.29773578833003717  0.5480325360263762  0.540361228825688  1.0000
  C   C1        1.0  0.3306447703816176  0.7409750264011521  0.8120858107252644  1.0000
  C   C2        1.0  0.6693528996759853  0.2590271858847544  0.1879162631781811  1.0000
  C   C3        1.0  0.28750827482157604  0.8759342796476305  0.7505963146604131  1.0000
  C   C4        1.0  0.7124931637932266  0.1240700596344695  0.2494014574603157  1.0000
  C   C5        1.0  0.2864289205053439  5.075894708990128e-05  0.7999604080516178  1.0000
  C   C6        1.0  0.713576251686014  0.9999524702982825  0.20003611352386497  1.0000
  C   C7        1.0  0.3287907843980876  0.9834079225409482  0.9079338827181546  1.0000
  C   C8        1.0  0.6712118812677589  0.016594243939358898  0.09206488906190197  1.0000
  C   C9        1.0  0.3751270085204227  0.8463379265574887  0.9613662914325047  1.0000
  C   C10       1.0  0.6248731564024723  0.15366426948251896  0.0386345493455238  1.0000
  C   C11       1.0  0.2790434684217047  0.9889641687388815  0.545808517936706  1.0000
  C   C12       1.0  0.7209579235522411  0.011035854499340303  0.45419332250065036  1.0000
  C   C13       1.0  0.217374449950384  0.9539807279245309  0.4453788551451225  1.0000
  C   C14       1.0  0.7826244998669766  0.0460214030125101  0.5546180048966035  1.0000
  C   C15       1.0  0.2695953294036643  0.03693106236464419  0.3322874649463614  1.0000
  C   C16       1.0  0.7304048708802711  0.963069948153965  0.6677077059304395  1.0000
  C   C17       1.0  0.2144509162671397  0.9966706558981286  0.2411888853464674  1.0000
  C   C18       1.0  0.7855480277676604  0.0033303827141395034  0.7588081559018677  1.0000
  C   C19       1.0  0.10683566139382353  0.8776490224427247  0.2659941332058152  1.0000
  C   C20       1.0  0.8931657366479727  0.12234877620453231  0.7340055620271145  1.0000
  C   C21       1.0  0.05569195001974951  0.80499559305413  0.3826104240646444  1.0000
  C   C22       1.0  0.9443094420492955  0.1950033245455103  0.6173907617067727  1.0000
  C   C23       1.0  0.9298922974569663  0.6827465281846588  0.41578781060405123  1.0000
  C   C24       1.0  0.0701165562679122  0.31724576010103783  0.5842090912856648  1.0000
  C   C25       1.0  0.7582107872334091  0.5392014874720985  0.6004502222525475  1.0000
  C   C26       1.0  0.2417918494245441  0.46079632302292584  0.39955011022649956  1.0000
  C   C27       1.0  0.7160532415589743  0.5334052758399396  0.7222336039320609  1.0000
  C   C28       1.0  0.2839456846526716  0.4665980139908897  0.2777672542657967  1.0000
  C   C29       1.0  0.5084700242847758  0.36410840503585007  0.7495667934856911  1.0000
  C   C30       1.0  0.49152889026665053  0.6358938057840148  0.2504350817913163  1.0000
  C   C31       1.0  0.5459348171283339  0.3596023150241975  0.6304027493389981  1.0000
  C   C32       1.0  0.4540653186915763  0.6403966306691019  0.36960030680395306  1.0000
  C   C33       1.0  0.6715348302224272  0.44906799278000153  0.5536385018006911  1.0000
  C   C34       1.0  0.3284702836678477  0.5509298414105287  0.4463631051705761  1.0000
  I   I1        1.0  0.8091519508975368  0.6540903106465663  0.9761427229030488  1.0000
  I   I2        1.0  0.19084075872267187  0.3459129732007042  0.023858292554436385  1.0000
  N   N1        1.0  0.3761643072359321  0.727378525229625  0.9138344134436238  1.0000
  N   N2        1.0  0.623829617775101  0.27262150680488156  0.08616861875234598  1.0000
  N   N3        1.0  0.2450843940043939  0.8800463813357313  0.643295840715453  1.0000
  N   N4        1.0  0.7549219877001361  0.1199536094106861  0.3567035334710624  1.0000
  N   N5        1.0  0.1113620428157347  0.8415163436696247  0.4700629180287308  1.0000
  N   N6        1.0  0.8886368778035421  0.15848364255927555  0.5299368120438501  1.0000
  N   N7        1.0  0.8843180786589288  0.6354869459457504  0.5346336430961215  1.0000
  N   N8        1.0  0.11568826816004932  0.3645087021291786  0.4653681276619324  1.0000
  N   N9        1.0  0.5929810711939824  0.44969801309309065  0.794716063025966  1.0000
  N   N10       1.0  0.4070141389789796  0.5503074524716282  0.20528419276542562  1.0000
  O   O1        1.0  0.35252360275439537  0.10435007110369551  0.5378883708979174  1.0000
  O   O2        1.0  0.6474765971491508  0.8956553619692253  0.46210941864264043  1.0000
  O   O3        1.0  0.8763420807971088  0.6353046073474999  0.3419106527977078  1.0000
  O   O4        1.0  0.1236778915604262  0.36468232594413047  0.6580928903400646  1.0000
