data_image0
_chemical_formula_structural       Sc6H30C42N12O48
_chemical_formula_sum              "Sc6 H30 C42 N12 O48"
_cell_length_a       10.247116590323422
_cell_length_b       13.83723908547999
_cell_length_c       13.837084079401707
_cell_angle_alpha    114.11348088095735
_cell_angle_beta     104.29018700259697
_cell_angle_gamma    104.29184198654482

_space_group_name_H-M_alt    "P 1"
_space_group_IT_number       1

loop_
  _space_group_symop_operation_xyz
  'x, y, z'

loop_
  _atom_site_type_symbol
  _atom_site_label
  _atom_site_symmetry_multiplicity
  _atom_site_fract_x
  _atom_site_fract_y
  _atom_site_fract_z
  _atom_site_occupancy
  Sc  Sc1       1.0  0.8471267714770007  0.6554764506067128  0.5236055828554028  1.0000
  Sc  Sc2       1.0  0.1916113816064992  0.868118219026499  0.3445409959505595  1.0000
  Sc  Sc3       1.0  0.32348971437934876  0.4764130665674669  0.13188417904407845  1.0000
  Sc  Sc4       1.0  0.1528723582637283  0.34452331527428715  0.47639392428251875  1.0000
  Sc  Sc5       1.0  0.8083891857248277  0.13188240795107478  0.6554591255038531  1.0000
  Sc  Sc6       1.0  0.6765109992783207  0.5235858381627095  0.868115987896246  1.0000
  H   H1        1.0  0.8009765886768819  0.8207423450634508  0.7583062051468161  1.0000
  H   H2        1.0  0.9802144501913829  0.9375874179842468  0.17924810968436589  1.0000
  H   H3        1.0  0.04263795469938708  0.24168373529938236  0.06245633906016929  1.0000
  H   H4        1.0  0.19902239512645542  0.1792591430383581  0.24169397926097957  1.0000
  H   H5        1.0  0.019786117139943795  0.06241320899332689  0.8207520117700396  1.0000
  H   H6        1.0  0.9573617515298024  0.7583151694665985  0.9375429213366571  1.0000
  H   H7        1.0  0.5935202900606313  0.839734396275162  0.8191591478504988  1.0000
  H   H8        1.0  0.7537430948799652  0.9794220104726815  0.16023925221806917  1.0000
  H   H9        1.0  0.7743356817597798  0.18081330979187976  0.02056594072037395  1.0000
  H   H10       1.0  0.4064797007822349  0.16026709181742396  0.18084122034500172  1.0000
  H   H11       1.0  0.2462574724513615  0.020578616504891997  0.8397608692363363  1.0000
  H   H12       1.0  0.22566387853201048  0.8191873171949169  0.9794339969463337  1.0000
  H   H13       1.0  0.3363240798020967  0.7191677354281297  0.6727247159439785  1.0000
  H   H14       1.0  0.617113203589156  0.9535661443545534  0.28081907133923767  1.0000
  H   H15       1.0  0.663538385310197  0.32724481834575403  0.04645270036007785  1.0000
  H   H16       1.0  0.6636750503275765  0.2808320304262821  0.3272755139497292  1.0000
  H   H17       1.0  0.38288736374217075  0.046434482623020294  0.7191810501151679  1.0000
  H   H18       1.0  0.3364626129611422  0.6727566697110203  0.9535485743789067  1.0000
  H   H19       1.0  0.0012240707091207943  0.5785335350527417  0.38928693368350054  1.0000
  H   H20       1.0  0.42266006283884383  0.8107494153524042  0.42145483174707704  1.0000
  H   H21       1.0  0.6118773345240172  0.610703195801733  0.18924220233351713  1.0000
  H   H22       1.0  0.9987746288694835  0.4214653696958734  0.6107128656814211  1.0000
  H   H23       1.0  0.5773405044924829  0.18925121162516942  0.5785452897073283  1.0000
  H   H24       1.0  0.38812424023578984  0.3892974311400295  0.8107588256643865  1.0000
  H   H25       1.0  0.8436824474022515  0.5626087677936125  0.31062937855314476  1.0000
  H   H26       1.0  0.2810375953957516  0.747993999227418  0.43736644185249657  1.0000
  H   H27       1.0  0.533033844540256  0.689380136675325  0.25201248226232303  1.0000
  H   H28       1.0  0.1563166823384776  0.4373909980873805  0.6893701285847698  1.0000
  H   H29       1.0  0.7189615347339283  0.2520057666269863  0.5626337880412109  1.0000
  H   H30       1.0  0.46696629262895334  0.31061962916986363  0.7479879314190896  1.0000
  C   C1        1.0  0.6877206716133059  0.7707635986119781  0.6968788235038942  1.0000
  C   C2        1.0  0.9169318902259818  0.9261241914227084  0.22921736167881332  1.0000
  C   C3        1.0  0.9908074157439587  0.30310832398117066  0.07389337033259115  1.0000
  C   C4        1.0  0.3122783118010801  0.22923788951641905  0.30312063814810836  1.0000
  C   C5        1.0  0.0830696841448813  0.07387643554564248  0.7707829435632974  1.0000
  C   C6        1.0  0.009193727686884616  0.6968914419079792  0.9261057816249405  1.0000
  C   C7        1.0  0.40526022100168285  0.64003029795699  0.534840775271384  1.0000
  C   C8        1.0  0.7651829176049245  0.894824831891668  0.35995996628736976  1.0000
  C   C9        1.0  0.8703453654527776  0.46510961656750976  0.10518499766556015  1.0000
  C   C10       1.0  0.5947383322505787  0.3599703290390223  0.4651589786076258  1.0000
  C   C11       1.0  0.2348172187863895  0.10517493400669757  0.6400390018824568  1.0000
  C   C12       1.0  0.1296557787559606  0.534890149268456  0.8948155998035503  1.0000
  C   C13       1.0  0.571673821096688  0.7806466178817785  0.7303246793433685  1.0000
  C   C14       1.0  0.7909800060378201  0.9496593461726232  0.21931922562786338  1.0000
  C   C15       1.0  0.8413129977643833  0.26965752298948326  0.05033221929472376  1.0000
  C   C16       1.0  0.4283261697461711  0.2193548702108075  0.269675688852125  1.0000
  C   C17       1.0  0.20902113778196707  0.05034041968993819  0.7806806490854542  1.0000
  C   C18       1.0  0.1586871386269307  0.7303422429088896  0.9496667488751028  1.0000
  C   C19       1.0  0.4290853772461601  0.7139103656531985  0.6490226659224659  1.0000
  C   C20       1.0  0.7151236764159845  0.9351144360173147  0.2860700711342755  1.0000
  C   C21       1.0  0.7800019045060864  0.350946256907612  0.0649056763261271  1.0000
  C   C22       1.0  0.5709137528835129  0.28608940020121304  0.3509775639712487  1.0000
  C   C23       1.0  0.28487689091534923  0.06488619096025158  0.7139300503201369  1.0000
  C   C24       1.0  0.22000010080478916  0.6490552311399397  0.9350957822005626  1.0000
  C   C25       1.0  0.5273109708754902  0.6358674536680553  0.5081457888846187  1.0000
  C   C26       1.0  0.891405314426393  0.8723008454657515  0.36412364104800315  1.0000
  C   C27       1.0  0.019091236641308563  0.49181256122048456  0.12766404406153942  1.0000
  C   C28       1.0  0.4726875823767713  0.364133173327957  0.4918539649943908  1.0000
  C   C29       1.0  0.1085948223538651  0.1276989204060257  0.6358760498776164  1.0000
  C   C30       1.0  0.9809099075674297  0.5081872046154884  0.8723365534075783  1.0000
  C   C31       1.0  0.5184497170538692  0.5642729367122142  0.38940550482521985  1.0000
  C   C32       1.0  0.9540778380346284  0.8251533132222234  0.4357369158122991  1.0000
  C   C33       1.0  0.12893528601016152  0.6105809033878697  0.17484723365125626  1.0000
  C   C34       1.0  0.48155042011534016  0.43572682913297456  0.6105949088561928  1.0000
  C   C35       1.0  0.045922298356678874  0.17484645267614946  0.5642620523575275  1.0000
  C   C36       1.0  0.871065857809626  0.3894188624746917  0.8251526410620684  1.0000
  C   C37       1.0  0.24895843063961812  0.57015029627955  0.4487551992415462  1.0000
  C   C38       1.0  0.678808142736571  0.8786101139308254  0.42988081308968157  1.0000
  C   C39       1.0  0.8002149108166421  0.5512576271737044  0.12139387683286164  1.0000
  C   C40       1.0  0.7510406987121669  0.42984946962803855  0.5512435851405825  1.0000
  C   C41       1.0  0.3211924242058047  0.12139051307333659  0.5701185856089381  1.0000
  C   C42       1.0  0.1997858028410278  0.44874127755647203  0.8786062901074629  1.0000
  N   N1        1.0  0.6660508360782131  0.6993323471220165  0.5884446898780666  1.0000
  N   N2        1.0  0.9666971389188105  0.8891319163789433  0.3006714500201539  1.0000
  N   N3        1.0  0.07756557742396807  0.41154348510075767  0.11087211590263728  1.0000
  N   N4        1.0  0.33394771717405547  0.3006682798740029  0.41155506400094305  1.0000
  N   N5        1.0  0.03330299786144758  0.11086784949283407  0.6993282409054657  1.0000
  N   N6        1.0  0.9224341288052218  0.5884554196652232  0.8891271444941964  1.0000
  N   N7        1.0  0.10261489211567447  0.7720201903524141  0.7065126190302067  1.0000
  N   N8        1.0  0.3305826692966817  0.9345061139514427  0.2280141203804502  1.0000
  N   N9        1.0  0.39604887861434424  0.29347928871288786  0.06552119377226968  1.0000
  N   N10       1.0  0.8973842376250546  0.22797957552858603  0.2934868881077151  1.0000
  N   N11       1.0  0.6694168909951159  0.06549451303534679  0.7719858172862571  1.0000
  N   N12       1.0  0.6039512581659138  0.7065204771588893  0.9344784971533497  1.0000
  O   O1        1.0  0.6373873663791656  0.5604642432618404  0.3800892674284312  1.0000
  O   O2        1.0  0.07683131306134777  0.8196303520899163  0.4395665756048928  1.0000
  O   O3        1.0  0.25721852636280557  0.6199382062633204  0.18039185999499094  1.0000
  O   O4        1.0  0.36261219391263216  0.43953638372494913  0.6199106702382764  1.0000
  O   O5        1.0  0.9231688237189173  0.1803694137818609  0.5604331153207267  1.0000
  O   O6        1.0  0.7427826182348765  0.38006155954605686  0.8196094602299125  1.0000
  O   O7        1.0  0.9837565053231855  0.7871443672794736  0.7106373798614596  1.0000
  O   O8        1.0  0.1966426943226549  0.9235982926605429  0.21296285026612333  1.0000
  O   O9        1.0  0.27304453081805496  0.2893879926098819  0.07646796947275186  1.0000
  O   O10       1.0  0.016242624806494573  0.21285539857493768  0.2893628500322549  1.0000
  O   O11       1.0  0.8033560048670054  0.07640061211466077  0.7870362263430054  1.0000
  O   O12       1.0  0.7269566130017323  0.7106117732526723  0.9235319052405726  1.0000
  O   O13       1.0  0.08873318273861483  0.6982489354098929  0.6066167000874928  1.0000
  O   O14       1.0  0.3904346813492906  0.908300153705113  0.3017327389358895  1.0000
  O   O15       1.0  0.48216946037166497  0.393380401253374  0.09173077695559324  1.0000
  O   O16       1.0  0.9112659473910584  0.30175083044451867  0.393383529806222  1.0000
  O   O17       1.0  0.6095648789424998  0.09170047328168346  0.698267198730818  1.0000
  O   O18       1.0  0.5178316834481294  0.6066193646091875  0.9082690977577245  1.0000
  O   O19       1.0  0.3944651265424213  0.5128871069042517  0.3055238603090942  1.0000
  O   O20       1.0  0.8814490949969807  0.7926381920293009  0.4870980049750741  1.0000
  O   O21       1.0  0.08881707640308886  0.6944505705115772  0.20738445407499734  1.0000
  O   O22       1.0  0.6055340035872518  0.4871126589501527  0.6944763695846207  1.0000
  O   O23       1.0  0.11854960341478457  0.20736071279907964  0.5128996261224685  1.0000
  O   O24       1.0  0.9111844979677742  0.3055500564567736  0.7926158511671133  1.0000
  O   O25       1.0  0.1885907010903835  0.46802030586304955  0.4287831924607204  1.0000
  O   O26       1.0  0.7206349225512837  0.9607823314395956  0.5320078991902548  1.0000
  O   O27       1.0  0.7599157128736777  0.5712043505608974  0.039202296124777394  1.0000
  O   O28       1.0  0.8114084286503457  0.5319794600179505  0.5712163146772014  1.0000
  O   O29       1.0  0.2793642071894453  0.0392174344414045  0.46799160794766687  1.0000
  O   O30       1.0  0.24008643954143577  0.42879541518608005  0.960800653399417  1.0000
  O   O31       1.0  0.1826788507631106  0.6187606235148948  0.4076522343695217  1.0000
  O   O32       1.0  0.563921462911466  0.788914198428216  0.3813002224006181  1.0000
  O   O33       1.0  0.7750274714702883  0.592389358791088  0.21108346620953702  1.0000
  O   O34       1.0  0.8173207095286869  0.3812400034719019  0.5923477032971861  1.0000
  O   O35       1.0  0.4360780969913804  0.21108642858516893  0.6186989925102964  1.0000
  O   O36       1.0  0.2249730966389336  0.40761126813330145  0.7889181007564544  1.0000
  O   O37       1.0  0.8972782387733674  0.5609569885772601  0.3812618298813177  1.0000
  O   O38       1.0  0.33627998817349436  0.8202859139361252  0.43901941851285636  1.0000
  O   O39       1.0  0.5159617435266526  0.6187449441023531  0.17971768759559842  1.0000
  O   O40       1.0  0.1027204604162861  0.4390419161979437  0.6187372467278109  1.0000
  O   O41       1.0  0.6637201489957081  0.1797138519090637  0.5609809951685563  1.0000
  O   O42       1.0  0.4840389697420732  0.38125396065440476  0.8202817565889331  1.0000
  O   O43       1.0  0.21874670574366895  0.8243188048728097  0.7910606715416647  1.0000
  O   O44       1.0  0.3944117880480249  0.9667422878497404  0.17570270058146772  1.0000
  O   O45       1.0  0.427550703609583  0.2088940402654131  0.0332400654526737  1.0000
  O   O46       1.0  0.7812528545481288  0.17568182211397945  0.20893926612504285  1.0000
  O   O47       1.0  0.6055887792833019  0.03325833912783339  0.8242974208729379  1.0000
  O   O48       1.0  0.5724490022306623  0.7911048645271631  0.966758472188367  1.0000
