data_image0
_chemical_formula_structural       Cd2H32C32S4N8O14
_chemical_formula_sum              "Cd2 H32 C32 S4 N8 O14"
_cell_length_a       8.327634824322256
_cell_length_b       10.131342866803921
_cell_length_c       12.664445706169271
_cell_angle_alpha    100.94231333322196
_cell_angle_beta     99.30972458928989
_cell_angle_gamma    106.84234350083919

_space_group_name_H-M_alt    "P 1"
_space_group_IT_number       1

loop_
  _space_group_symop_operation_xyz
  'x, y, z'

loop_
  _atom_site_type_symbol
  _atom_site_label
  _atom_site_symmetry_multiplicity
  _atom_site_fract_x
  _atom_site_fract_y
  _atom_site_fract_z
  _atom_site_occupancy
  Cd  Cd1       1.0  0.5719388959591214  0.5612070199380029  0.21990780203810092  1.0000
  Cd  Cd2       1.0  0.4280670157627214  0.43879333380370167  0.7800937840421158  1.0000
  H   H1        1.0  0.9673556420263766  0.23568953349482763  0.22474888791703054  1.0000
  H   H2        1.0  0.03264412775720875  0.7643076602534292  0.7752444524041169  1.0000
  H   H3        1.0  0.05375496582985321  0.7714560308565196  0.21663379205327973  1.0000
  H   H4        1.0  0.9462559010278964  0.22854747849971344  0.7833719607453988  1.0000
  H   H5        1.0  0.2866279824843759  0.32157230044833807  0.2140680195688419  1.0000
  H   H6        1.0  0.7133718985138487  0.6784281368795462  0.7859305480953866  1.0000
  H   H7        1.0  0.3557526996921326  0.3754368747599274  0.3474374407977124  1.0000
  H   H8        1.0  0.6442426617731911  0.6245614864099025  0.6525595357066367  1.0000
  H   H9        1.0  0.3252517116044871  0.12299837388444247  0.772251966705852  1.0000
  H   H10       1.0  0.6747514845403231  0.8770041544009004  0.227747272493474  1.0000
  H   H11       1.0  0.49424627309041125  0.9692459874034257  0.7118345704497601  1.0000
  H   H12       1.0  0.5057564742634284  0.030755475809208104  0.2881644627528459  1.0000
  H   H13       1.0  0.6393649431815336  0.8669593753998585  0.8424865870188827  1.0000
  H   H14       1.0  0.3606364621953873  0.13303888780004058  0.15751103833959232  1.0000
  H   H15       1.0  0.8373165855666471  0.03201045748718911  0.47625596573703183  1.0000
  H   H16       1.0  0.16267197639173497  0.9679890815246847  0.5237396482851439  1.0000
  H   H17       1.0  0.8489437611953079  0.26521427019951466  0.4450084460013813  1.0000
  H   H18       1.0  0.15104819635234898  0.7347906369115194  0.5549985958766542  1.0000
  H   H19       1.0  0.3974260630692754  0.6443824914351737  0.5415965233816707  1.0000
  H   H20       1.0  0.6025650012924331  0.35562028073584884  0.4584093166489539  1.0000
  H   H21       1.0  0.7083730657515375  0.281798268329787  0.11959803338577052  1.0000
  H   H22       1.0  0.2916292099801153  0.7182106947900591  0.8803996829195884  1.0000
  H   H23       1.0  0.129277929263246  0.43359425528849016  0.39949851351013893  1.0000
  H   H24       1.0  0.8707244053188035  0.5663975634877545  0.6004990550344048  1.0000
  H   H25       1.0  0.9427920942460801  0.6229450401129951  0.40264367096768444  1.0000
  H   H26       1.0  0.05722015939975483  0.3770530803031207  0.5973606513058771  1.0000
  H   H27       1.0  0.31471375166637483  0.739002303054214  0.3361343115781495  1.0000
  H   H28       1.0  0.6852964000111966  0.26099370201587385  0.6638686790771829  1.0000
  H   H29       1.0  0.021540259132670898  0.6758913727459374  0.014167572374006525  1.0000
  H   H30       1.0  0.978468025342643  0.3241175307606384  0.9858371116171016  1.0000
  H   H31       1.0  0.2849368586302107  0.5568577430937083  0.002370129849204323  1.0000
  H   H32       1.0  0.7150672307005478  0.44314692013164597  0.9976303111975399  1.0000
  C   C1        1.0  0.3772662460938534  0.10888670738365391  0.9405719118648721  1.0000
  C   C2        1.0  0.6227331905093935  0.8911126600769352  0.05942565994867986  1.0000
  C   C3        1.0  0.3863939001724361  0.0767212946590092  0.8311856815969207  1.0000
  C   C4        1.0  0.6136091627777703  0.9232780140196228  0.16881227952909947  1.0000
  C   C5        1.0  0.4820120018432519  0.9892076506594165  0.7969678846884423  1.0000
  C   C6        1.0  0.5179919455009169  0.010793802548391797  0.20303285799289483  1.0000
  C   C7        1.0  0.5633123648827761  0.9315796872933716  0.8701813029856426  1.0000
  C   C8        1.0  0.4366922092581404  0.06841746164102597  0.12981808539647946  1.0000
  C   C9        1.0  0.4522484401845759  0.04552203945737429  0.018513169228676022  1.0000
  C   C10       1.0  0.5477529651923376  0.9544762237425246  0.9814844561297993  1.0000
  C   C11       1.0  0.5564767997120157  0.8360126234969415  0.5126313820881095  1.0000
  C   C12       1.0  0.44351163344774847  0.1639836911136356  0.48736216400680393  1.0000
  C   C13       1.0  0.5732121453814898  0.9758651381941448  0.49832335813784584  1.0000
  C   C14       1.0  0.42677299021566734  0.02412906628063639  0.501666357006151  1.0000
  C   C15       1.0  0.7256405972437889  0.066658815033783  0.479076535617189  1.0000
  C   C16       1.0  0.27434828031096  0.9333385694440961  0.520918006328408  1.0000
  C   C17       1.0  0.7333284079590283  0.1987860214538486  0.4628408367285887  1.0000
  C   C18       1.0  0.26666056762238805  0.8012146209874017  0.5371613021219518  1.0000
  C   C19       1.0  0.4071218351779678  0.7508720527734383  0.532096221883464  1.0000
  C   C20       1.0  0.5928667004044641  0.24912751500593086  0.46790413126242936  1.0000
  C   C21       1.0  0.7964421901873778  0.35022562942607033  0.19563713490133242  1.0000
  C   C22       1.0  0.2035606991530444  0.6497790438041093  0.8043615966666737  1.0000
  C   C23       1.0  0.016073032616866153  0.4325065195901559  0.3428923720649167  1.0000
  C   C24       1.0  0.9839303327417354  0.5674906489382251  0.6571068865463873  1.0000
  C   C25       1.0  0.9225331894248682  0.5238901446420386  0.3438484860329184  1.0000
  C   C26       1.0  0.0774754466659928  0.4761080249668693  0.6561538672202616  1.0000
  C   C27       1.0  0.27410698686430385  0.7058127112448674  0.24697768693147287  1.0000
  C   C28       1.0  0.7258996892448834  0.2941865530355585  0.7530230330688783  1.0000
  C   C29       1.0  0.12241401083873889  0.6702011681496387  0.07701809663094393  1.0000
  C   C30       1.0  0.8775974599845355  0.3298066019131056  0.9229851909679996  1.0000
  C   C31       1.0  0.2518813762416274  0.6124223915495791  0.07275381345419876  1.0000
  C   C32       1.0  0.7481255750487463  0.38758330235510385  0.9272478829848725  1.0000
  S   S1        1.0  0.30175748899259947  0.2543867824254206  0.9853050276120784  1.0000
  S   S2        1.0  0.6982455607696353  0.7456125406369624  0.014695303075804148  1.0000
  S   S3        1.0  0.7247582180903791  0.7625000334770532  0.49658022402813645  1.0000
  S   S4        1.0  0.2752297311104853  0.23749525441747465  0.5034194349016802  1.0000
  N   N1        1.0  0.78645462775588  0.4715955026539546  0.2519334248201092  1.0000
  N   N2        1.0  0.2135502127742441  0.5284080854938721  0.7480685197086319  1.0000
  N   N3        1.0  0.9342813858056471  0.3238706919670235  0.2484269752481296  1.0000
  N   N4        1.0  0.06571805958958521  0.6761286659044002  0.7515690168575163  1.0000
  N   N5        1.0  0.3462780055723443  0.635931996485148  0.1791492985574196  1.0000
  N   N6        1.0  0.653731096893459  0.3640672190181391  0.8208501012766762  1.0000
  N   N7        1.0  0.13869836666397364  0.7279279174963021  0.18738566107829513  1.0000
  N   N8        1.0  0.8613137133720841  0.27207556747135436  0.8126194316372592  1.0000
  O   O1        1.0  0.4607823664250573  0.3679362742725729  0.05257351744018021  1.0000
  O   O2        1.0  0.5392227984934124  0.6320651497520869  0.947425775304069  1.0000
  O   O3        1.0  0.2336711834217482  0.2902202133492792  0.8830154196392217  1.0000
  O   O4        1.0  0.7663283643961522  0.7097823976909297  0.11698737951740412  1.0000
  O   O5        1.0  0.17178420860975754  0.2145184756373338  0.04977331708952451  1.0000
  O   O6        1.0  0.8282209343287547  0.785482972360242  0.9502299249245001  1.0000
  O   O7        1.0  0.7332314226131587  0.7532819578032387  0.3790741361987458  1.0000
  O   O8        1.0  0.266766330040852  0.24671639294611938  0.6209278389709781  1.0000
  O   O9        1.0  0.6652722695975442  0.6194009430040096  0.5170556366672089  1.0000
  O   O10       1.0  0.334714479612984  0.38059435489533655  0.48294231278386957  1.0000
  O   O11       1.0  0.8835340134197692  0.8576196655497836  0.5743119537903639  1.0000
  O   O12       1.0  0.1164478698895408  0.1423757442875839  0.425691005555102  1.0000
  O   O13       1.0  0.3878948013678355  0.37215171134839414  0.2750684160331076  1.0000
  O   O14       1.0  0.612102657669766  0.6278487699620429  0.7249306819434268  1.0000
