data_image0
_chemical_formula_structural       Ag2H10C18O12
_chemical_formula_sum              "Ag2 H10 C18 O12"
_cell_length_a       3.811423447689119
_cell_length_b       7.650374016840457
_cell_length_c       15.44625976334918
_cell_angle_alpha    78.53521536320122
_cell_angle_beta     90.88403749147906
_cell_angle_gamma    77.10793242813409

_space_group_name_H-M_alt    "P 1"
_space_group_IT_number       1

loop_
  _space_group_symop_operation_xyz
  'x, y, z'

loop_
  _atom_site_type_symbol
  _atom_site_label
  _atom_site_symmetry_multiplicity
  _atom_site_fract_x
  _atom_site_fract_y
  _atom_site_fract_z
  _atom_site_occupancy
  Ag  Ag1       1.0  0.503565102668013  0.136749254161991  0.050046904894053106  1.0000
  Ag  Ag2       1.0  0.49643841480190787  0.8632512094646004  0.9499546818556155  1.0000
  H   H1        1.0  0.7228794595115531  0.484864596228377  0.43998783966045363  1.0000
  H   H2        1.0  0.2771207488240464  0.515137282190466  0.5600116636031629  1.0000
  H   H3        1.0  0.9359951150443064  0.29108538765547826  0.3307652363327378  1.0000
  H   H4        1.0  0.06400048469350139  0.7089151272982267  0.6692356851118291  1.0000
  H   H5        1.0  0.9538191650809653  0.9515250322090198  0.2623616921156753  1.0000
  H   H6        1.0  0.046178981494030304  0.048475499433912723  0.7376372895411976  1.0000
  H   H7        1.0  0.7414904402049559  0.5267491289979704  0.09610542804348647  1.0000
  H   H8        1.0  0.25851413058429523  0.47324864403681494  0.9038931813177699  1.0000
  H   H9        1.0  0.6204647044031618  0.09095280723715862  0.4485892207647596  1.0000
  H   H10       1.0  0.37953089533464635  0.9090477077165462  0.5514117006798073  1.0000
  C   C1        1.0  0.1671214299452047  0.3893681380122516  0.171817673298591  1.0000
  C   C2        1.0  0.8328806217289113  0.6106296081938326  0.8281835243171684  1.0000
  C   C3        1.0  0.2044719484484219  0.7907677744463444  0.1325313029632085  1.0000
  C   C4        1.0  0.7955288835740363  0.2092327231884213  0.8674689812400658  1.0000
  C   C5        1.0  0.6897220176207098  0.8464246719990812  0.4224419007554091  1.0000
  C   C6        1.0  0.310282799312688  0.15357856988489266  0.5775561843272571  1.0000
  C   C7        1.0  0.8276227199748337  0.7304292355212071  0.3585414552296768  1.0000
  C   C8        1.0  0.17237811204762477  0.2695712621135514  0.6414588289735975  1.0000
  C   C9        1.0  0.8238912141445524  0.543810204048228  0.3779630106700225  1.0000
  C   C10       1.0  0.17610373418434488  0.45619170182903457  0.6220364813680703  1.0000
  C   C11       1.0  0.9427122079242454  0.43549541065350195  0.3170516676175552  1.0000
  C   C12       1.0  0.05727867232755566  0.564503781392986  0.6829480781406828  1.0000
  C   C13       1.0  0.06152233723117454  0.5121441727476183  0.2359555563095412  1.0000
  C   C14       1.0  0.938475837065873  0.48785634875583384  0.7640440738141479  1.0000
  C   C15       1.0  0.07018372241705613  0.6991612581072176  0.21633617437814934  1.0000
  C   C16       1.0  0.9298144796020508  0.3008392532567542  0.783664104212356  1.0000
  C   C17       1.0  0.9522618426038107  0.8066215314742777  0.27835955109840427  1.0000
  C   C18       1.0  0.04774156397788691  0.19337897271022803  0.7216394417839923  1.0000
  O   O1        1.0  0.9624621894549961  0.4231220815520374  0.09755832814938259  1.0000
  O   O2        1.0  0.037544252394816534  0.5768715491305019  0.9024426240308259  1.0000
  O   O3        1.0  0.4307987937457014  0.2580462200466442  0.1879279046919038  1.0000
  O   O4        1.0  0.5692006833691681  0.7419515196096925  0.8120745842447334  1.0000
  O   O5        1.0  0.4008173224839666  0.6932076414957892  0.08478189908940689  1.0000
  O   O6        1.0  0.599186084097731  0.30679286268871664  0.9152170937929827  1.0000
  O   O7        1.0  0.11566722007911777  0.9645631043172714  0.11325723344481993  1.0000
  O   O8        1.0  0.8843335842212809  0.035437403456967304  0.8867424022916381  1.0000
  O   O9        1.0  0.7370946669314762  0.015114540139521205  0.4031720102205938  1.0000
  O   O10       1.0  0.2629041033303778  0.9848846107193341  0.5968277523759299  1.0000
  O   O11       1.0  0.5368772123043968  0.7857659102287046  0.4892054718594352  1.0000
  O   O12       1.0  0.4631221816443088  0.21423185984606624  0.5107950716767462  1.0000
