data_image0
_chemical_formula_structural       Zn2H24C30N12O6
_chemical_formula_sum              "Zn2 H24 C30 N12 O6"
_cell_length_a       7.800962471579341
_cell_length_b       8.77966846224022
_cell_length_c       12.420011059253865
_cell_angle_alpha    86.92329039040649
_cell_angle_beta     81.09520852766465
_cell_angle_gamma    85.96571310774445

_space_group_name_H-M_alt    "P 1"
_space_group_IT_number       1

loop_
  _space_group_symop_operation_xyz
  'x, y, z'

loop_
  _atom_site_type_symbol
  _atom_site_label
  _atom_site_symmetry_multiplicity
  _atom_site_fract_x
  _atom_site_fract_y
  _atom_site_fract_z
  _atom_site_occupancy
  Zn  Zn1       1.0  0.9999980694814781  0.5000026944914707  0.5000004068592006  1.0000
  Zn  Zn2       1.0  2.0478657276547287e-06  0.9999980987563648  0.9999996090851225  1.0000
  H   H1        1.0  0.9847357522612725  0.7417426781272738  0.6860644411742598  1.0000
  H   H2        1.0  0.015266501878663487  0.25825426179441996  0.3139374353180102  1.0000
  H   H3        1.0  0.055360884578149694  0.6350388309120163  0.8000714181461888  1.0000
  H   H4        1.0  0.9446389537184673  0.3649558186938081  0.19992996242174849  1.0000
  H   H5        1.0  0.8417759806800545  0.6180851024814018  0.7689534779126318  1.0000
  H   H6        1.0  0.15822359174703146  0.3819129704410501  0.23104861496988593  1.0000
  H   H7        1.0  0.40214622428652547  0.10130545216073732  0.9441716558166248  1.0000
  H   H8        1.0  0.5978562046374661  0.8986892020031763  0.055830282932937784  1.0000
  H   H9        1.0  0.39915444214864937  0.269686019128514  0.020027865052902896  1.0000
  H   H10       1.0  0.6008466896149399  0.7303086300963316  0.9799741974561014  1.0000
  H   H11       1.0  0.28179425661786434  0.2716889214435341  0.9067073576566  1.0000
  H   H12       1.0  0.7182081723061345  0.7283057327203792  0.09329458109296238  1.0000
  H   H13       1.0  0.1336730907856065  0.7279642519133843  0.1866161465216294  1.0000
  H   H14       1.0  0.8663256251346637  0.2720281069955989  0.813385420063035  1.0000
  H   H15       1.0  0.2665089830334821  0.6048271152487672  0.09320813359524036  1.0000
  H   H16       1.0  0.7334910300471974  0.39516524859927676  0.9067933092299824  1.0000
  H   H17       1.0  0.0382883760953803  0.6351102437195664  0.08760120549967348  1.0000
  H   H18       1.0  0.9617116406787359  0.3648821254485313  0.9123994316250329  1.0000
  H   H19       1.0  0.1514254805125717  0.45855535675363507  0.683748816591553  1.0000
  H   H20       1.0  0.8485728895330097  0.5414415789909557  0.3162518197780244  1.0000
  H   H21       1.0  0.26066495787693367  0.7780795966314641  0.9611824789933009  1.0000
  H   H22       1.0  0.7393376532179943  0.22191278241476206  0.03881791061252218  1.0000
  H   H23       1.0  0.20428583161939423  0.11553814416321731  0.11617536964362067  1.0000
  H   H24       1.0  0.7957152164456005  0.8844576532605688  0.8838258560362249  1.0000
  C   C1        1.0  0.9779308802283496  0.6326975315911341  0.7337170718527588  1.0000
  C   C2        1.0  0.0220687795907679  0.367299398452424  0.2662850521584019  1.0000
  C   C3        1.0  0.3220765652276114  0.20239750917765784  0.9754074839226232  1.0000
  C   C4        1.0  0.6779257799977857  0.7975982931851888  0.024593617997780398  1.0000
  C   C5        1.0  0.15480374450007156  0.6891987356661461  0.10296409487244768  1.0000
  C   C6        1.0  0.8451963559726393  0.31079248530301135  0.8970373790814177  1.0000
  C   C7        1.0  0.2781056603229429  0.9178885881567003  0.5708133209432019  1.0000
  C   C8        1.0  0.7218926996959995  0.08212550103034742  0.4291859190367688  1.0000
  C   C9        1.0  0.3721500387771357  0.8557222700962727  0.47724029785867816  1.0000
  C   C10       1.0  0.627853783139841  0.14428842617051169  0.5227561233679126  1.0000
  C   C11       1.0  0.3964289488560979  0.7943654390175611  0.5798213655316715  1.0000
  C   C12       1.0  0.6035762391461432  0.2056440927091643  0.42017899156668637  1.0000
  C   C13       1.0  0.1592784654443591  0.026600406870677808  0.6254914153356808  1.0000
  C   C14       1.0  0.8407217234740542  0.9734068406221897  0.3745062762556728  1.0000
  C   C15       1.0  0.0824695527209727  0.14960997733380313  0.5701320811117226  1.0000
  C   C16       1.0  0.9175283003592867  0.8503938263242149  0.42986675708496586  1.0000
  C   C17       1.0  0.13026102344349508  0.021875058125125704  0.7397493854409729  1.0000
  C   C18       1.0  0.8697368333301939  0.9781287508529388  0.26024864705519946  1.0000
  C   C19       1.0  0.42129041856270527  0.8505010171943681  0.364114625319452  1.0000
  C   C20       1.0  0.5787098503608661  0.1495050767795121  0.6358847088015762  1.0000
  C   C21       1.0  0.5514668760382406  0.7403587909335558  0.3239638629270871  1.0000
  C   C22       1.0  0.44853495591527087  0.25964388466277205  0.676034635119919  1.0000
  C   C23       1.0  0.3460309300558534  0.9521043401545201  0.2911000166316953  1.0000
  C   C24       1.0  0.6539698595264836  0.047894891225986704  0.7089003099617129  1.0000
  C   C25       1.0  0.48125579491766496  0.6892169185961168  0.6457931025896428  1.0000
  C   C26       1.0  0.5187454289850633  0.3107937624724856  0.3542043718563476  1.0000
  C   C27       1.0  0.4313745406876635  0.6865529086891159  0.7594346926306912  1.0000
  C   C28       1.0  0.5686246969450367  0.3134497570290761  0.24056405293519836  1.0000
  C   C29       1.0  0.6158589693207404  0.5895912036233284  0.5988984957670523  1.0000
  C   C30       1.0  0.38414000613586546  0.4104148907315377  0.40110015641290886  1.0000
  N   N1        1.0  0.018911362545956895  0.2543692853155264  0.5249238832929422  1.0000
  N   N2        1.0  0.9810837288162944  0.7456368048622366  0.4750735287643194  1.0000
  N   N3        1.0  0.11019478173685118  0.0175744809945826  0.835141999903037  1.0000
  N   N4        1.0  0.8898047180719433  0.9824247560869498  0.16485683904878096  1.0000
  N   N5        1.0  0.6620020201525065  0.6478016432790242  0.29451632420927604  1.0000
  N   N6        1.0  0.3379958218474499  0.352202144418854  0.7054849310889464  1.0000
  N   N7        1.0  0.2833217349111976  0.0370649347154526  0.2301876865001944  1.0000
  N   N8        1.0  0.7166711006180648  0.9629365581084743  0.7698125146920559  1.0000
  N   N9        1.0  0.3824695135878215  0.6887092838784313  0.8533391139268358  1.0000
  N   N10       1.0  0.6175316292560711  0.3112853813065613  0.14666053148062724  1.0000
  N   N11       1.0  0.7301292755282844  0.5090690129065222  0.5567301537386271  1.0000
  N   N12       1.0  0.26987116817934975  0.4909347953095846  0.443269242639694  1.0000
  O   O1        1.0  0.039991214296115594  0.5079448620979363  0.6648069596769304  1.0000
  O   O2        1.0  0.9600070683574344  0.4920532165255409  0.33519364556400427  1.0000
  O   O3        1.0  0.1673019500863191  0.1592136305524932  0.04665237150447148  1.0000
  O   O4        1.0  0.8327005736165702  0.8407798913726197  0.9533479869727087  1.0000
  O   O5        1.0  0.19133504336326004  0.8187836535880494  0.0292665937619745  1.0000
  O   O6        1.0  0.8086662668778287  0.1812087151990696  0.9707347253038063  1.0000
