data_image0
_chemical_formula_structural       Ag4H44C32N12O8
_chemical_formula_sum              "Ag4 H44 C32 N12 O8"
_cell_length_a       9.061176820457648
_cell_length_b       11.506682689841165
_cell_length_c       11.50663800350272
_cell_angle_alpha    113.10295067338814
_cell_angle_beta     102.95644417681478
_cell_angle_gamma    102.95595731243847

_space_group_name_H-M_alt    "P 1"
_space_group_IT_number       1

loop_
  _space_group_symop_operation_xyz
  'x, y, z'

loop_
  _atom_site_type_symbol
  _atom_site_label
  _atom_site_symmetry_multiplicity
  _atom_site_fract_x
  _atom_site_fract_y
  _atom_site_fract_z
  _atom_site_occupancy
  Ag  Ag1       1.0  0.24998889926419568  0.2659080218395927  0.73408088072442  1.0000
  Ag  Ag2       1.0  0.7500100032655154  0.7340901036327236  0.2659226519309994  1.0000
  Ag  Ag3       1.0  0.7499903806763655  0.8854970889142637  0.11450478153731321  1.0000
  Ag  Ag4       1.0  0.2500157476882023  0.11450213966958236  0.8854995434563263  1.0000
  H   H1        1.0  0.7638740072386767  0.36204255230776267  0.4231262410769929  1.0000
  H   H2        1.0  0.7361280533598062  0.576861015070392  0.6379671574386874  1.0000
  H   H3        1.0  0.23613711483534422  0.6379610361966357  0.576871178720765  1.0000
  H   H4        1.0  0.26386587931115457  0.4231361376585453  0.36203253402282337  1.0000
  H   H5        1.0  0.6631682430717162  0.1079973997279211  0.0868960683773423  1.0000
  H   H6        1.0  0.8368282430918228  0.9130950815116988  0.8920078170320166  1.0000
  H   H7        1.0  0.3368424844902974  0.892005100672257  0.9131034375246968  1.0000
  H   H8        1.0  0.16316503429197837  0.08690615894558819  0.10799087351433907  1.0000
  H   H9        1.0  0.5839829172851978  0.21534290873204034  0.1948899483853879  1.0000
  H   H10       1.0  0.9160098089080009  0.8050989290373067  0.7846609069380149  1.0000
  H   H11       1.0  0.4160293508895947  0.7846606375001101  0.8051093827015519  1.0000
  H   H12       1.0  0.08398078176224287  0.1949013078602561  0.21533604713427218  1.0000
  H   H13       1.0  0.5360690941098979  0.043021915493369485  0.16088917975441314  1.0000
  H   H14       1.0  0.9639286833039478  0.8391025017999988  0.9569844331816948  1.0000
  H   H15       1.0  0.46393976293165906  0.9569815963710437  0.8391095710405309  1.0000
  H   H16       1.0  0.03606727173706048  0.16089979594517695  0.04301427598021948  1.0000
  H   H17       1.0  0.15235805407598954  0.4807008231590401  0.6987669786280363  1.0000
  H   H18       1.0  0.3476379856236136  0.301228261489605  0.5192980425468576  1.0000
  H   H19       1.0  0.8476461811272104  0.5192995512094568  0.3012322966122268  1.0000
  H   H20       1.0  0.6523583129096053  0.6987718983671056  0.480704173325037  1.0000
  H   H21       1.0  0.9685002149715198  0.4266107811945829  0.722441276599852  1.0000
  H   H22       1.0  0.5314977934983105  0.27755581722072253  0.5733936545598793  1.0000
  H   H23       1.0  0.031507110513615454  0.5733916311096933  0.27755936686870797  1.0000
  H   H24       1.0  0.46849728527342904  0.7224412932359596  0.42660794819081344  1.0000
  H   H25       1.0  0.9845631269336863  0.5242595262106563  0.6357234716455976  1.0000
  H   H26       1.0  0.5154383797179207  0.36427720715234096  0.475747469371754  1.0000
  H   H27       1.0  0.015442240785738214  0.4757408864778299  0.3642751380960688  1.0000
  H   H28       1.0  0.484560610057045  0.6357239294000081  0.5242573419034642  1.0000
  H   H29       1.0  0.6668482431767301  0.09370452991240798  0.611261420814486  1.0000
  H   H30       1.0  0.8331365563514693  0.3887454536790996  0.9062900201628138  1.0000
  H   H31       1.0  0.33315716076815954  0.906295667863425  0.38874406036123316  1.0000
  H   H32       1.0  0.16683968825621778  0.6112447930440082  0.0936942736938206  1.0000
  H   H33       1.0  0.5548725652583782  0.9403342396252083  0.5946531761372852  1.0000
  H   H34       1.0  0.945118094515415  0.4053455977799628  0.05965683958339696  1.0000
  H   H35       1.0  0.4451328386865185  0.05966595815063159  0.40535230503844116  1.0000
  H   H36       1.0  0.0548601078579836  0.5946466485589424  0.9403294880001382  1.0000
  H   H37       1.0  0.039248210826997434  0.9453720441159915  0.29054554441145086  1.0000
  H   H38       1.0  0.4607461415983705  0.7094482187779005  0.054630295800272614  1.0000
  H   H39       1.0  0.9607591191863206  0.05463034132420569  0.7094559579863712  1.0000
  H   H40       1.0  0.5392524355518588  0.29055193712655114  0.9453731658622072  1.0000
  H   H41       1.0  0.1719077323857974  0.0559002182744948  0.45883596556208767  1.0000
  H   H42       1.0  0.32808222862981035  0.5411568526489814  0.9441000841049386  1.0000
  H   H43       1.0  0.8281014681479704  0.9441011557014607  0.5411662919428296  1.0000
  H   H44       1.0  0.6719147943230864  0.45884233801573504  0.05590097558486911  1.0000
  C   C1        1.0  0.9889059684545528  0.11631468969197557  0.39229525833576406  1.0000
  C   C2        1.0  0.5110863342215667  0.6077013861212137  0.8836904736597759  1.0000
  C   C3        1.0  0.011100453592220562  0.8836826965083018  0.607703125146031  1.0000
  C   C4        1.0  0.4889129628201586  0.39229782745533015  0.1163109728913696  1.0000
  C   C5        1.0  0.9622040399638433  0.31803284230559825  0.5214855716236285  1.0000
  C   C6        1.0  0.5377896019411424  0.4785112548478237  0.6819767377393474  1.0000
  C   C7        1.0  0.03779978261461991  0.6819665514149945  0.47851235400388237  1.0000
  C   C8        1.0  0.4622054813587724  0.5214858287447796  0.31802572394059325  1.0000
  C   C9        1.0  0.8265265082466513  0.29046013973157164  0.414811589257198  1.0000
  C   C10       1.0  0.673471188112714  0.5851831444160424  0.7095537858179808  1.0000
  C   C11       1.0  0.17348814843131782  0.7095462793079506  0.585194560886407  1.0000
  C   C12       1.0  0.3265278798511487  0.414821056944511  0.2904505862185259  1.0000
  C   C13       1.0  0.77512403777898  0.17020181328711456  0.2965863304512411  1.0000
  C   C14       1.0  0.724863985409236  0.7034014767409501  0.829805842328973  1.0000
  C   C15       1.0  0.22487562207746936  0.829798676442223  0.7034070174908177  1.0000
  C   C16       1.0  0.2751272605481532  0.29659467242826304  0.17019211265846215  1.0000
  C   C17       1.0  0.6313690315546978  0.13291867407966146  0.17844684037402195  1.0000
  C   C18       1.0  0.868630844250468  0.8215480974310693  0.8670863638612826  1.0000
  C   C19       1.0  0.36864243401153374  0.8670827765362787  0.8215540861337162  1.0000
  C   C20       1.0  0.13136438184268684  0.178455196370173  0.13291264255345678  1.0000
  C   C21       1.0  0.020699610458159195  0.445252742877507  0.651247389261229  1.0000
  C   C22       1.0  0.47929608905745624  0.3487477586023999  0.554751160323157  1.0000
  C   C23       1.0  0.9793061698860085  0.5547486504588761  0.3487525700931826  1.0000
  C   C24       1.0  0.5207017682012776  0.6512533396299601  0.4452543164506578  1.0000
  C   C25       1.0  0.542000971350525  0.024350800077748088  0.574956617588235  1.0000
  C   C26       1.0  0.9579860809833391  0.4250418124557882  0.9756403609146388  1.0000
  C   C27       1.0  0.45800329554995045  0.9756493862421748  0.4250486701568191  1.0000
  C   C28       1.0  0.041992850337912606  0.5749494378270441  0.024345669416071275  1.0000
  C   C29       1.0  0.4604239021090848  0.09732935513111576  0.6681732205326582  1.0000
  C   C30       1.0  0.03955191988496413  0.3318284674380578  0.9026595005450131  1.0000
  C   C31       1.0  0.5395781870041815  0.9026737656288616  0.33183467682938067  1.0000
  C   C32       1.0  0.9604325593539258  0.6681708121242947  0.09733255997343795  1.0000
  N   N1        1.0  0.0728367120356381  0.033224788794853986  0.3786691364762119  1.0000
  N   N2        1.0  0.42716285048570773  0.6213339900685568  0.9667841031152307  1.0000
  N   N3        1.0  0.9271694718769012  0.9667776389175986  0.621330454632428  1.0000
  N   N4        1.0  0.5728396467241268  0.3786701382034039  0.033224284930291476  1.0000
  N   N5        1.0  0.04283464481024165  0.2321038617158563  0.5108638178483103  1.0000
  N   N6        1.0  0.4571590645702272  0.48913142933332654  0.7678949465455032  1.0000
  N   N7        1.0  0.9571722861628872  0.7678974624841998  0.48913891172453816  1.0000
  N   N8        1.0  0.542841066777342  0.5108696918108533  0.23211091708964193  1.0000
  N   N9        1.0  0.8552476354376637  0.0827749249311864  0.28533518536875135  1.0000
  N   N10       1.0  0.6447512211622949  0.7146626218967923  0.9172267254464327  1.0000
  N   N11       1.0  0.14476490256863875  0.9172233917402223  0.7146689505961347  1.0000
  N   N12       1.0  0.3552485621648742  0.285340663999932  0.08277477254947738  1.0000
  O   O1        1.0  0.32976057905604245  0.11060715404659051  0.611553878423244  1.0000
  O   O2        1.0  0.17022538297032241  0.38843756196631324  0.8893849746455372  1.0000
  O   O3        1.0  0.6702459574050791  0.8893930820492383  0.3884509372538858  1.0000
  O   O4        1.0  0.8297567439908492  0.6115586298760147  0.11060713825030169  1.0000
  O   O5        1.0  0.5247703274447275  0.1413554779289328  0.7931703503422014  1.0000
  O   O6        1.0  0.9751887927383219  0.20681773228594835  0.8586158650399793  1.0000
  O   O7        1.0  0.47523051926614085  0.858644727751425  0.20683263925234724  1.0000
  O   O8        1.0  0.024797387058697436  0.793174486788004  0.14137525227523165  1.0000
