data_image0
_chemical_formula_structural       Ag4H32C48S8N24Cl4O16
_chemical_formula_sum              "Ag4 H32 C48 S8 N24 Cl4 O16"
_cell_length_a       8.424879937
_cell_length_b       13.140496662
_cell_length_c       14.427
_cell_angle_alpha    90.0
_cell_angle_beta     90.0
_cell_angle_gamma    90.0

_space_group_name_H-M_alt    "P 1"
_space_group_IT_number       1

loop_
  _space_group_symop_operation_xyz
  'x, y, z'

loop_
  _atom_site_type_symbol
  _atom_site_label
  _atom_site_symmetry_multiplicity
  _atom_site_fract_x
  _atom_site_fract_y
  _atom_site_fract_z
  _atom_site_occupancy
  Ag  Ag1       1.0  0.586051081667776  0.8243075036367316  0.777637762528592  1.0000
  Ag  Ag2       1.0  0.9139489295490009  0.17569351139339767  0.277641228252584  1.0000
  Ag  Ag3       1.0  0.0860510779288504  0.6756936384053419  0.22236085118181145  1.0000
  Ag  Ag4       1.0  0.4139465518890049  0.3243073766247875  0.7223622374714083  1.0000
  H   H1        1.0  0.8954572713693025  0.7381631189063214  0.8866333957163661  1.0000
  H   H2        1.0  0.6045344311237244  0.2618363741113185  0.38663339571636623  1.0000
  H   H3        1.0  0.3954572676303769  0.7618349791107732  0.1133666042836339  1.0000
  H   H4        1.0  0.1045368013058692  0.23816451390686671  0.613365217994037  1.0000
  H   H5        1.0  0.1903813481015817  0.7780040787624216  0.8932286684688435  1.0000
  H   H6        1.0  0.3096127208346715  0.22199617526145937  0.39322450960005284  1.0000
  H   H7        1.0  0.6903813518405073  0.7220001073046162  0.10677341096555183  1.0000
  H   H8        1.0  0.8096127245735971  0.2780031907442364  0.6067720246759549  1.0000
  H   H9        1.0  0.1372173857247461  0.9913833803308663  0.684023705552093  1.0000
  H   H10       1.0  0.3627885528168591  0.0086138296680431  0.1840230124072946  1.0000
  H   H11       1.0  0.6372138285820625  0.5086154786924766  0.3159742150135187  1.0000
  H   H12       1.0  0.8627826217531052  0.49138020929395043  0.815979067027101  1.0000
  H   H13       1.0  0.7850378936503972  0.1119455404036529  0.4888937409024764  1.0000
  H   H14       1.0  0.714968052369052  0.8880509085890154  0.9888951271920732  1.0000
  H   H15       1.0  0.28503670295094  0.3880500205708302  0.5111069522423222  1.0000
  H   H16       1.0  0.2149680486301264  0.6119471894280792  0.0111048728079268  1.0000
  H   H17       1.0  0.1270380121738697  0.9889983867643224  0.3134199764330745  1.0000
  H   H18       1.0  0.3729714872493375  0.0109980622283388  0.8134192832882761  1.0000
  H   H19       1.0  0.6270308941495841  0.5109966672278006  0.686582103001314  1.0000
  H   H20       1.0  0.8729655561855907  0.4890028257898464  0.186579330422127  1.0000
  H   H21       1.0  0.1262759835101974  0.5845387885689632  0.6522256879462134  1.0000
  H   H22       1.0  0.3737263941497986  0.41546222646116593  0.1522256879462134  1.0000
  H   H23       1.0  0.6262724263675139  0.9154615924668619  0.3477750051985851  1.0000
  H   H24       1.0  0.8737228370071222  0.0845386615570192  0.8477736189089884  1.0000
  H   H25       1.0  0.3383644658816465  0.6438204139167142  0.7647944825674102  1.0000
  H   H26       1.0  0.1616402856994199  0.3561813621196563  0.2647958688570071  1.0000
  H   H27       1.0  0.838360908738963  0.8561830111440898  0.2352075968669851  1.0000
  H   H28       1.0  0.6616319807146027  0.1438180038860395  0.7352069037221867  1.0000
  H   H29       1.0  0.471889217381019  0.8697304442875264  0.5773404034102756  1.0000
  H   H30       1.0  0.028113160278977  0.1302728537613334  0.07734317598946212  1.0000
  H   H31       1.0  0.9718892211199446  0.6302729807732774  0.4226561308657395  1.0000
  H   H32       1.0  0.5281143509784343  0.3697303172755824  0.9226589034449262  1.0000
  C   C1        1.0  0.9508349151444975  0.792964700499688  0.8398981077147027  1.0000
  C   C2        1.0  0.5491650960722794  0.2070340315117107  0.3398967214251059  1.0000
  C   C3        1.0  0.4508313505239698  0.7070333975174066  0.16010258543009576  1.0000
  C   C4        1.0  0.0491591575306742  0.292964573487744  0.6601025854300957  1.0000
  C   C5        1.0  0.1120751876656669  0.8152971897159205  0.8435419699175173  1.0000
  C   C6        1.0  0.3879212551916495  0.1847015422954783  0.3435391973383233  1.0000
  C   C7        1.0  0.6120728174835222  0.6847016693074225  0.1564587232272814  1.0000
  C   C8        1.0  0.8879188850095048  0.3152978237102175  0.6564601095168783  1.0000
  C   C9        1.0  0.0833673601584977  0.9329472329194388  0.727627365356625  1.0000
  C   C10       1.0  0.4166338305409596  0.06705149909196  0.22762528592222966  1.0000
  C   C11       1.0  0.5833649899763529  0.5670523871101452  0.2723719414985766  1.0000
  C   C12       1.0  0.9166314603588148  0.4329448228887642  0.7723747140777705  1.0000
  C   C13       1.0  0.9216796035155141  0.9081536495123359  0.7205226311776514  1.0000
  C   C14       1.0  0.5783204077012627  0.09184736551778631  0.2205219380328529  1.0000
  C   C15       1.0  0.4216784128160569  0.591845970517241  0.27947736882234864  1.0000
  C   C16       1.0  0.0783192170017983  0.4081527614941507  0.7794773688223489  1.0000
  C   C17       1.0  0.9105316701678206  0.9783267962143611  0.5415803701393216  1.0000
  C   C18       1.0  0.5894719019305583  0.0216719357970305  0.0415782907049262  1.0000
  C   C19       1.0  0.4105340403499653  0.5216697797902441  0.4584210161502753  1.0000
  C   C20       1.0  0.0894707112311011  0.47832743020866536  0.9584217092950738  1.0000
  C   C21       1.0  0.8754961560468786  0.0542901853978677  0.4765578429333886  1.0000
  C   C22       1.0  0.6245074160515003  0.94570778560729  0.9765578429333885  1.0000
  C   C23       1.0  0.3754985262290305  0.4457046145703742  0.523441463921813  1.0000
  C   C24       1.0  0.1245085992731134  0.5542933564347763  0.0234400776322161  1.0000
  C   C25       1.0  0.0655653260498212  0.9863850913247916  0.3794752893879548  1.0000
  C   C26       1.0  0.4344370516101748  0.0136121186741178  0.8794780619671416  1.0000
  C   C27       1.0  0.5655665167492785  0.5136107236735725  0.6205226311776499  1.0000
  C   C28       1.0  0.9344334944674983  0.4863880083378262  0.1205233243224484  1.0000
  C   C29       1.0  0.1045973362931747  0.9145050076190203  0.4481597005614476  1.0000
  C   C30       1.0  0.3954026674457509  0.08549372439237861  0.9481617799958428  1.0000
  C   C31       1.0  0.6045997139531707  0.5854908073793439  0.5518382200041573  1.0000
  C   C32       1.0  0.8954038581452153  0.4145079246320478  0.0518396062937541  1.0000
  C   C33       1.0  0.2792182224068185  0.7710165194363299  0.5340306370000718  1.0000
  C   C34       1.0  0.2207805943715755  0.2289852566000405  0.0340292507104749  1.0000
  C   C35       1.0  0.7792194131062757  0.7289838615994952  0.4659693629999283  1.0000
  C   C36       1.0  0.7207841589921031  0.2710163924243929  0.9659700561447269  1.0000
  C   C37       1.0  0.203991037599522  0.6485949670872486  0.6359395577736182  1.0000
  C   C38       1.0  0.296011340060474  0.3514083309616112  0.1359409440632149  1.0000
  C   C39       1.0  0.7039898543779088  0.851407696967307  0.3640604422263821  1.0000
  C   C40       1.0  0.7960077829177976  0.1485940790690634  0.864060442226382  1.0000
  C   C41       1.0  0.320285869968238  0.6811165688951776  0.6982220835932651  1.0000
  C   C42       1.0  0.1797176946522967  0.318885207141193  0.1982248561724518  1.0000
  C   C43       1.0  0.8202846867466249  0.8188853341531299  0.301776530117138  1.0000
  C   C44       1.0  0.6797117635885428  0.18111415886451  0.8017779164067349  1.0000
  C   C45       1.0  0.3953718064718359  0.8060798820969239  0.5954668330214192  1.0000
  C   C46       1.0  0.1046317581486989  0.19392417695817704  0.09546891245581433  1.0000
  C   C47       1.0  0.8953706232502228  0.6939250649763623  0.4045317806889841  1.0000
  C   C48       1.0  0.6046305749270857  0.3060782330724976  0.9045338601233796  1.0000
  S   S1        1.0  0.2619277682888566  0.830878792547729  0.4238899286060871  1.0000
  S   S2        1.0  0.2380686745684599  0.1691229834886414  0.9238933943300724  1.0000
  S   S3        1.0  0.76193251986993  0.6691223494943445  0.5761066056699278  1.0000
  S   S4        1.0  0.7380758000705967  0.33087866553578493  0.07611076453871142  1.0000
  S   S5        1.0  0.7904124509543138  0.9682069351907999  0.6425022527205897  1.0000
  S   S6        1.0  0.7095923081046038  0.0317963628580529  0.1425015595757984  1.0000
  S   S7        1.0  0.2904088863337861  0.5317957288637558  0.3574991335690001  1.0000
  S   S8        1.0  0.2095887434840691  0.4682060471726146  0.8574970541346119  1.0000
  N   N1        1.0  0.8556181279619324  0.8391707165748556  0.7777015318500065  1.0000
  N   N2        1.0  0.6443783223732353  0.1608287764427914  0.277702918139596  1.0000
  N   N3        1.0  0.3556193111835455  0.6608273814422461  0.222297081860404  1.0000
  N   N4        1.0  0.1443771316737781  0.3391698285566704  0.7222977750051953  1.0000
  N   N5        1.0  0.1773176604498801  0.8861575250556513  0.788393290358357  1.0000
  N   N6        1.0  0.3226811563285068  0.1138404459494993  0.28839190406876014  1.0000
  N   N7        1.0  0.677316477228274  0.6138428559801739  0.211606709641643  1.0000
  N   N8        1.0  0.822678786146362  0.3861566370374661  0.7116080959312399  1.0000
  N   N9        1.0  0.0245000524094721  0.9092342783778378  0.5277077701531852  1.0000
  N   N10       1.0  0.4755058861321331  0.0907629316210716  0.027709156442782004  1.0000
  N   N11       1.0  0.5244988691878589  0.5907615366205263  0.4722908435572181  1.0000
  N   N12       1.0  0.9755047029105198  0.4092364343846313  0.9722915367020164  1.0000
  N   N13       1.0  0.9534533500854111  0.05593624190214539  0.3951278852152243  1.0000
  N   N14       1.0  0.5465454741708342  0.9440640121217355  0.8951306577944109  1.0000
  N   N15       1.0  0.4534569072280874  0.4440631241035504  0.6048693422055891  1.0000
  N   N16       1.0  0.0465466573924402  0.55593865193282  0.1048714216399773  1.0000
  N   N17       1.0  0.414783359066405  0.7608312118758461  0.6782657517155357  1.0000
  N   N18       1.0  0.0852202055541298  0.2391713251667653  0.17826991058431932  1.0000
  N   N19       1.0  0.9147809888842602  0.7391737351974399  0.3217307825604793  1.0000
  N   N20       1.0  0.5852166484114463  0.2608295628514199  0.8217342482844643  1.0000
  N   N21       1.0  0.1827135830434301  0.6934266058869909  0.5535572191030695  1.0000
  N   N22       1.0  0.3172876076560271  0.3065766921618689  0.05355791224786801  1.0000
  N   N23       1.0  0.6827123998218241  0.8065760581675647  0.4464434740417289  1.0000
  N   N24       1.0  0.8172876113949528  0.19342571786880566  0.9464427808969307  1.0000
  Cl  Cl1       1.0  0.5867727536732517  0.6024102591868967  0.9242420461634426  1.0000
  Cl  Cl2       1.0  0.9132284445040639  0.3975899948369843  0.4242420461634424  1.0000
  Cl  Cl3       1.0  0.0867715629737873  0.8975908828551695  0.07575795383655763  1.0000
  Cl  Cl4       1.0  0.4132272538045996  0.1024093711687115  0.5757572606917591  1.0000
  O   O1        1.0  0.5002896221095412  0.69975893883759  0.919222984681497  1.0000
  O   O2        1.0  0.9997103891072355  0.3002405541800499  0.4192236778262952  1.0000
  O   O3        1.0  0.0002884314100839  0.8002422032044834  0.08077770846329463  1.0000
  O   O4        1.0  0.49971157232884167  0.1997572898131637  0.5807763221737048  1.0000
  O   O5        1.0  0.5060997939299199  0.5351669865216238  0.9895189575102208  1.0000
  O   O6        1.0  0.9938990303263253  0.4648340285085055  0.4895182643654294  1.0000
  O   O7        1.0  0.0060997901909943  0.9648333945142015  0.0104810424897792  1.0000
  O   O8        1.0  0.4938990265873997  0.0351660985034385  0.5104796562001823  1.0000
  O   O9        1.0  0.5891834705204744  0.5555474947237542  0.8321237956609124  1.0000
  O   O10       1.0  0.9108201015779045  0.4444512372876375  0.33212240937131554  1.0000
  O   O11       1.0  0.0891834667815488  0.9444544083245531  0.167876897483886  1.0000
  O   O12       1.0  0.4108165369573769  0.0555458456993279  0.6678755111942891  1.0000
  O   O13       1.0  0.7496178043160171  0.6209780505174649  0.9548520135856364  1.0000
  O   O14       1.0  0.7503822069007597  0.3790229645126644  0.4548506272960396  1.0000
  O   O15       1.0  0.2496178005770915  0.8790223305183602  0.0451493727039605  1.0000
  O   O16       1.0  0.2503822031618341  0.1209764014930386  0.5451479864143636  1.0000
