data_image0
_chemical_formula_structural       Yb4H60C44O24
_chemical_formula_sum              "Yb4 H60 C44 O24"
_cell_length_a       8.055343805022861
_cell_length_b       10.650386414040563
_cell_length_c       14.723957142061058
_cell_angle_alpha    90.00025811516568
_cell_angle_beta     90.00020538456012
_cell_angle_gamma    89.99981854741601

_space_group_name_H-M_alt    "P 1"
_space_group_IT_number       1

loop_
  _space_group_symop_operation_xyz
  'x, y, z'

loop_
  _atom_site_type_symbol
  _atom_site_label
  _atom_site_symmetry_multiplicity
  _atom_site_fract_x
  _atom_site_fract_y
  _atom_site_fract_z
  _atom_site_occupancy
  Yb  Yb1       1.0  0.9228699827355983  0.29911762551187576  0.0017495595548737996  1.0000
  Yb  Yb2       1.0  0.577126390506386  0.70088623468245  0.5017445430525098  1.0000
  Yb  Yb3       1.0  0.07712889218903028  0.7991161220136079  0.498251269507392  1.0000
  Yb  Yb4       1.0  0.42287246823403285  0.2008845058911604  0.9982534423394964  1.0000
  H   H1        1.0  0.23112925652412028  0.1728763697245768  0.6982876530764415  1.0000
  H   H2        1.0  0.2688726090818959  0.8271214569863901  0.19828390799653306  1.0000
  H   H3        1.0  0.768874685214385  0.6728832575542468  0.8017102407715269  1.0000
  H   H4        1.0  0.7311249070768752  0.32711870915143487  0.3017129376142407  1.0000
  H   H5        1.0  0.315305480231018  0.4631628384029297  0.8233659982545373  1.0000
  H   H6        1.0  0.1846947271828867  0.5368367037647419  0.32336453601394766  1.0000
  H   H7        1.0  0.6846947623348782  0.9631644565508706  0.6766369195070182  1.0000
  H   H8        1.0  0.8153052467670747  0.0368329779235737  0.17663475649514734  1.0000
  H   H9        1.0  0.1424720653486276  0.519000264727367  0.761774462277877  1.0000
  H   H10       1.0  0.35752649459850255  0.48099513933844656  0.2617738335046268  1.0000
  H   H11       1.0  0.8575263141270567  0.0190052705964021  0.738227003538533  1.0000
  H   H12       1.0  0.6424741010308849  0.9809925462427884  0.23822487344652638  1.0000
  H   H13       1.0  0.3469733769436658  0.5646780748325569  0.7295524202033545  1.0000
  H   H14       1.0  0.15302745337104534  0.43532276277922916  0.22954920606733248  1.0000
  H   H15       1.0  0.6530248111431192  0.0646781366273359  0.7704498740888822  1.0000
  H   H16       1.0  0.8469733336379476  0.9353208192015856  0.27045003074923096  1.0000
  H   H17       1.0  0.5614056510162866  0.487058611352225  0.8945203826375586  1.0000
  H   H18       1.0  0.9385995188091198  0.5129495651430532  0.3945268079530066  1.0000
  H   H19       1.0  0.4385944914228616  0.9870547431989178  0.6054798965682265  1.0000
  H   H20       1.0  0.06140427945959459  0.012952835600628997  0.10547376481568449  1.0000
  H   H21       1.0  0.9054342848589627  0.2936356022427872  0.7310786057030965  1.0000
  H   H22       1.0  0.59456732460486  0.7063659259769252  0.23108567197256485  1.0000
  H   H23       1.0  0.09457039230734669  0.7936326332767578  0.7689217203820957  1.0000
  H   H24       1.0  0.40543069755568684  0.2063646930003741  0.26891349555738486  1.0000
  H   H25       1.0  0.9680386013364878  0.19431115295188311  0.641322062720121  1.0000
  H   H26       1.0  0.531969864845493  0.8056888790962303  0.14132865250445545  1.0000
  H   H27       1.0  0.031960284959076504  0.6943107689319631  0.8586779386761876  1.0000
  H   H28       1.0  0.4680277411241249  0.30568899245727715  0.3586708397098732  1.0000
  H   H29       1.0  0.9455087734162076  0.38335287607249297  0.5539789822304682  1.0000
  H   H30       1.0  0.5545040825528602  0.6166513083820603  0.05398296046975298  1.0000
  H   H31       1.0  0.0544967692174296  0.8833520414311096  0.9460209579758254  1.0000
  H   H32       1.0  0.4454943155326346  0.11665201794038892  0.4460165929556509  1.0000
  H   H33       1.0  0.9751848413215284  0.47901821156596464  0.6497951214971279  1.0000
  H   H34       1.0  0.524831129175425  0.5209828119933063  0.14979669167590254  1.0000
  H   H35       1.0  0.0248215418594313  0.9790187309729885  0.85020513143818  1.0000
  H   H36       1.0  0.47516766978620945  0.0209819167587142  0.35020186984571205  1.0000
  H   H37       1.0  0.189550775023136  0.32762686966103866  0.4590899402349534  1.0000
  H   H38       1.0  0.3104540514509395  0.6723697593785118  0.9590900394136309  1.0000
  H   H39       1.0  0.8104504632580998  0.8276273441972251  0.040910302863124984  1.0000
  H   H40       1.0  0.689544926780904  0.1723711255328837  0.5409098902601314  1.0000
  H   H41       1.0  0.22340335771632167  0.21044824104583873  0.5424919532843544  1.0000
  H   H42       1.0  0.27660120499046315  0.7895504963234216  0.042491496271182386  1.0000
  H   H43       1.0  0.7765979437767425  0.710449505072347  0.9575067425379655  1.0000
  H   H44       1.0  0.7234001928427887  0.28954873418489757  0.45750794318807647  1.0000
  H   H45       1.0  0.3889167635937554  0.3121691302695524  0.5088029678835682  1.0000
  H   H46       1.0  0.11109130125786489  0.6878237643525722  0.008803893264193596  1.0000
  H   H47       1.0  0.6110841116597358  0.8121709996053139  0.9911953812954193  1.0000
  H   H48       1.0  0.8889080400085092  0.18782369306923388  0.49119521365539487  1.0000
  H   H49       1.0  0.5134436192903492  0.3077980759363755  0.7559153199793724  1.0000
  H   H50       1.0  0.986563119527645  0.6921998506926954  0.2559081622793542  1.0000
  H   H51       1.0  0.4865634813502168  0.8077987092024159  0.7440857315758505  1.0000
  H   H52       1.0  0.013434961990675702  0.1921994018652953  0.24409095894362304  1.0000
  H   H53       1.0  0.5470481151236298  0.4098193926660869  0.6613587378614979  1.0000
  H   H54       1.0  0.9529592417072621  0.5901779469345384  0.16135186033005056  1.0000
  H   H55       1.0  0.45295483378450296  0.9098197544648413  0.83864196802741  1.0000
  H   H56       1.0  0.047040508717366  0.09017894363218198  0.3386469273915864  1.0000
  H   H57       1.0  0.4890471432668447  0.250507817947657  0.6441096611533155  1.0000
  H   H58       1.0  0.0109618136107912  0.7494906113300317  0.14410312214702256  1.0000
  H   H59       1.0  0.5109577146130064  0.7505072090707471  0.8558912031182401  1.0000
  H   H60       1.0  0.9890347864304515  0.24949133828587117  0.3558961863575404  1.0000
  C   C1        1.0  0.17367909629674463  0.25971468098925493  0.7236430152223292  1.0000
  C   C2        1.0  0.3263241778918981  0.740282364202443  0.2236404565686883  1.0000
  C   C3        1.0  0.8263219987545439  0.7597184571078369  0.7763565208190852  1.0000
  C   C4        1.0  0.6736737021498128  0.24028241326870153  0.2763595009998879  1.0000
  C   C5        1.0  0.1730910256432594  0.24933321595355543  0.8258308800205822  1.0000
  C   C6        1.0  0.326902990974382  0.7506607079265777  0.3258297147660016  1.0000
  C   C7        1.0  0.8269039058486314  0.7493372951996092  0.6741686220787385  1.0000
  C   C8        1.0  0.6730936041789517  0.25065636823575926  0.17417095588576353  1.0000
  C   C9        1.0  0.27101783428805964  0.4864106611971905  0.7547499281170357  1.0000
  C   C10       1.0  0.22898564498408547  0.5135875160473943  0.2547477970296299  1.0000
  C   C11       1.0  0.7289823108587471  0.9864135382567484  0.7452523864773964  1.0000
  C   C12       1.0  0.7710144263807591  0.013586200071749498  0.24525141948286933  1.0000
  C   C13       1.0  0.6657366028369864  0.4334567668475485  0.9239615310175677  1.0000
  C   C14       1.0  0.8342724852605128  0.5665572259680546  0.4239516282685897  1.0000
  C   C15       1.0  0.3342587985566611  0.9334510877686951  0.5760365354627124  1.0000
  C   C16       1.0  0.16572736415017178  0.06655912511643441  0.07605047806571007  1.0000
  C   C17       1.0  0.28742436474202276  0.3720690531815051  0.6912457690566284  1.0000
  C   C18       1.0  0.21258117867971996  0.6279277908783528  0.1912433006065157  1.0000
  C   C19       1.0  0.7125775009358647  0.8720723637554786  0.8087561717622618  1.0000
  C   C20       1.0  0.7874171721535034  0.127926829887393  0.30875493134796966  1.0000
  C   C21       1.0  0.0016477678159887  0.2789948016468812  0.6795535087092758  1.0000
  C   C22       1.0  0.49835769853550727  0.7210066645139789  0.1795586931342753  1.0000
  C   C23       1.0  0.9983544878665783  0.7789937450525812  0.8204454111860284  1.0000
  C   C24       1.0  0.5016390208648147  0.22100646008496477  0.3204412014212963  1.0000
  C   C25       1.0  0.0186323188142765  0.3929688534993261  0.6163315769671057  1.0000
  C   C26       1.0  0.48137769636024785  0.6070322201503943  0.11633363905675508  1.0000
  C   C27       1.0  0.9813719421161267  0.8929691689921881  0.8836697530045466  1.0000
  C   C28       1.0  0.5186207420347912  0.10703142865836668  0.3836658829218392  1.0000
  C   C29       1.0  0.20554790526881558  0.40249028834576706  0.5964512495409053  1.0000
  C   C30       1.0  0.29446570306915015  0.5975097229395844  0.0964515578907736  1.0000
  C   C31       1.0  0.7944587985848344  0.9024911746429678  0.9035494323939872  1.0000
  C   C32       1.0  0.7055340166359513  0.09750954643020998  0.4035472537961836  1.0000
  C   C33       1.0  0.2562691212522523  0.5292667283592108  0.5577587828516923  1.0000
  C   C34       1.0  0.24374547339849073  0.47073116483935007  0.05775654042420798  1.0000
  C   C35       1.0  0.7437304566229274  0.029268578513360004  0.9422427165213632  1.0000
  C   C36       1.0  0.7562526824163456  0.9707314438662349  0.4422441704724988  1.0000
  C   C37       1.0  0.25547372671587715  0.30682117038069373  0.5227107750498305  1.0000
  C   C38       1.0  0.24453318839865548  0.6931774441785661  0.022709940496682197  1.0000
  C   C39       1.0  0.7445271709628826  0.8068207561182988  0.977290952469424  1.0000
  C   C40       1.0  0.7554673718484108  0.19317854489614913  0.4772905422574566  1.0000
  C   C41       1.0  0.4700584767815101  0.3329847953927256  0.6876069157476434  1.0000
  C   C42       1.0  0.029942076983566296  0.6670129649998842  0.18759946496066243  1.0000
  C   C43       1.0  0.5299385870264075  0.83298574890356  0.8123948972979063  1.0000
  C   C44       1.0  0.970056110072136  0.1670134673476795  0.31239957392910606  1.0000
  O   O1        1.0  0.048750026019291695  0.2897198308574715  0.8702903403128344  1.0000
  O   O2        1.0  0.4512318695958797  0.7102771858573931  0.3702913228573194  1.0000
  O   O3        1.0  0.9512497018968631  0.7897186418005974  0.6297079354742079  1.0000
  O   O4        1.0  0.5487537220729308  0.2102700509371118  0.12970921576711444  1.0000
  O   O5        1.0  0.8028641505890021  0.48527636753498615  0.9396592957127152  1.0000
  O   O6        1.0  0.697123937007312  0.5147330280943194  0.43964895628730716  1.0000
  O   O7        1.0  0.19714344776935627  0.9852737359941128  0.5603355443542952  1.0000
  O   O8        1.0  0.3028736467241586  0.014737318316299795  0.06035094314181318  1.0000
  O   O9        1.0  0.6442666872677874  0.3156808380001478  0.9413194229951996  1.0000
  O   O10       1.0  0.8557338253943881  0.6843313847268249  0.4413113054134712  1.0000
  O   O11       1.0  0.3557341732933565  0.8156740608362721  0.5586802959797623  1.0000
  O   O12       1.0  0.14426677192926718  0.18433228854007663  0.05869186508397209  1.0000
  O   O13       1.0  0.3016580773220737  0.20302218576696873  0.8643063200599241  1.0000
  O   O14       1.0  0.19832005459659285  0.7969700991193988  0.3643016597812476  1.0000
  O   O15       1.0  0.6983382896347549  0.7030282117437351  0.6356937098204083  1.0000
  O   O16       1.0  0.8016688980394093  0.29696145709020527  0.1356971247437642  1.0000
  O   O17       1.0  0.1433847957785517  0.6005364787909144  0.5257836894752328  1.0000
  O   O18       1.0  0.35661717393447384  0.3994640327091118  0.025780075735340795  1.0000
  O   O19       1.0  0.8566169662783096  0.10053919619091538  0.9742173637139542  1.0000
  O   O20       1.0  0.6433800390794886  0.8994666582707038  0.47421700636877506  1.0000
  O   O21       1.0  0.4102351717372841  0.5549773372019544  0.5541763782280639  1.0000
  O   O22       1.0  0.0897657437590809  0.44502428950790573  0.05417511000749189  1.0000
  O   O23       1.0  0.5897667812284838  0.0549767613125596  0.9458238468597455  1.0000
  O   O24       1.0  0.9102337611864115  0.9450232832772443  0.44582483768848374  1.0000
