data_image0
_chemical_formula_structural       Zn8H80C152S8N8O48
_chemical_formula_sum              "Zn8 H80 C152 S8 N8 O48"
_cell_length_a       13.920404096360997
_cell_length_b       18.964182594657768
_cell_length_c       23.481829456004256
_cell_angle_alpha    89.99996552141569
_cell_angle_beta     89.99994978003518
_cell_angle_gamma    103.32440611372564

_space_group_name_H-M_alt    "P 1"
_space_group_IT_number       1

loop_
  _space_group_symop_operation_xyz
  'x, y, z'

loop_
  _atom_site_type_symbol
  _atom_site_label
  _atom_site_symmetry_multiplicity
  _atom_site_fract_x
  _atom_site_fract_y
  _atom_site_fract_z
  _atom_site_occupancy
  Zn  Zn1       1.0  0.6638490508184418  0.32506230219055965  0.9901887814269729  1.0000
  Zn  Zn2       1.0  0.3361483676905692  0.17493578789947153  0.4901908078492099  1.0000
  Zn  Zn3       1.0  0.3361515554919806  0.6749368801230206  0.0098094613420088  1.0000
  Zn  Zn4       1.0  0.6638495320567301  0.8250639313103035  0.5098116935323205  1.0000
  Zn  Zn5       1.0  0.8755087293371134  0.35812838038676637  0.0079053727424068  1.0000
  Zn  Zn6       1.0  0.1244908302961392  0.14186967725667898  0.507905844957193  1.0000
  Zn  Zn7       1.0  0.1244903946178155  0.6418729657607756  0.992095425193618  1.0000
  Zn  Zn8       1.0  0.8755108317353545  0.8581305900961453  0.4920958047008241  1.0000
  H   H1        1.0  0.9057032139571604  0.498079540987753  0.1656898854131228  1.0000
  H   H2        1.0  0.09429884574014841  0.0019226884669265997  0.6656900154610952  1.0000
  H   H3        1.0  0.09430132311707236  0.501920731363384  0.8343100607993605  1.0000
  H   H4        1.0  0.9057009969750781  0.9980786589299696  0.3343107824747378  1.0000
  H   H5        1.0  0.5957577842270325  0.4453313689193975  0.12483966930955859  1.0000
  H   H6        1.0  0.4042431251317424  0.05466927653822039  0.6248391867811307  1.0000
  H   H7        1.0  0.4042458207719974  0.5546705266203277  0.8751607027639707  1.0000
  H   H8        1.0  0.5957568860646417  0.9453326127540721  0.3751624628769293  1.0000
  H   H9        1.0  0.5594434984443382  0.516882199939367  0.20801163072133733  1.0000
  H   H10       1.0  0.44055706222800944  0.9831178612604673  0.7080109211331234  1.0000
  H   H11       1.0  0.44056065683383133  0.4831191549543233  0.7919878896297874  1.0000
  H   H12       1.0  0.5594424435241335  0.016882402345196095  0.2919890250806744  1.0000
  H   H13       1.0  0.550454033993809  0.5837360837308979  0.2935505227065605  1.0000
  H   H14       1.0  0.44954442903651437  0.916262259368473  0.793550692654506  1.0000
  H   H15       1.0  0.44954585355515775  0.4162630973326601  0.7064489976461986  1.0000
  H   H16       1.0  0.5504547397517712  0.08373692044550299  0.20644925355964008  1.0000
  H   H17       1.0  0.886889552505572  0.688739725160943  0.3733614825611297  1.0000
  H   H18       1.0  0.11310838441072948  0.8112596165877548  0.8733618783836404  1.0000
  H   H19       1.0  0.11310957145050794  0.3112616209872742  0.6266380377913023  1.0000
  H   H20       1.0  0.8868915031374626  0.18873956447534818  0.1266384936915159  1.0000
  H   H21       1.0  0.572079884240921  0.6636551946399009  0.37968816440481845  1.0000
  H   H22       1.0  0.42791804123422844  0.8363441404579602  0.8796896620089641  1.0000
  H   H23       1.0  0.427919453030448  0.33634452707059376  0.6203105042255572  1.0000
  H   H24       1.0  0.5720811275540499  0.1636550393560157  0.120310284205182  1.0000
  H   H25       1.0  0.628959810060593  0.18153381594618878  0.8353048114581653  1.0000
  H   H26       1.0  0.3710421562474053  0.31846661078085964  0.3353041948372066  1.0000
  H   H27       1.0  0.3710416834901267  0.8184659095114668  0.164695560616444  1.0000
  H   H28       1.0  0.6289600112321807  0.6815352822608389  0.6646948996531066  1.0000
  H   H29       1.0  0.9408057848906423  0.26442658939657804  0.8598964909648501  1.0000
  H   H30       1.0  0.05919508122574511  0.23557272644012534  0.3598956508343889  1.0000
  H   H31       1.0  0.05919498989977969  0.7355731348117232  0.140103881109944  1.0000
  H   H32       1.0  0.9408040875625332  0.7644264533738508  0.6401042953797571  1.0000
  H   H33       1.0  0.9785887382261008  0.20075105412186633  0.7730829881624999  1.0000
  H   H34       1.0  0.0214115661096486  0.2992483517190578  0.273082136728334  1.0000
  H   H35       1.0  0.021412418360377196  0.7992475875438813  0.22691780977365278  1.0000
  H   H36       1.0  0.9785879396424946  0.7007519118865986  0.7269178094854637  1.0000
  H   H37       1.0  0.9882855364791824  0.12493378523426911  0.6913210611273969  1.0000
  H   H38       1.0  0.011715421146412592  0.3750673322371583  0.1913214554756664  1.0000
  H   H39       1.0  0.011714688032867574  0.8750664796205213  0.3086793109474115  1.0000
  H   H40       1.0  0.9882831525301441  0.624934554556873  0.8086793424603655  1.0000
  H   H41       1.0  0.6520821907867571  0.9936877538702333  0.6259678522726873  1.0000
  H   H42       1.0  0.3479188552017476  0.5063134773596971  0.125969954514126  1.0000
  H   H43       1.0  0.34791837068954107  0.006313594776457899  0.3740320939405705  1.0000
  H   H44       1.0  0.6520804820673047  0.4936862443494547  0.874031269283435  1.0000
  H   H45       1.0  0.9684590799623437  0.0386279674192451  0.6101544982658567  1.0000
  H   H46       1.0  0.03154164263433053  0.46137431791168393  0.11015611795662039  1.0000
  H   H47       1.0  0.03154131303125496  0.9613728393311618  0.38984629966996914  1.0000
  H   H48       1.0  0.9684590873235096  0.5386275726306308  0.889844254117655  1.0000
  H   H49       1.0  0.511209381389378  0.3029714016675841  0.0792759846772881  1.0000
  H   H50       1.0  0.4887903861523384  0.1970276647465852  0.5792766666177513  1.0000
  H   H51       1.0  0.4887878444336735  0.6970261499608341  0.9207226839541675  1.0000
  H   H52       1.0  0.5112118261586859  0.8029720619604248  0.4207237054566662  1.0000
  H   H53       1.0  0.5135816390844568  0.3540390452323834  0.9077991510957518  1.0000
  H   H54       1.0  0.48641880344680294  0.1459591364589841  0.4078002617776804  1.0000
  H   H55       1.0  0.48641841694682597  0.6459606777272384  0.0921999433956344  1.0000
  H   H56       1.0  0.5135839591418118  0.8540400496010889  0.5922009620191203  1.0000
  H   H57       1.0  0.3385700149752537  0.31607598656702157  0.09119460367620749  1.0000
  H   H58       1.0  0.6614290122548995  0.18392306606986608  0.5911947763989858  1.0000
  H   H59       1.0  0.66142826657196  0.6839226501024314  0.9088040649547083  1.0000
  H   H60       1.0  0.3385721443319624  0.816075575596109  0.40880559567597163  1.0000
  H   H61       1.0  0.33943485895456155  0.368191724147188  0.9112835892250715  1.0000
  H   H62       1.0  0.6605639712731629  0.1318059094868005  0.41128504213789807  1.0000
  H   H63       1.0  0.6605648152806581  0.6318090813549871  0.088715079404956  1.0000
  H   H64       1.0  0.3394365113848323  0.868190564595139  0.5887166075213486  1.0000
  H   H65       1.0  0.1740749100373691  0.26295399318678386  0.0679886309809845  1.0000
  H   H66       1.0  0.8259247094332239  0.23704454319650375  0.567988692399787  1.0000
  H   H67       1.0  0.8259260332361364  0.737046272918029  0.9320104635100462  1.0000
  H   H68       1.0  0.1740721345914622  0.7629540909731246  0.4320121055374884  1.0000
  H   H69       1.0  0.23551234889549727  0.4371358569408414  0.944654934599896  1.0000
  H   H70       1.0  0.7644874767149189  0.06286282665718802  0.4446542376959925  1.0000
  H   H71       1.0  0.7644883810627194  0.5628660336016936  0.0553450116131842  1.0000
  H   H72       1.0  0.23551063634958783  0.9371352681159736  0.5553452826574912  1.0000
  H   H73       1.0  0.9987970501195989  0.275152430557128  0.0685743987116965  1.0000
  H   H74       1.0  0.0012020180134016101  0.22484664585692124  0.5685744688220495  1.0000
  H   H75       1.0  0.0012031743932184294  0.7248478342981032  0.9314251216407143  1.0000
  H   H76       1.0  0.9987957132535145  0.7751525314579055  0.43142632911486334  1.0000
  H   H77       1.0  0.05843475052981968  0.44228253991861516  0.9511229592250742  1.0000
  H   H78       1.0  0.9415659506271723  0.057716680025834  0.4511221727906829  1.0000
  H   H79       1.0  0.9415654291484971  0.5577198912695209  0.04887869043280799  1.0000
  H   H80       1.0  0.05843427388565197  0.9422835848294042  0.5488773475617278  1.0000
  C   C1        1.0  0.7693781319928659  0.4227363671386115  0.09023542639699401  1.0000
  C   C2        1.0  0.2306264337401061  0.0772643209398041  0.5902350231226591  1.0000
  C   C3        1.0  0.2306276292878309  0.5772655321496246  0.9097640939535836  1.0000
  C   C4        1.0  0.7693774633882667  0.9227408247244995  0.4097674782559864  1.0000
  C   C5        1.0  0.7518658847432959  0.4673350701974994  0.1402868865963143  1.0000
  C   C6        1.0  0.2481351651638875  0.0326661009179787  0.640287773475734  1.0000
  C   C7        1.0  0.24813700149620388  0.5326668240933187  0.8597126337550094  1.0000
  C   C8        1.0  0.7518666205165656  0.9673368746644755  0.3597143020427964  1.0000
  C   C9        1.0  0.8306356339620109  0.5025716347490388  0.17488595051698036  1.0000
  C   C10       1.0  0.16936621081432426  0.9974300882068121  0.6748866525022592  1.0000
  C   C11       1.0  0.16936797103740284  0.4974302607909138  0.8251139956953537  1.0000
  C   C12       1.0  0.8306343506604321  0.0025712604389838004  0.3251149971557865  1.0000
  C   C13       1.0  0.6552585698446052  0.4736268393216319  0.1522919373157023  1.0000
  C   C14       1.0  0.3447424583553839  0.0263743191752752  0.6522919253211015  1.0000
  C   C15       1.0  0.34474342915228817  0.5263745118237749  0.847708008897186  1.0000
  C   C16       1.0  0.6552577213229259  0.973628112012854  0.3477097243367808  1.0000
  C   C17       1.0  0.8091375273621537  0.5422824857182533  0.22063365968265458  1.0000
  C   C18       1.0  0.19086461648816308  0.9577181066080201  0.7206339439297196  1.0000
  C   C19       1.0  0.1908648085985902  0.45771994921883424  0.7793662865298784  1.0000
  C   C20       1.0  0.8091361583026426  0.04228161760050849  0.2793660022838793  1.0000
  C   C21       1.0  0.6350074453283626  0.5138987918556526  0.1984731727195594  1.0000
  C   C22       1.0  0.36499241383031494  0.9861012781204367  0.6984737785376254  1.0000
  C   C23       1.0  0.36499455366852357  0.48610255928975477  0.8015267734933217  1.0000
  C   C24       1.0  0.6350075973668368  0.0139006111722964  0.3015270193980371  1.0000
  C   C25       1.0  0.7127299040374596  0.5483200480137923  0.23365140833838888  1.0000
  C   C26       1.0  0.2872722162736849  0.9516805306289698  0.733651645414092  1.0000
  C   C27       1.0  0.2872722634421265  0.4516818450279062  0.7663476861519243  1.0000
  C   C28       1.0  0.7127281767202974  0.0483202761216575  0.2663487266605387  1.0000
  C   C29       1.0  0.7076357175419048  0.5920093201699856  0.2846870307579721  1.0000
  C   C30       1.0  0.2923650414466721  0.9079917442245179  0.784686434692908  1.0000
  C   C31       1.0  0.29236556269507474  0.4079920297262944  0.7153124895939058  1.0000
  C   C32       1.0  0.7076344643054711  0.09200851938114599  0.2153135115208826  1.0000
  C   C33       1.0  0.8008685083044965  0.6208389529325373  0.3087519899077407  1.0000
  C   C34       1.0  0.1991349137280666  0.8791615492677426  0.8087514563056998  1.0000
  C   C35       1.0  0.1991348833804025  0.37916456704558504  0.6912479563042595  1.0000
  C   C36       1.0  0.8008653556177306  0.12083654925370982  0.19124763818602733  1.0000
  C   C37       1.0  0.6239180498062709  0.6068959789427026  0.3105419338886861  1.0000
  C   C38       1.0  0.3760816067051563  0.8931039732328612  0.8105425791314858  1.0000
  C   C39       1.0  0.3760836122283067  0.39310428841191225  0.6894563088797625  1.0000
  C   C40       1.0  0.6239182808434267  0.106895207830469  0.1894573670824755  1.0000
  C   C41       1.0  0.8140374089717143  0.665692464003115  0.3558373188351922  1.0000
  C   C42       1.0  0.18596161535706562  0.834307981207303  0.8558372397343277  1.0000
  C   C43       1.0  0.1859620519486072  0.3343099659370026  0.6441617756556965  1.0000
  C   C44       1.0  0.814038822470266  0.16569065920976558  0.1441622806184242  1.0000
  C   C45       1.0  0.6359201883690987  0.6512107328387061  0.3586650869873225  1.0000
  C   C46       1.0  0.3640806053313312  0.848790795689986  0.8586644824164935  1.0000
  C   C47       1.0  0.36408054159028314  0.34879115770450403  0.6413335816421649  1.0000
  C   C48       1.0  0.6359208882213137  0.15120892976878508  0.1413337603521256  1.0000
  C   C49       1.0  0.7299820791254563  0.681595666661245  0.38091800615052307  1.0000
  C   C50       1.0  0.27001740529762946  0.818406377873508  0.8809174652301195  1.0000
  C   C51       1.0  0.2700182690378625  0.31840730642451837  0.6190802366176129  1.0000
  C   C52       1.0  0.7299832010120257  0.1815928044396244  0.1190816292612595  1.0000
  C   C53       1.0  0.7417274255505645  0.73368197660875  0.4298549781752428  1.0000
  C   C54       1.0  0.25827070134326385  0.7663205558828209  0.9298553203908994  1.0000
  C   C55       1.0  0.25827059785070355  0.26632045083356093  0.5701424128712347  1.0000
  C   C56       1.0  0.74172829896348  0.23367808203553864  0.0701441999622219  1.0000
  C   C57       1.0  0.7662269923246683  0.26508499808031166  0.9063865254644625  1.0000
  C   C58       1.0  0.2337730709640553  0.2349142676379827  0.4063881500890644  1.0000
  C   C59       1.0  0.23377179466717016  0.7349152642759974  0.09361342074952009  1.0000
  C   C60       1.0  0.7662268614159585  0.7650827470906593  0.593613073708994  1.0000
  C   C61       1.0  0.7838796367771579  0.22617120570802027  0.8530597653813318  1.0000
  C   C62       1.0  0.21612234225657548  0.27382703602103226  0.35306095441042373  1.0000
  C   C63       1.0  0.2161216882916364  0.7738279778537986  0.1469406066934553  1.0000
  C   C64       1.0  0.7838791961251914  0.7261705231017147  0.6469411211094851  1.0000
  C   C65       1.0  0.7046722918908087  0.18518801287304854  0.8214830398856847  1.0000
  C   C66       1.0  0.2953267007193148  0.3148097151551639  0.3214828902523266  1.0000
  C   C67       1.0  0.2953267084147768  0.8148106250446361  0.17851775805102932  1.0000
  C   C68       1.0  0.7046715808267408  0.6851889215136211  0.6785170559621818  1.0000
  C   C69       1.0  0.8813464141924925  0.23122968262188692  0.8350117412955101  1.0000
  C   C70       1.0  0.11865526051403208  0.2687674942874381  0.335011279993644  1.0000
  C   C71       1.0  0.1186536866694468  0.7687678740026058  0.1649894825023779  1.0000
  C   C72       1.0  0.8813467833150596  0.7312316905237282  0.6649890920809511  1.0000
  C   C73       1.0  0.7270808390198269  0.1496577542595148  0.7734642117041018  1.0000
  C   C74       1.0  0.2729178586234227  0.3503411067857769  0.2734640564523119  1.0000
  C   C75       1.0  0.2729158365225501  0.8503403380140497  0.2265370120945462  1.0000
  C   C76       1.0  0.7270780981574987  0.6496569842377582  0.7265384449301139  1.0000
  C   C77       1.0  0.9023574965804217  0.1953243723271427  0.7865087093872063  1.0000
  C   C78       1.0  0.09764460279509993  0.30467393935758486  0.2865082415581881  1.0000
  C   C79       1.0  0.0976440418021198  0.8046731867960517  0.21349251441031208  1.0000
  C   C80       1.0  0.9023547344739596  0.6953257823515671  0.713492982239373  1.0000
  C   C81       1.0  0.8245773130029052  0.153159715822234  0.7553987276796548  1.0000
  C   C82       1.0  0.17542230454964167  0.34683970735789416  0.2553981989388916  1.0000
  C   C83       1.0  0.17542063157813464  0.8468378370541957  0.2446024961187945  1.0000
  C   C84       1.0  0.8245755503670013  0.65316217818701  0.744602173136137  1.0000
  C   C85       1.0  0.8305921999545022  0.10845762129059718  0.7050334107909748  1.0000
  C   C86       1.0  0.1694058578339934  0.39154347676934975  0.20503456689996818  1.0000
  C   C87       1.0  0.16940641855579489  0.8915420991700954  0.2949661095619831  1.0000
  C   C88       1.0  0.8305885717623197  0.6084589444241786  0.794966656898211  1.0000
  C   C89       1.0  0.7373531147304391  0.0714746840673399  0.6851338019916257  1.0000
  C   C90       1.0  0.2626454844871731  0.428528060597543  0.1851348916714741  1.0000
  C   C91       1.0  0.2626472782643177  0.9285261226837422  0.3148657183606076  1.0000
  C   C92       1.0  0.7373519886330299  0.5714749074896872  0.8148654804033838  1.0000
  C   C93       1.0  0.914629580359339  0.09702532148079261  0.6772685192693615  1.0000
  C   C94       1.0  0.085370852396764  0.4029763514075099  0.17727056522094387  1.0000
  C   C95       1.0  0.08537208167408031  0.9029749458731541  0.3227310010826727  1.0000
  C   C96       1.0  0.9146289454851058  0.597027162322945  0.8227310844367749  1.0000
  C   C97       1.0  0.7247191259145822  0.0230805596934616  0.6402829674860584  1.0000
  C   C98       1.0  0.2752795544029709  0.4769222321154842  0.1402853046682466  1.0000
  C   C99       1.0  0.27527982956111435  0.976920244559807  0.3597148494217564  1.0000
  C   C100      1.0  0.7247174132706745  0.5230791102837742  0.8597159191295347  1.0000
  C   C101      1.0  0.9035221333824524  0.0482568951386355  0.6319109096336106  1.0000
  C   C102      1.0  0.09647728083322699  0.4517459067194096  0.1319142036990542  1.0000
  C   C103      1.0  0.0964768220924768  0.9517439091141854  0.3680877589966016  1.0000
  C   C104      1.0  0.9035205740818738  0.5482559788245993  0.8680878718207624  1.0000
  C   C105      1.0  0.809601030013731  0.010660760172520198  0.6136943046110375  1.0000
  C   C106      1.0  0.1904012473506072  0.48934423216527284  0.11369753159418387  1.0000
  C   C107      1.0  0.19040130594855495  0.9893416747654628  0.3863039381567077  1.0000
  C   C108      1.0  0.8095985953646122  0.5106571152316235  0.8863032663416561  1.0000
  C   C109      1.0  0.7984810585474309  0.9541604331308592  0.5680127993935002  1.0000
  C   C110      1.0  0.20151932864440172  0.5458430241026377  0.0680153843757054  1.0000
  C   C111      1.0  0.20151950292963508  0.0458409155162869  0.43198629509736003  1.0000
  C   C112      1.0  0.7984803904237907  0.4541556150657514  0.9319828583936385  1.0000
  C   C113      1.0  0.4695979080022071  0.31665959828189466  0.043256226260986394  1.0000
  C   C114      1.0  0.5304004083333852  0.18333462893101432  0.5432581708114341  1.0000
  C   C115      1.0  0.5303993626542081  0.6833357870129574  0.9567415906485905  1.0000
  C   C116      1.0  0.4695993555646965  0.816661843901791  0.45674305298680207  1.0000
  C   C117      1.0  0.47109097434797315  0.345796169224208  0.9472415764842522  1.0000
  C   C118      1.0  0.5289064430032155  0.15419709144574514  0.4472435128019825  1.0000
  C   C119      1.0  0.5289080707921201  0.6542003023605929  0.0527570921469973  1.0000
  C   C120      1.0  0.47109315241294064  0.8457988394912235  0.5527577109964312  1.0000
  C   C121      1.0  0.37289382681756683  0.3235550896888951  0.04924172883917069  1.0000
  C   C122      1.0  0.6271033781380949  0.17644021252538522  0.5492436264810863  1.0000
  C   C123      1.0  0.6271036123203899  0.6764408375015803  0.9507565139314238  1.0000
  C   C124      1.0  0.37289566699853094  0.8235562590573907  0.45075887490093436  1.0000
  C   C125      1.0  0.37457497405699064  0.3540059182204942  0.9497456634087484  1.0000
  C   C126      1.0  0.6254210012464227  0.14598733731906322  0.44974670183224663  1.0000
  C   C127      1.0  0.6254229705259744  0.6459916346570579  0.050253431083717694  1.0000
  C   C128      1.0  0.3745766512037391  0.8540069654318998  0.5502540961058742  1.0000
  C   C129      1.0  0.32320076953182314  0.34237988930203045  0.0016449346344132002  1.0000
  C   C130      1.0  0.6767954657661334  0.1576143779023482  0.5016468155974181  1.0000
  C   C131      1.0  0.6767971750515329  0.657617663575742  0.9983537339968507  1.0000
  C   C132      1.0  0.3232009176449679  0.8423804642455224  0.498354408202097  1.0000
  C   C133      1.0  0.2198406077459438  0.348925310344697  0.0054572693389972  1.0000
  C   C134      1.0  0.7801571818287628  0.1510716635811775  0.5054586739017566  1.0000
  C   C135      1.0  0.7801594482849553  0.6510744126146977  0.9945422510135913  1.0000
  C   C136      1.0  0.21984114454794929  0.8489248067524784  0.4945434016192465  1.0000
  C   C137      1.0  0.15209397437208597  0.30375266473418355  0.04153327750042019  1.0000
  C   C138      1.0  0.8479033681725313  0.19624535381316827  0.541534199042772  1.0000
  C   C139      1.0  0.8479039253779135  0.6962470544771546  0.9584662428527294  1.0000
  C   C140      1.0  0.15209546364996374  0.8037527422080115  0.4584678764777124  1.0000
  C   C141      1.0  0.1856539942389475  0.3995859582625697  0.9723678740741022  1.0000
  C   C142      1.0  0.8143452309799599  0.10041323685076971  0.4723688364568089  1.0000
  C   C143      1.0  0.8143458484758952  0.6004153891341063  0.0276333497229331  1.0000
  C   C144      1.0  0.18565448808553936  0.8995854023160488  0.5276323873409154  1.0000
  C   C145      1.0  0.0546726535542064  0.3098269253388821  0.042123544959658  1.0000
  C   C146      1.0  0.9453290004856783  0.19017110008460492  0.5421235670981162  1.0000
  C   C147      1.0  0.9453293454419196  0.6901744258060772  0.9578772529756207  1.0000
  C   C148      1.0  0.054671100376644674  0.809826456540108  0.45787723083857657  1.0000
  C   C149      1.0  0.08717633833261829  0.40290270534018185  0.9756517145488458  1.0000
  C   C150      1.0  0.9128263062686912  0.0970959506727596  0.475651775639122  1.0000
  C   C151      1.0  0.9128254473478278  0.5971002702422724  0.0243503609696774  1.0000
  C   C152      1.0  0.08717501879971942  0.9029032328888322  0.5243490222968532  1.0000
  S   S1        1.0  0.8955842749883376  0.5921578335758396  0.2703184250945299  1.0000
  S   S2        1.0  0.10441490397835913  0.9078427015268816  0.7703192043665794  1.0000
  S   S3        1.0  0.10441877973271123  0.40784460261060224  0.7296815211178114  1.0000
  S   S4        1.0  0.895584983571382  0.0921564795371239  0.2296794642637892  1.0000
  S   S5        1.0  0.6415236569200646  0.09278914833318198  0.7271471581060139  1.0000
  S   S6        1.0  0.3584798976502056  0.40721356091551547  0.2271473566144735  1.0000
  S   S7        1.0  0.3584772863526737  0.9072111177711903  0.2728527881074072  1.0000
  S   S8        1.0  0.6415188893408655  0.5927867014403462  0.7728534413218995  1.0000
  N   N1        1.0  0.517706280556233  0.3272709432281929  0.9931187439025067  1.0000
  N   N2        1.0  0.48229215439513945  0.17272118792544688  0.4931202695844518  1.0000
  N   N3        1.0  0.4822929778983749  0.6727239039184312  0.0068799247290769  1.0000
  N   N4        1.0  0.5177079912993889  0.8272742023650325  0.5068809542139476  1.0000
  N   N5        1.0  0.022509698318032206  0.3582000922681701  0.009595411615457298  1.0000
  N   N6        1.0  0.9774916327429183  0.1417990498887534  0.5095967181264456  1.0000
  N   N7        1.0  0.9774903128779686  0.6418017970238951  0.9904066639037977  1.0000
  N   N8        1.0  0.022509860806643234  0.8582006755682343  0.49040493153174936  1.0000
  O   O1        1.0  0.6929754227812238  0.3896925305227441  0.0635169227790726  1.0000
  O   O2        1.0  0.3070264398699507  0.11031088887114038  0.5635202964912054  1.0000
  O   O3        1.0  0.3070296197403337  0.6103093675168054  0.9364813199880971  1.0000
  O   O4        1.0  0.6929736501404946  0.8896958749834453  0.4364843341940272  1.0000
  O   O5        1.0  0.8584071851917656  0.42180683518241585  0.078002966464922  1.0000
  O   O6        1.0  0.14159301128453453  0.07818898369564661  0.5779996279831323  1.0000
  O   O7        1.0  0.14159853125518404  0.5781972304391588  0.9219978314687297  1.0000
  O   O8        1.0  0.8584059441888527  0.921811820556279  0.42200074409187494  1.0000
  O   O9        1.0  0.8295136429242617  0.7687365410011893  0.4406871522534459  1.0000
  O   O10       1.0  0.17048429590233383  0.7312654382094408  0.9406854278209308  1.0000
  O   O11       1.0  0.17048509923460392  0.231265887688906  0.5593132198212132  1.0000
  O   O12       1.0  0.829514109292681  0.2687359066889671  0.059314944254083506  1.0000
  O   O13       1.0  0.6638856215237753  0.7401477152393666  0.4555834010494308  1.0000
  O   O14       1.0  0.3361129642923188  0.7598564158952286  0.9555841318115129  1.0000
  O   O15       1.0  0.3361162878102562  0.2598579685754031  0.5444139899952418  1.0000
  O   O16       1.0  0.6638869232581828  0.24014276516922456  0.0444136850964583  1.0000
  O   O17       1.0  0.6774240809398365  0.2666009375413054  0.9186304834476217  1.0000
  O   O18       1.0  0.3225753202634394  0.2334031886202368  0.41863419196106827  1.0000
  O   O19       1.0  0.3225741109445153  0.7334020317975174  0.0813656300150853  1.0000
  O   O20       1.0  0.6774222873549007  0.7665932804651803  0.5813657542541435  1.0000
  O   O21       1.0  0.84237846044509  0.2938318603444258  0.9353237670280378  1.0000
  O   O22       1.0  0.1576170694759256  0.20616682556554616  0.43532374175500627  1.0000
  O   O23       1.0  0.15761927082144206  0.7061673169701733  0.06467745677007028  1.0000
  O   O24       1.0  0.8423766861922887  0.793833428044394  0.5646779079050717  1.0000
  O   O25       1.0  0.8771435380058819  0.9452372423884087  0.5443119020620344  1.0000
  O   O26       1.0  0.1228568920424422  0.5547662397579174  0.0443149494521151  1.0000
  O   O27       1.0  0.1228579555440703  0.054762483068799404  0.45568932173496524  1.0000
  O   O28       1.0  0.8771401652986913  0.44523076997465694  0.9556837191795181  1.0000
  O   O29       1.0  0.7109660414790113  0.9189129877912167  0.5573398973793573  1.0000
  O   O30       1.0  0.28903622916359234  0.5810872342845598  0.05734029044548089  1.0000
  O   O31       1.0  0.2890352387591193  0.08108836210573142  0.4426583453889208  1.0000
  O   O32       1.0  0.71096209721928  0.41890923605267727  0.9426549712963775  1.0000
  O   O33       1.0  0.9603998784812189  0.6533676606152029  0.2423635868253555  1.0000
  O   O34       1.0  0.03959973283053132  0.8466318213295098  0.7423648553870946  1.0000
  O   O35       1.0  0.03960537735407848  0.3466326129857292  0.7576355076645527  1.0000
  O   O36       1.0  0.9603996044419886  0.153367900381653  0.2576325356596953  1.0000
  O   O37       1.0  0.9393683880174848  0.5442446473160557  0.3045972706879851  1.0000
  O   O38       1.0  0.06063698449069225  0.9557574874356335  0.804600604599358  1.0000
  O   O39       1.0  0.060634161259315485  0.45575616318375717  0.695400972080094  1.0000
  O   O40       1.0  0.9393645090611855  0.044242238022690096  0.1953984898916588  1.0000
  O   O41       1.0  0.586921921160112  0.028735243990503496  0.756883797660258  1.0000
  O   O42       1.0  0.4130772670747476  0.4712674265030188  0.256886917696292  1.0000
  O   O43       1.0  0.41307741611279175  0.9712644777208793  0.2431131675253297  1.0000
  O   O44       1.0  0.5869166570723152  0.5287333690009675  0.743118138853191  1.0000
  O   O45       1.0  0.5854033305828779  0.13404462986763116  0.6937707172122246  1.0000
  O   O46       1.0  0.4145999025451133  0.36595919700776847  0.19376920315514923  1.0000
  O   O47       1.0  0.41459727572638644  0.8659545524452739  0.3062288031403497  1.0000
  O   O48       1.0  0.5853963912015914  0.6340399778085768  0.806231168920945  1.0000
