data_image0
_chemical_formula_structural       Ni2H56C36N8O8
_chemical_formula_sum              "Ni2 H56 C36 N8 O8"
_cell_length_a       8.851615506881425
_cell_length_b       11.434889059619763
_cell_length_c       11.397105368625981
_cell_angle_alpha    88.8306989467871
_cell_angle_beta     68.43395917394163
_cell_angle_gamma    67.79553558823017

_space_group_name_H-M_alt    "P 1"
_space_group_IT_number       1

loop_
  _space_group_symop_operation_xyz
  'x, y, z'

loop_
  _atom_site_type_symbol
  _atom_site_label
  _atom_site_symmetry_multiplicity
  _atom_site_fract_x
  _atom_site_fract_y
  _atom_site_fract_z
  _atom_site_occupancy
  Ni  Ni1       1.0  1.0071955215047446e-06  0.9999977110673374  0.5000009874952625  1.0000
  Ni  Ni2       1.0  0.49999984212693943  0.5000026208970072  0.9999995046632152  1.0000
  H   H1        1.0  0.98527311837362  0.20779158132769743  0.5744481003254548  1.0000
  H   H2        1.0  0.48545700686287335  0.576390490654248  0.2077937995647829  1.0000
  H   H3        1.0  0.014729989111756924  0.7922031518766133  0.4255533877402016  1.0000
  H   H4        1.0  0.5145429401011868  0.42361279370099697  0.7922049143639072  1.0000
  H   H5        1.0  0.2364180945762158  0.2321482431081705  0.41128423634656025  1.0000
  H   H6        1.0  0.7394956625523579  0.4150131308319446  0.23334730047866256  1.0000
  H   H7        1.0  0.7635860942246423  0.7678445788467841  0.5887125965773378  1.0000
  H   H8        1.0  0.26050525764742344  0.5849882478233114  0.7666520529947647  1.0000
  H   H9        1.0  0.23022984515886688  0.12402484787624253  0.3045504741003882  1.0000
  H   H10       1.0  0.7339094543459054  0.3062184363392363  0.12686908612853642  1.0000
  H   H11       1.0  0.7697706054639253  0.8759680517377795  0.6954500183953273  1.0000
  H   H12       1.0  0.26609049261815443  0.6937848480160085  0.8731296278001537  1.0000
  H   H13       1.0  0.4593342181998281  0.015702638592372906  0.3962148169640117  1.0000
  H   H14       1.0  0.9602815049983278  0.3963031257399763  0.01716506748388012  1.0000
  H   H15       1.0  0.5406682109038742  0.9842911634862761  0.6037842397164183  1.0000
  H   H16       1.0  0.03971939718815782  0.6036982538401788  0.9828351684372905  1.0000
  H   H17       1.0  0.2887127229286577  0.06241411654598752  0.5515577174299722  1.0000
  H   H18       1.0  0.789471999322501  0.552393333183204  0.06243989319841604  1.0000
  H   H19       1.0  0.7112892105505394  0.9375806388450985  0.44844146070196444  1.0000
  H   H20       1.0  0.21053135895610353  0.44760799647402666  0.937559667903713  1.0000
  H   H21       1.0  0.3261987748408829  0.8867767492384361  0.3469105390105227  1.0000
  H   H22       1.0  0.8269798623164423  0.34704163778469177  0.8878751967449002  1.0000
  H   H23       1.0  0.6738041318740359  0.11321610045266084  0.653089278666151  1.0000
  H   H24       1.0  0.17301761054220322  0.652961697418377  0.11212507445058863  1.0000
  H   H25       1.0  0.29417893348978214  0.8625997270955779  0.6109719975430394  1.0000
  H   H26       1.0  0.7910211020119178  0.611167344808429  0.8628888084698687  1.0000
  H   H27       1.0  0.7058207266544585  0.13739696265654544  0.3890304082446789  1.0000
  H   H28       1.0  0.2089822742799825  0.38883398392390234  0.13710987018450996  1.0000
  H   H29       1.0  0.49344762168952616  0.7885698017625277  0.47324764939332203  1.0000
  H   H30       1.0  0.9909057536380746  0.47274872912296223  0.7894517344803306  1.0000
  H   H31       1.0  0.5065549721580496  0.21142588567911969  0.5267548425715844  1.0000
  H   H32       1.0  0.009096175824005638  0.5272507419825204  0.2105464936423331  1.0000
  H   H33       1.0  0.3800371965664056  0.6290341419922072  0.5305860052926619  1.0000
  H   H34       1.0  0.8742846556922926  0.5322338695345509  0.6305455876133125  1.0000
  H   H35       1.0  0.6199646468463201  0.3709606180233537  0.4694175850780127  1.0000
  H   H36       1.0  0.12571503646142182  0.467767534082171  0.3694541032696393  1.0000
  H   H37       1.0  0.33688789382345874  0.6820319086173329  0.39527194065063037  1.0000
  H   H38       1.0  0.8372732634605029  0.39506380937065455  0.6811161834964992  1.0000
  H   H39       1.0  0.6631139495892598  0.317962851398228  0.6047316497200441  1.0000
  H   H40       1.0  0.1627276747525741  0.6049375683597092  0.3188822875291777  1.0000
  H   H41       1.0  0.9079195606270577  0.3604961845298363  0.4275267018983228  1.0000
  H   H42       1.0  0.41159774414104794  0.43108292695298206  0.3615876584988058  1.0000
  H   H43       1.0  0.09208055911509647  0.6394995537596346  0.5724773473333826  1.0000
  H   H44       1.0  0.5884031940720292  0.5689184507773817  0.6384108125268781  1.0000
  H   H45       1.0  0.9372721486080521  0.22826942289204066  0.329221248070823  1.0000
  H   H46       1.0  0.44381106930845254  0.3300696624993123  0.23015019184849447  1.0000
  H   H47       1.0  0.06272826197103828  0.7717281942861622  0.6707800593111273  1.0000
  H   H48       1.0  0.5561913337477267  0.6699335719330152  0.7698478472611541  1.0000
  H   H49       1.0  0.9232009242346636  0.883992333527921  0.8641874477104352  1.0000
  H   H50       1.0  0.4184051518486029  0.8688021208438316  0.882792799779054  1.0000
  H   H51       1.0  0.07678573702358449  0.11600839227734383  0.1358167156735206  1.0000
  H   H52       1.0  0.5815928486440285  0.1312049749113982  0.1172046350601619  1.0000
  H   H53       1.0  0.05608285439754471  0.19235575539336486  0.9322700721837691  1.0000
  H   H54       1.0  0.5587503917244802  0.9280570400996812  0.19159371411280557  1.0000
  H   H55       1.0  0.9439057673283174  0.8076458738014198  0.06773353783264476  1.0000
  H   H56       1.0  0.4412488548275066  0.07195002976918373  0.8084025008691426  1.0000
  C   C1        1.0  0.203327610378075  0.14896292713694953  0.4049806506459035  1.0000
  C   C2        1.0  0.7055890465731524  0.4070713201034551  0.15037188554596534  1.0000
  C   C3        1.0  0.796676046771687  0.8510308499802335  0.5950180686249948  1.0000
  C   C4        1.0  0.29441262406147206  0.5929309859778871  0.8496263695216939  1.0000
  C   C5        1.0  0.3178886133127392  0.03683669388907872  0.45077623460267796  1.0000
  C   C6        1.0  0.8185809672512576  0.45157563923581284  0.0376832988611966  1.0000
  C   C7        1.0  0.6821155214482385  0.9631561308405596  0.5492232456644716  1.0000
  C   C8        1.0  0.1814214358049212  0.5484275951965076  0.962314740248445  1.0000
  C   C9        1.0  0.3474520373229097  0.8228378849767638  0.5101190893750598  1.0000
  C   C10       1.0  0.8448348546718804  0.5101406207713242  0.823581879697521  1.0000
  C   C11       1.0  0.6525493284785995  0.17715782742634906  0.4898837399993711  1.0000
  C   C12       1.0  0.1551677351585781  0.4898597823847127  0.1764196622581196  1.0000
  C   C13       1.0  0.29845403280398125  0.710375385642408  0.4970835076480641  1.0000
  C   C14       1.0  0.7952635469858077  0.4970897157449059  0.710760914536131  1.0000
  C   C15       1.0  0.7015478106087445  0.28961937437316015  0.5029200827226104  1.0000
  C   C16       1.0  0.20473860126002563  0.502911637948884  0.289238101527772  1.0000
  C   C17       1.0  0.8952833105735963  0.2675709476784008  0.42868149265934347  1.0000
  C   C18       1.0  0.39925739379929587  0.43025063033213257  0.2682516946193089  1.0000
  C   C19       1.0  0.10471757761670372  0.7324257171122569  0.5713205757188434  1.0000
  C   C20       1.0  0.6007425531647642  0.5697526540231125  0.7317470193093812  1.0000
  C   C21       1.0  0.9875356968643771  0.04321582007903401  0.8863503213221052  1.0000
  C   C22       1.0  0.48671262399278686  0.8866843753626982  0.04209671507996404  1.0000
  C   C23       1.0  0.012457363451637954  0.9567819459430498  0.1136521280692336  1.0000
  C   C24       1.0  0.5132853224599502  0.11332272316721512  0.9579033671024959  1.0000
  C   C25       1.0  0.958829430901531  0.9333798458863641  0.92368166068367  1.0000
  C   C26       1.0  0.4563038744174506  0.9260827445527723  0.9326817826437761  1.0000
  C   C27       1.0  0.04115818557914249  0.06661897514380401  0.0763240246927666  1.0000
  C   C28       1.0  0.5436945856730871  0.07392339973980462  0.06731729563943395  1.0000
  C   C29       1.0  0.0292257603303128  0.10905280661187791  0.9636774700475214  1.0000
  C   C30       1.0  0.5309871754356119  0.9614905236919926  0.10856588376426418  1.0000
  C   C31       1.0  0.9707670051316558  0.8909477962358637  0.03632677118430647  1.0000
  C   C32       1.0  0.4690101246449387  0.03852035757685711  0.8914290521282099  1.0000
  C   C33       1.0  0.9752062775554935  0.08911222237670563  0.764062212252142  1.0000
  C   C34       1.0  0.47368436453592017  0.7648809939844483  0.08764859907646642  1.0000
  C   C35       1.0  0.02478753319536501  0.9108864710714645  0.23593913873342842  1.0000
  C   C36       1.0  0.5263129755883325  0.2351251697202202  0.9123455219297795  1.0000
  N   N1        1.0  0.0157266035795445  0.17734867348769265  0.48021460269394817  1.0000
  N   N2        1.0  0.5173267137943043  0.48180904949754927  0.17777625776774644  1.0000
  N   N3        1.0  0.9842752938730611  0.8226460837531848  0.519786340333482  1.0000
  N   N4        1.0  0.48267273754525053  0.5181951881701398  0.8222225776124503  1.0000
  N   N5        1.0  0.27553338353690277  0.9255499447134171  0.44121562089607386  1.0000
  N   N6        1.0  0.7748850512792841  0.4415889735472406  0.9264260833054864  1.0000
  N   N7        1.0  0.7244697419617623  0.07444478756600152  0.5587849847218321  1.0000
  N   N8        1.0  0.22511610571753946  0.5584142867714379  0.07357317566143003  1.0000
  O   O1        1.0  0.9655633055164972  0.011152589388316892  0.6911295028104971  1.0000
  O   O2        1.0  0.4629746259968143  0.6925048552535175  0.009747513166672784  1.0000
  O   O3        1.0  0.03443585900323131  0.9888450536762436  0.30887302442872777  1.0000
  O   O4        1.0  0.537028175976076  0.3075002525181675  0.9902424894067252  1.0000
  O   O5        1.0  0.9782698004100824  0.19752172533031853  0.7412780198564517  1.0000
  O   O6        1.0  0.4774416063872169  0.7419224006373781  0.19626961257686298  1.0000
  O   O7        1.0  0.021723715486729144  0.8024798049435092  0.258725122969615  1.0000
  O   O8        1.0  0.522553500445774  0.25808097986413964  0.8037269211989296  1.0000
