data_image0
_chemical_formula_structural       Ag4H36C24I4N8
_chemical_formula_sum              "Ag4 H36 C24 I4 N8"
_cell_length_a       4.6411189790010186
_cell_length_b       9.776405354266771
_cell_length_c       18.233965252115066
_cell_angle_alpha    96.41818403553584
_cell_angle_beta     89.9999928993018
_cell_angle_gamma    89.9999263111798

_space_group_name_H-M_alt    "P 1"
_space_group_IT_number       1

loop_
  _space_group_symop_operation_xyz
  'x, y, z'

loop_
  _atom_site_type_symbol
  _atom_site_label
  _atom_site_symmetry_multiplicity
  _atom_site_fract_x
  _atom_site_fract_y
  _atom_site_fract_z
  _atom_site_occupancy
  Ag  Ag1       1.0  0.4318308856191209  0.19502298088033138  0.19891696227168862  1.0000
  Ag  Ag2       1.0  0.9318308186242064  0.30497706645139283  0.30108341412164924  1.0000
  Ag  Ag3       1.0  0.5681677039460739  0.8049755820139239  0.8010864585830648  1.0000
  Ag  Ag4       1.0  0.06817208024565961  0.6950225368437016  0.6989184257876816  1.0000
  H   H1        1.0  0.8770177606415501  0.9493070292933722  0.2454541819707003  1.0000
  H   H2        1.0  0.377016026436678  0.5506904417819952  0.2545455946917343  1.0000
  H   H3        1.0  0.12297867427597  0.0506884678284791  0.7545457586894528  1.0000
  H   H4        1.0  0.622982563126662  0.44931020191665266  0.7454546642724439  1.0000
  H   H5        1.0  0.816883944614311  0.6687689572190009  0.19850090364781892  1.0000
  H   H6        1.0  0.3168835871639359  0.8312295848370966  0.30149839225961733  1.0000
  H   H7        1.0  0.18311464495352678  0.3312286059242949  0.8014980679298347  1.0000
  H   H8        1.0  0.6831128477483118  0.16877003693787165  0.6985007066397415  1.0000
  H   H9        1.0  0.29559993479773544  0.8907102893096667  0.002779636919569818  1.0000
  H   H10       1.0  0.795598121624515  0.6092882624906224  0.4972202085300665  1.0000
  H   H11       1.0  0.704402964071363  0.10929035808319298  0.9972200738424349  1.0000
  H   H12       1.0  0.20440477724442732  0.3907123812066615  0.5027800504339766  1.0000
  H   H13       1.0  0.1453334402813908  0.018935029782859693  0.06948305347138023  1.0000
  H   H14       1.0  0.645334981083444  0.4810662314615969  0.4305168564196792  1.0000
  H   H15       1.0  0.8546694585877078  0.9810656176099928  0.9305166572906247  1.0000
  H   H16       1.0  0.35466791778409873  0.5189354415511855  0.5694834662051846  1.0000
  H   H17       1.0  0.008171445995969898  0.8482980914155647  0.059938219772441015  1.0000
  H   H18       1.0  0.5081717075302663  0.6517006381785677  0.44006219197677865  1.0000
  H   H19       1.0  0.9918336075273191  0.1517015266611139  0.9400614273286795  1.0000
  H   H20       1.0  0.4918311913399123  0.3482989725076564  0.5599385515284823  1.0000
  H   H21       1.0  0.7892852003540513  0.5530840046496125  0.0322063015218745  1.0000
  H   H22       1.0  0.2892822813572806  0.9469155804538116  0.4677936079862164  1.0000
  H   H23       1.0  0.2107133892106816  0.44691560973353717  0.967793893781483  1.0000
  H   H24       1.0  0.7107098442465797  0.05308609995351082  0.5322056182349186  1.0000
  H   H25       1.0  0.5562892642340387  0.6455763561408502  0.9785713232678505  1.0000
  H   H26       1.0  0.05628254492609842  0.8544248988183727  0.5214277226112288  1.0000
  H   H27       1.0  0.4437179439420476  0.3544232619351462  0.0214283238332058  1.0000
  H   H28       1.0  0.9437138899835135  0.14557678528315418  0.4785709554077329  1.0000
  H   H29       1.0  0.16903379452074324  0.6358313983365561  0.0746705251147404  1.0000
  H   H30       1.0  0.6690313417315323  0.8641693067944516  0.4253272628175111  1.0000
  H   H31       1.0  0.830969104350217  0.3641682308275094  0.9253274773803497  1.0000
  H   H32       1.0  0.3309672478322767  0.1358313479908944  0.5746713515405589  1.0000
  H   H33       1.0  0.401676077159557  0.5417271213236321  0.12675314118361314  1.0000
  H   H34       1.0  0.9016798671466049  0.9582713745822674  0.3732450529807778  1.0000
  H   H35       1.0  0.5983203577554832  0.4582704418203464  0.8732458303941115  1.0000
  H   H36       1.0  0.0983187224173605  0.04172928389865399  0.6267530131752608  1.0000
  C   C1        1.0  0.4152887273720437  0.8777693945129599  0.11567222399718703  1.0000
  C   C2        1.0  0.9152869457446188  0.6222311440391549  0.3843271930359863  1.0000
  C   C3        1.0  0.5847120168459625  0.12223023095621234  0.8843263267000055  1.0000
  C   C4        1.0  0.0847116438145363  0.37777258760597476  0.6156732569106538  1.0000
  C   C5        1.0  0.7379479327329647  0.8968879219222784  0.20359992505949262  1.0000
  C   C6        1.0  0.2379438791329918  0.6031116919016668  0.29640053588305904  1.0000
  C   C7        1.0  0.262052811488914  0.10310860820928272  0.7963995310593077  1.0000
  C   C8        1.0  0.7620525557758454  0.3968899737220184  0.7036008831460735  1.0000
  C   C9        1.0  0.7124844373981603  0.7587345882716079  0.1807968092919907  1.0000
  C   C10       1.0  0.21248431021369643  0.7412619647696487  0.3192018176651672  1.0000
  C   C11       1.0  0.2875163068210824  0.24126400418650462  0.8192022259464126  1.0000
  C   C12       1.0  0.7875142793541413  0.2587355983736472  0.6807971539124865  1.0000
  C   C13       1.0  0.2053070122296674  0.9101078282103217  0.058808680543073394  1.0000
  C   C14       1.0  0.7053031291242177  0.5898907732128648  0.4411922669958912  1.0000
  C   C15       1.0  0.7946980412934652  0.08989178617079571  0.941191514760085  1.0000
  C   C16       1.0  0.2946954604416021  0.4101078044636566  0.5588089610507225  1.0000
  C   C17       1.0  0.5619671596567031  0.5679696575555297  0.0179079988918431  1.0000
  C   C18       1.0  0.06196211744328652  0.9320300747788507  0.4820913767271123  1.0000
  C   C19       1.0  0.4380378938665856  0.4320299605211487  0.9820916482092841  1.0000
  C   C20       1.0  0.9380343174674122  0.0679705726160478  0.5179083340350985  1.0000
  C   C21       1.0  0.3964595703739278  0.6193501910175668  0.08766524431572982  1.0000
  C   C22       1.0  0.8964613904193115  0.8806524180536357  0.41233430122451864  1.0000
  C   C23       1.0  0.6035390191928229  0.3806484088323572  0.9123326945186748  1.0000
  C   C24       1.0  0.10353935379109198  0.11935233921074231  0.5876667605849023  1.0000
  I   I1        1.0  0.44424596630975804  0.181553411268041  0.35846584689536354  1.0000
  I   I2        1.0  0.9442438021397879  0.31844662452955663  0.1415350769183661  1.0000
  I   I3        1.0  0.5557590872129056  0.8184461920263714  0.6415359930138962  1.0000
  I   I4        1.0  0.055750478117019504  0.681553996997046  0.8584684712581564  1.0000
  N   N1        1.0  0.5519043514395251  0.9695312714798231  0.1632799404505789  1.0000
  N   N2        1.0  0.051900468514652694  0.5304684598169798  0.3367205322059945  1.0000
  N   N3        1.0  0.44810070208345115  0.030468339205718592  0.836720803054611  1.0000
  N   N4        1.0  0.9480981210483749  0.46953217649053147  0.6632808231622533  1.0000
  N   N5        1.0  0.5067689921188857  0.7478868166603974  0.1254226918755492  1.0000
  N   N6        1.0  0.0067688034642046  0.7521108881994962  0.3745771080991319  1.0000
  N   N7        1.0  0.4932317521015932  0.2521107427866481  0.8745768279040649  1.0000
  N   N8        1.0  0.993229786103633  0.24788667494380695  0.6254218634785218  1.0000
