data_image0
_chemical_formula_structural       Cd4H48C32S8N8O40
_chemical_formula_sum              "Cd4 H48 C32 S8 N8 O40"
_cell_length_a       8.3540724
_cell_length_b       8.813408769478473
_cell_length_c       20.4884
_cell_angle_alpha    90.11761578273345
_cell_angle_beta     90.0
_cell_angle_gamma    90.0

_space_group_name_H-M_alt    "P 1"
_space_group_IT_number       1

loop_
  _space_group_symop_operation_xyz
  'x, y, z'

loop_
  _atom_site_type_symbol
  _atom_site_label
  _atom_site_symmetry_multiplicity
  _atom_site_fract_x
  _atom_site_fract_y
  _atom_site_fract_z
  _atom_site_occupancy
  Cd  Cd1       1.0  0.6730214595698243  0.5776120067848609  0.744685292967084  1.0000
  Cd  Cd2       1.0  0.1730198076808591  0.9223873918574482  0.255315096966747  1.0000
  Cd  Cd3       1.0  0.3269782531451355  0.4223879705224007  0.25531382846697426  1.0000
  Cd  Cd4       1.0  0.8269775109921227  0.077611450812654  0.7446854877085655  1.0000
  H   H1        1.0  0.0713604062133797  0.9350703659983209  0.8439056877580313  1.0000
  H   H2        1.0  0.5713596640603666  0.5649278980068289  0.156095189254934  1.0000
  H   H3        1.0  0.9286393065015801  0.0649262073974697  0.1560939187513029  1.0000
  H   H4        1.0  0.4286376546126149  0.4350709446632663  0.843905883501435  1.0000
  H   H5        1.0  0.2094283980588898  0.9532597342620761  0.9500818206942582  1.0000
  H   H6        1.0  0.7094276559058768  0.5467407990173854  0.04991857024149478  1.0000
  H   H7        1.0  0.79057131465607  0.0467402430451784  0.049917788820856394  1.0000
  H   H8        1.0  0.29057205680908277  0.4532580436527169  0.9500815263527542  1.0000
  H   H9        1.0  0.2743859390062298  0.7706557687642146  0.976560527135767  1.0000
  H   H10       1.0  0.7743863938742024  0.7293436298780946  0.0234388866359367  1.0000
  H   H11       1.0  0.7256137737087371  0.2293453431801993  0.0234390833812697  1.0000
  H   H12       1.0  0.2256133188407574  0.2706540781548483  0.976561208956383  1.0000
  H   H13       1.0  0.1069657955083088  0.8543488747383492  0.014025345065583398  1.0000
  H   H14       1.0  0.6069650533552959  0.6456516585411123  0.9859760220322897  1.0000
  H   H15       1.0  0.8930303261436876  0.1456488332945938  0.9859747505267364  1.0000
  H   H16       1.0  0.3930334623386783  0.3543494534033016  0.0140245646468742  1.0000
  H   H17       1.0  0.4668417764729894  0.7152412246538233  0.524992685824003  1.0000
  H   H18       1.0  0.9668362462360277  0.7847593086256381  0.47500672894962986  1.0000
  H   H19       1.0  0.5331579362419703  0.2847610219277499  0.4750074137760265  1.0000
  H   H20       1.0  0.0331538903110271  0.2152383994073048  0.5249928785616262  1.0000
  H   H21       1.0  0.2664305375184455  0.6279933004668266  0.4478759519919606  1.0000
  H   H22       1.0  0.7664262043024692  0.8720049635383234  0.5521249250210047  1.0000
  H   H23       1.0  0.7335703722175069  0.3720078114775873  0.5521231704440197  1.0000
  H   H24       1.0  0.23356752330755626  0.1279961484060905  0.4478751735770956  1.0000
  H   H25       1.0  0.0918593906368343  0.5757863755992574  0.49224278748498307  1.0000
  H   H26       1.0  0.591855057420858  0.9242152923173634  0.5077595567769393  1.0000
  H   H27       1.0  0.9081427161201034  0.4242136017080043  0.5077568220301315  1.0000
  H   H28       1.0  0.4081386701891674  0.075788088901362  0.4922410319060758  1.0000
  H   H29       1.0  0.2115602924389322  0.4326155898555371  0.4561931083565156  1.0000
  H   H30       1.0  0.7115571562439413  0.0673826968423583  0.5438096233845116  1.0000
  H   H31       1.0  0.7884406172970202  0.5673843874517175  0.5438069892396554  1.0000
  H   H32       1.0  0.2884377683870696  0.9326195497392148  0.4561909642965746  1.0000
  H   H33       1.0  0.9050364466556429  0.4071305046723097  0.6659888427154144  1.0000
  H   H34       1.0  0.4050371888086559  0.0928666473884263  0.3340104714562671  1.0000
  H   H35       1.0  0.0949620690383313  0.5928694726349448  0.3340107667997002  1.0000
  H   H36       1.0  0.5949601298643259  0.907132195281676  0.665989625137982  1.0000
  H   H37       1.0  0.9432465536209591  0.5833101545872807  0.6562685835554161  1.0000
  H   H38       1.0  0.443244901732001  0.9166858401435577  0.3437308272105141  1.0000
  H   H39       1.0  0.0567531590940007  0.4166886880828216  0.3437310249577692  1.0000
  H   H40       1.0  0.5567548109829659  0.083314137163697  0.656269270385664  1.0000
  H   H41       1.0  0.4432496898159499  0.7677352127221155  0.8160349205144681  1.0000
  H   H42       1.0  0.9432513417049151  0.7322630512830343  0.18396498033637698  1.0000
  H   H43       1.0  0.5567488258780244  0.23226476458513898  0.18396517708170987  1.0000
  H   H44       1.0  0.0567495680310373  0.2677357913870679  0.8160346281768084  1.0000
  H   H45       1.0  0.3577512687105724  0.6933620163555219  0.7561231870521823  1.0000
  H   H46       1.0  0.8577481325155887  0.806636247649628  0.2438762257175995  1.0000
  H   H47       1.0  0.6422496410253729  0.306639095588892  0.24387691154591806  1.0000
  H   H48       1.0  0.1422503831783857  0.1933614603833149  0.7561233817936637  1.0000
  C   C1        1.0  0.8985330316265845  0.7569981413054876  0.8203586229462799  1.0000
  C   C2        1.0  0.3985337737795973  0.7430012573368217  0.17964225506861448  1.0000
  C   C3        1.0  0.1014678781093608  0.2429995667274554  0.1796400084028633  1.0000
  C   C4        1.0  0.6014659389353625  0.25699871997044  0.8203588186896837  1.0000
  C   C5        1.0  0.0212902152966734  0.8271232561562982  0.8595119342628194  1.0000
  C   C6        1.0  0.5212918671856386  0.672876142486011  0.14048943183312448  1.0000
  C   C7        1.0  0.9787118914602643  0.1728733172394854  0.1404866960843947  1.0000
  C   C8        1.0  0.4787090425503138  0.3271249694584029  0.8595121310081525  1.0000
  C   C9        1.0  0.0634325362083317  0.7696743076234185  0.9183721006800666  1.0000
  C   C10       1.0  0.5634353851182823  0.7303273602932023  0.0816292674197285  1.0000
  C   C11       1.0  0.9365707675695987  0.2303234004095245  0.0816275068311896  1.0000
  C   C12       1.0  0.4365691156806335  0.2696748862883638  0.9183722964234772  1.0000
  C   C13       1.0  0.1693808638766399  0.8422116610699959  0.967097835525081  1.0000
  C   C14       1.0  0.6693813187446196  0.6577888722094727  0.0329035315727921  1.0000
  C   C15       1.0  0.8306188488383199  0.1577883162372657  0.0329022620710901  1.0000
  C   C16       1.0  0.3306183939703473  0.3422099704606296  0.9670975411835768  1.0000
  C   C17       1.0  0.5092642002958954  0.6179914739279297  0.6215039096145318  1.0000
  C   C18       1.0  0.0092589573439668  0.8820101939886911  0.3784959942420869  1.0000
  C   C19       1.0  0.4907355124190715  0.3820107726536364  0.3784966780665541  1.0000
  C   C20       1.0  0.9907359672870443  0.1179863794070997  0.6215036122672473  1.0000
  C   C21       1.0  0.4312854650385844  0.6270004929544584  0.5588412805742988  1.0000
  C   C22       1.0  0.931281131822608  0.8729989056878509  0.44115959744058836  1.0000
  C   C23       1.0  0.5687118536344045  0.3730017536271149  0.44115833094465984  1.0000
  C   C24       1.0  0.0687125957874173  0.1269976677079399  0.5588404971498093  1.0000
  C   C25       1.0  0.309320996547747  0.5340056315672967  0.542077528254346  1.0000
  C   C26       1.0  0.8093142692897928  0.9659983056236428  0.4579243299303639  1.0000
  C   C27       1.0  0.6906775191462344  0.4659954803771171  0.4579220822626909  1.0000
  C   C28       1.0  0.1906770642782547  0.0340050755950898  0.542076258752644  1.0000
  C   C29       1.0  0.2156134055050813  0.5432835596000274  0.4809247713906544  1.0000
  C   C30       1.0  0.7156102693100905  0.956716973679434  0.5190765957072186  1.0000
  C   C31       1.0  0.784387504230871  0.4567175523443865  0.519074351045326  1.0000
  C   C32       1.0  0.2843846553209204  0.043285272902132  0.4809235038928037  1.0000
  S   S1        1.0  0.9251811128665821  0.5130738452950823  0.88752916440567  1.0000
  S   S2        1.0  0.4251854460825583  0.9869244187100676  0.11247268876941517  1.0000
  S   S3        1.0  0.07482338793233367  0.4869215934635491  0.1124699530206854  1.0000
  S   S4        1.0  0.5748214487583354  0.0130766932343462  0.8875293621529253  1.0000
  S   S5        1.0  0.3804838942980666  0.3557859040440547  0.6399429373975491  1.0000
  S   S6        1.0  0.8804795610820904  0.1442180558396231  0.3600597993531096  1.0000
  S   S7        1.0  0.6195158184168932  0.6442140732632069  0.3600566721175652  1.0000
  S   S8        1.0  0.1195177575908986  0.855784190741943  0.6399403002469128  1.0000
  N   N1        1.0  0.8357588569617889  0.6197910084589253  0.8364890991451261  1.0000
  N   N2        1.0  0.3357607961357871  0.8802083901833839  0.16351177886976123  1.0000
  N   N3        1.0  0.1642444468161415  0.3802055649368583  0.16351001928314446  1.0000
  N   N4        1.0  0.6642425076421432  0.11979272176103  0.8364888078094024  1.0000
  N   N5        1.0  0.4767447311086244  0.5009718053785903  0.662804493367119  1.0000
  N   N6        1.0  0.9767344127877066  0.9990309971751827  0.3371958995724853  1.0000
  N   N7        1.0  0.52325378458535  0.49902930656582356  0.3371956052309812  1.0000
  N   N8        1.0  0.0232605118433042  0.0009689801320718  0.6628046861047493  1.0000
  O   O1        1.0  0.9007140038671437  0.5082312139090348  0.6870509614768351  1.0000
  O   O2        1.0  0.4007123519781786  0.9917659154589559  0.3129489383720809  1.0000
  O   O3        1.0  0.09928929991078657  0.4917676287610675  0.31294913511740663  1.0000
  O   O4        1.0  0.599284966694803  0.0082340618482988  0.6870511592240973  1.0000
  O   O5        1.0  0.4365571454707506  0.6724449803663504  0.790384601754397  1.0000
  O   O6        1.0  0.9365564033177378  0.8275532836387995  0.2096157871775048  1.0000
  O   O7        1.0  0.5634437642652017  0.3275561315780635  0.20961549684370337  1.0000
  O   O8        1.0  0.0634421123762365  0.1724455590313028  0.7903838213356806  1.0000
  O   O9        1.0  0.8134499768041294  0.4234965110247799  0.9236329776301416  1.0000
  O   O10       1.0  0.3134519159781277  0.0765051795845793  0.07636829287348228  1.0000
  O   O11       1.0  0.1865641001626912  0.5764977930966921  0.07636516263215748  1.0000
  O   O12       1.0  0.686557372904737  0.9234993362713054  0.9236322968114548  1.0000
  O   O13       1.0  0.06249885983751109  0.4366333400284503  0.8592481389658461  1.0000
  O   O14       1.0  0.5624981176844983  0.0633672159437566  0.14075459477903957  1.0000
  O   O15       1.0  0.9375116260663461  0.5633643680044926  0.1407500043022338  1.0000
  O   O16       1.0  0.437505186093432  0.9366338960006573  0.8592484323054207  1.0000
  O   O17       1.0  0.0023784807036122  0.6339376645323185  0.9410075555058839  1.0000
  O   O18       1.0  0.5023873147185043  0.8660662726586209  0.0589943026788333  1.0000
  O   O19       1.0  0.9976260200953035  0.3660589088634723  0.0589910748413303  1.0000
  O   O20       1.0  0.4976243682063384  0.1339382431972638  0.9410077512492875  1.0000
  O   O21       1.0  0.8352549111257375  0.82042776229288  0.7705537367034694  1.0000
  O   O22       1.0  0.3352532592367794  0.67957050171227  0.22944665222843244  1.0000
  O   O23       1.0  0.1647459986102078  0.179569945740063  0.22944635888885045  1.0000
  O   O24       1.0  0.664745256457195  0.3204294755949846  0.7705539334488022  1.0000
  O   O25       1.0  0.47980790781750926  0.24563305956883846  0.6059250108995186  1.0000
  O   O26       1.0  0.9798047716225186  0.2543663617662162  0.3940752814381341  1.0000
  O   O27       1.0  0.5201906078764651  0.7543680523755754  0.39407557577963814  1.0000
  O   O28       1.0  0.0201949410924414  0.7456336155410455  0.6059228638337968  1.0000
  O   O29       1.0  0.2784677805760936  0.2991266629724407  0.6905874445826184  1.0000
  O   O30       1.0  0.7784550682131979  0.2008772969112371  0.309415780249104  1.0000
  O   O31       1.0  0.7215283410759028  0.7008755836091325  0.30941216693634727  1.0000
  O   O32       1.0  0.221542250459791  0.7991226803960174  0.690584317347074  1.0000
  O   O33       1.0  0.25532697083161787  0.420595243814347  0.5827072591881759  1.0000
  O   O34       1.0  0.7553226376156345  0.0794075814321715  0.4172954765605537  1.0000
  O   O35       1.0  0.7446739389043344  0.5794035988557482  0.41729186124394607  1.0000
  O   O36       1.0  0.24467348403636183  0.9205946651494017  0.5827046230394685  1.0000
  O   O37       1.0  0.6082147432670055  0.717291513996507  0.6415814430639415  1.0000
  O   O38       1.0  0.1082095003150769  0.7827180963802078  0.3584204201304004  1.0000
  O   O39       1.0  0.39178257540597616  0.2827084633107475  0.3584181664511732  1.0000
  O   O40       1.0  0.891780636231978  0.2172818809270467  0.6415801655468342  1.0000
