data_image0
_chemical_formula_structural       U4H8C20N8O24
_chemical_formula_sum              "U4 H8 C20 N8 O24"
_cell_length_a       6.8067265421342205
_cell_length_b       10.858445226973718
_cell_length_c       12.22148199522088
_cell_angle_alpha    72.52371569771525
_cell_angle_beta     73.84942260344782
_cell_angle_gamma    71.74922630647033

_space_group_name_H-M_alt    "P 1"
_space_group_IT_number       1

loop_
  _space_group_symop_operation_xyz
  'x, y, z'

loop_
  _atom_site_type_symbol
  _atom_site_label
  _atom_site_symmetry_multiplicity
  _atom_site_fract_x
  _atom_site_fract_y
  _atom_site_fract_z
  _atom_site_occupancy
  U   U1        1.0  0.7779469033605223  0.7682810250754741  0.49110909592106095  1.0000
  U   U2        1.0  0.03746789380366516  0.7317632008979658  0.008899442942379229  1.0000
  U   U3        1.0  0.22204884671152314  0.23171903254910117  0.5088958321760443  1.0000
  U   U4        1.0  0.9625242002064168  0.2682428391013048  0.991103993019372  1.0000
  H   H1        1.0  0.2834894853398493  0.6318343219926491  0.5673940869859277  1.0000
  H   H2        1.0  0.4832442840668566  0.8680362042850189  0.9325392947912545  1.0000
  H   H3        1.0  0.7165090971676091  0.3681587044671204  0.4326045896484842  1.0000
  H   H4        1.0  0.5167510808781158  0.1319698148049895  0.06746087137795338  1.0000
  H   H5        1.0  0.19659155294909442  0.45936185706417393  0.7551154635633706  1.0000
  H   H6        1.0  0.4113181681740914  0.040496026600678185  0.7448568975075457  1.0000
  H   H7        1.0  0.8034049847378385  0.5406362058998724  0.24488988338774217  1.0000
  H   H8        1.0  0.5886861685882677  0.9594989527010823  0.25513482068777193  1.0000
  C   C1        1.0  0.3861694769899556  0.5797771695075795  0.6291995748543184  1.0000
  C   C2        1.0  0.5955305935596087  0.9202397423619783  0.8708002664331074  1.0000
  C   C3        1.0  0.6138305620870668  0.4202178668880021  0.3708010245423309  1.0000
  C   C4        1.0  0.4044679305252997  0.07976326222108548  0.1291970226512403  1.0000
  C   C5        1.0  0.49637567253758175  0.4434630005392676  0.7875586922151282  1.0000
  C   C6        1.0  0.7274964022812752  0.056671760903398614  0.7125226575781268  1.0000
  C   C7        1.0  0.5036266194042511  0.5565370152667767  0.21243969629688306  1.0000
  C   C8        1.0  0.27251031189895497  0.943323252569371  0.2874743257245029  1.0000
  C   C9        1.0  0.47310763945046813  0.34643599464823177  0.9004262777926466  1.0000
  C   C10       1.0  0.7201034224162512  0.15362358404964738  0.5996145060693008  1.0000
  C   C11       1.0  0.5268898063266931  0.6535680313881327  0.09957454280390012  1.0000
  C   C12       1.0  0.27990194698938364  0.8463724130849851  0.40038016176340097  1.0000
  C   C13       1.0  0.6405396979785533  0.5192525533350718  0.7243360742577633  1.0000
  C   C14       1.0  0.8842405204159934  0.9809993479130553  0.775750053417269  1.0000
  C   C15       1.0  0.35946662239423  0.48074345746796593  0.275660699617859  1.0000
  C   C16       1.0  0.11576467009174962  0.018998669612031397  0.22424817207394904  1.0000
  C   C17       1.0  0.8422684462909944  0.5284385228009826  0.7374094878213239  1.0000
  C   C18       1.0  0.10814519607997423  0.9717899533435808  0.762728925945147  1.0000
  C   C19       1.0  0.1577333916057312  0.47155851146889927  0.26259116386797376  1.0000
  C   C20       1.0  0.8918560476729454  0.028213073348972304  0.23727175777690945  1.0000
  N   N1        1.0  0.5685612279776254  0.603514225897321  0.626530751243912  1.0000
  N   N2        1.0  0.7988675664845387  0.8966502493651374  0.8735267488886505  1.0000
  N   N3        1.0  0.4314396288331109  0.39648080527094715  0.3734690307046049  1.0000
  N   N4        1.0  0.20112979761649535  0.10335277250676712  0.12647322811343997  1.0000
  N   N5        1.0  0.34075324486288844  0.4839374506782619  0.7240233829007817  1.0000
  N   N6        1.0  0.5489588141396595  0.016033181872721496  0.7760033755374635  1.0000
  N   N7        1.0  0.6592469060090947  0.5160605793150024  0.2759768237881842  1.0000
  N   N8        1.0  0.4510429206424719  0.9839658229346495  0.2239931163586277  1.0000
  O   O1        1.0  0.6526220614807272  0.8871714079711804  0.5805078981706799  1.0000
  O   O2        1.0  0.1199178979654719  0.613136995894493  0.9192804036649985  1.0000
  O   O3        1.0  0.347380830497741  0.1128236694296163  0.4194990193547382  1.0000
  O   O4        1.0  0.8800684805889106  0.3868740448311598  0.0807242019328172  1.0000
  O   O5        1.0  0.9051907113779621  0.6472054466725152  0.40354275654823357  1.0000
  O   O6        1.0  0.9563598568581712  0.8526609224544257  0.09663227617383545  1.0000
  O   O7        1.0  0.09480116772255787  0.3527995702665692  0.5964569123280014  1.0000
  O   O8        1.0  0.0436303497908101  0.14735110836063817  0.9033709562473572  1.0000
  O   O9        1.0  0.6133629912136414  0.31080112592591286  0.9620830104314634  1.0000
  O   O10       1.0  0.8863377303784572  0.18926886583111718  0.5379978654072487  1.0000
  O   O11       1.0  0.38664129301898936  0.6892048855165811  0.03791588125996978  1.0000
  O   O12       1.0  0.1136758505609662  0.8107161654912717  0.46199981284247105  1.0000
  O   O13       1.0  0.30782107878491866  0.30261182600253267  0.9304262566482817  1.0000
  O   O14       1.0  0.5410821829471218  0.19739952212366768  0.5695160097720658  1.0000
  O   O15       1.0  0.6921680194374885  0.6973992368326165  0.06958174358724989  1.0000
  O   O16       1.0  0.45892245040091945  0.8025974844027457  0.43048031910322476  1.0000
  O   O17       1.0  0.9354363420677104  0.4490267836230898  0.8187986701626071  1.0000
  O   O18       1.0  0.20348747687287977  0.05101144943399309  0.681272860965471  1.0000
  O   O19       1.0  0.06456591975528875  0.5509712427497461  0.1812009546515511  1.0000
  O   O20       1.0  0.7965149483023811  0.9489885852677699  0.31872845103760744  1.0000
  O   O21       1.0  0.9184216191381648  0.6199244283404967  0.660446388034806  1.0000
  O   O22       1.0  0.19867917623614761  0.8803886186900842  0.8398021084451411  1.0000
  O   O23       1.0  0.08157774411892398  0.38007559631329  0.33955339980015237  1.0000
  O   O24       1.0  0.8013203503732028  0.11961341429263678  0.16019936657873046  1.0000
