data_image0
_chemical_formula_structural       Cu4H24C28N16O20
_chemical_formula_sum              "Cu4 H24 C28 N16 O20"
_cell_length_a       7.253927364606092
_cell_length_b       8.212412136515633
_cell_length_c       15.905649690035267
_cell_angle_alpha    90.00024035662382
_cell_angle_beta     89.99995305114894
_cell_angle_gamma    105.36360257376528

_space_group_name_H-M_alt    "P 1"
_space_group_IT_number       1

loop_
  _space_group_symop_operation_xyz
  'x, y, z'

loop_
  _atom_site_type_symbol
  _atom_site_label
  _atom_site_symmetry_multiplicity
  _atom_site_fract_x
  _atom_site_fract_y
  _atom_site_fract_z
  _atom_site_occupancy
  Cu  Cu1       1.0  0.2976458186484692  0.19997728263575004  0.9218707096776697  1.0000
  Cu  Cu2       1.0  0.7976705693741903  0.19998373643564807  0.5781286072787353  1.0000
  Cu  Cu3       1.0  0.7023102369291294  0.8000047321350012  0.0781289495515551  1.0000
  Cu  Cu4       1.0  0.20232845606000882  0.8000169984349412  0.4218704232553917  1.0000
  H   H1        1.0  0.3262901678418118  0.8832749846889741  0.8525633658503222  1.0000
  H   H2        1.0  0.8262851168138069  0.8832746006580906  0.6474342747360424  1.0000
  H   H3        1.0  0.6737173269434961  0.11672190446054032  0.1474356646780919  1.0000
  H   H4        1.0  0.17372078899319382  0.11672609321463061  0.3525672706264586  1.0000
  H   H5        1.0  0.5143313041846369  0.9368299834564343  0.9092960607044842  1.0000
  H   H6        1.0  0.014331840005773753  0.9368320170098914  0.5907043254261379  1.0000
  H   H7        1.0  0.4856706863031022  0.0631669384997195  0.0907029698249744  1.0000
  H   H8        1.0  0.9856730774502508  0.0631699478369185  0.40929784864534463  1.0000
  H   H9        1.0  0.7384123637692637  0.818948449346813  0.8110157191752234  1.0000
  H   H10       1.0  0.23841924466843523  0.8189537906599398  0.688983072080738  1.0000
  H   H11       1.0  0.26159001444252544  0.18104973538959268  0.18898582618521687  1.0000
  H   H12       1.0  0.761591952531383  0.1810506669172582  0.3110184732848609  1.0000
  H   H13       1.0  0.5304814408935101  0.612149328806325  0.5787923884909956  1.0000
  H   H14       1.0  0.030486887191322927  0.6121604006586169  0.9212091756593066  1.0000
  H   H15       1.0  0.4695248526369156  0.3878526278388179  0.421209785580224  1.0000
  H   H16       1.0  0.9695158406577988  0.38784790264487173  0.07879362712684918  1.0000
  H   H17       1.0  0.22595721459857288  0.28737123922256563  0.6096911770140493  1.0000
  H   H18       1.0  0.7259556397174337  0.28737917496961524  0.8903077266446642  1.0000
  H   H19       1.0  0.7740455513351777  0.7126282082680079  0.3903065961031587  1.0000
  H   H20       1.0  0.2740417967382457  0.7126253646215732  0.1096931900161309  1.0000
  H   H21       1.0  0.13460817596148192  0.10050337503894011  0.7378800340151486  1.0000
  H   H22       1.0  0.6346212649584615  0.10050889473606622  0.7621191278636061  1.0000
  H   H23       1.0  0.8653849574508854  0.8994961298554431  0.2621158529816299  1.0000
  H   H24       1.0  0.36538718009278176  0.8994955792470521  0.23788304620994435  1.0000
  C   C1        1.0  0.4112539875652104  0.5350740783707906  0.0050439937845823  1.0000
  C   C2        1.0  0.9112879105477916  0.5350725501373786  0.4949528429825776  1.0000
  C   C3        1.0  0.5886768347747875  0.46492453281023677  0.9949474922707535  1.0000
  C   C4        1.0  0.08871506829133582  0.4649231008499016  0.5050468162527437  1.0000
  C   C5        1.0  0.0604722895767793  0.002039596265092301  0.0395984992899514  1.0000
  C   C6        1.0  0.5604574644421022  0.0020317464710330993  0.4603960565011106  1.0000
  C   C7        1.0  0.9395634640536059  0.9979685101464073  0.960391729341488  1.0000
  C   C8        1.0  0.4395551469184013  0.9979638471124518  0.5396054888546473  1.0000
  C   C9        1.0  0.6460666319659581  0.7126158319271881  0.7771905332306159  1.0000
  C   C10       1.0  0.14607215927753006  0.7126214619593229  0.7228099482009398  1.0000
  C   C11       1.0  0.35393437017164325  0.28738236101348497  0.22281164083750576  1.0000
  C   C12       1.0  0.8539362857737133  0.28738301202379557  0.2771922258726036  1.0000
  C   C13       1.0  0.440694464027068  0.4552118521288264  0.7786551810065985  1.0000
  C   C14       1.0  0.9407027970677576  0.45521959204199913  0.7213477787843345  1.0000
  C   C15       1.0  0.5593053749417364  0.544782552512814  0.22134950788732508  1.0000
  C   C16       1.0  0.05930289583469769  0.5447848983444387  0.2786543952897346  1.0000
  C   C17       1.0  0.4240305783857823  0.4606102269949873  0.6899125086948743  1.0000
  C   C18       1.0  0.9240344544742242  0.46061746468134146  0.8100904689082781  1.0000
  C   C19       1.0  0.5759753274216379  0.5393904668829491  0.3100902940824709  1.0000
  C   C20       1.0  0.0759702500770487  0.5393882966765844  0.18991170516735417  1.0000
  C   C21       1.0  0.5322245474469368  0.6010343441678001  0.6470523982918193  1.0000
  C   C22       1.0  0.03222465697398753  0.6010410862365206  0.8529485124678117  1.0000
  C   C23       1.0  0.4677827344344578  0.3989663415032539  0.3529491470704258  1.0000
  C   C24       1.0  0.9677776831517093  0.398965954294532  0.1470536616096325  1.0000
  C   C25       1.0  0.24072353208440944  0.2219183083801824  0.7386440252786526  1.0000
  C   C26       1.0  0.7407334807019977  0.22192257538121402  0.7613566175075235  1.0000
  C   C27       1.0  0.7592748927222387  0.7780849602369245  0.26135626267316775  1.0000
  C   C28       1.0  0.25927259992366913  0.7780831777750451  0.23864555656783887  1.0000
  N   N1        1.0  0.6441928288291551  0.7267398891813671  0.6924627932226598  1.0000
  N   N2        1.0  0.14419978854002116  0.7267462136517012  0.8075370907371562  1.0000
  N   N3        1.0  0.3558107125524828  0.2732620838670954  0.30753938084908566  1.0000
  N   N4        1.0  0.8558062920852265  0.27325953949934256  0.1924638259233689  1.0000
  N   N5        1.0  0.5501171280407746  0.5820015608235568  0.8236116508203961  1.0000
  N   N6        1.0  0.050125376641744976  0.5820067894888725  0.6763898408929163  1.0000
  N   N7        1.0  0.4498828857460708  0.4179979030938058  0.17639178066413308  1.0000
  N   N8        1.0  0.9498816923351046  0.41799769269590575  0.3236123331808898  1.0000
  N   N9        1.0  0.29555613756387084  0.31140813633930264  0.6674260213903052  1.0000
  N   N10       1.0  0.7955623930256834  0.311414281322719  0.8325747947370984  1.0000
  N   N11       1.0  0.7044438762217169  0.6885913275624136  0.3325736378496913  1.0000
  N   N12       1.0  0.20444192380217174  0.6885902172627781  0.1674267506298079  1.0000
  N   N13       1.0  0.3262231314581854  0.3024159131305452  0.8072235020878151  1.0000
  N   N14       1.0  0.8262308448790279  0.30242594986575  0.6927785407169862  1.0000
  N   N15       1.0  0.6737751566175518  0.6975734404292169  0.1927805580935171  1.0000
  N   N16       1.0  0.17377583637398428  0.6975772695413908  0.30722174723326384  1.0000
  O   O1        1.0  0.2499722967477922  0.4468183259182865  0.9840859856545447  1.0000
  O   O2        1.0  0.750005087743531  0.44681915529746863  0.5159176549221343  1.0000
  O   O3        1.0  0.749965444054027  0.5531713885067049  0.0159161884160639  1.0000
  O   O4        1.0  0.2500010309686402  0.5531777420693514  0.4840851478510685  1.0000
  O   O5        1.0  0.4416017333168085  0.6861893880868379  0.034974397095488996  1.0000
  O   O6        1.0  0.9416456566455621  0.6861888169913684  0.46502024047037327  1.0000
  O   O7        1.0  0.558312789032307  0.3138055249664973  0.9650082870549566  1.0000
  O   O8        1.0  0.0583540075039437  0.313800528358911  0.5349819335884263  1.0000
  O   O9        1.0  0.2351135617614659  0.0828304303343756  0.03530762634022009  1.0000
  O   O10       1.0  0.7351107364256322  0.08282127953997083  0.4646870398479023  1.0000
  O   O11       1.0  0.7649005623995395  0.9171790700448313  0.9646756865150791  1.0000
  O   O12       1.0  0.2648957700097512  0.9171768805966639  0.5353157629265936  1.0000
  O   O13       1.0  0.9780035520547444  0.9249848492560845  0.10374697521972108  1.0000
  O   O14       1.0  0.47798859163778934  0.924983184874762  0.3962525663267797  1.0000
  O   O15       1.0  0.022035767259858098  0.0750169105335701  0.8962514266006776  1.0000
  O   O16       1.0  0.5220271595940886  0.0750136550674014  0.6037470929074829  1.0000
  O   O17       1.0  0.43327387172958254  0.981593299368207  0.8714686846195716  1.0000
  O   O18       1.0  0.9332678197826283  0.9815940295287863  0.6285291291923514  1.0000
  O   O19       1.0  0.5667363752034689  0.018403573364949504  0.1285272023712096  1.0000
  O   O20       1.0  0.0667370976731974  0.018407935315416103  0.3714724161717129  1.0000
