data_image0
_chemical_formula_structural       Ho2H28C24N6O20
_chemical_formula_sum              "Ho2 H28 C24 N6 O20"
_cell_length_a       7.799593263045855
_cell_length_b       10.624632615041872
_cell_length_c       12.014370183743969
_cell_angle_alpha    64.28809942544372
_cell_angle_beta     69.16119221497176
_cell_angle_gamma    71.72983531106917

_space_group_name_H-M_alt    "P 1"
_space_group_IT_number       1

loop_
  _space_group_symop_operation_xyz
  'x, y, z'

loop_
  _atom_site_type_symbol
  _atom_site_label
  _atom_site_symmetry_multiplicity
  _atom_site_fract_x
  _atom_site_fract_y
  _atom_site_fract_z
  _atom_site_occupancy
  Ho  Ho1       1.0  0.23548802946727676  0.047957935950769595  0.4967374506651651  1.0000
  Ho  Ho2       1.0  0.7645191176376825  0.952042526196344  0.5032576806344905  1.0000
  H   H1        1.0  0.997392632726914  0.3888030037091069  0.7136041313365237  1.0000
  H   H2        1.0  0.0026084345405905985  0.6111932509547771  0.28640562302614103  1.0000
  H   H3        1.0  0.8553909542743909  0.5602194365857117  0.6753334007678545  1.0000
  H   H4        1.0  0.14461077848997655  0.43977999710664756  0.3246716565405308  1.0000
  H   H5        1.0  0.8011718912482523  0.4727669906957245  0.30705531300321115  1.0000
  H   H6        1.0  0.19883143730142191  0.5272313810517915  0.6929514604179374  1.0000
  H   H7        1.0  0.6221092861335861  0.45604209910824517  0.45039695317036893  1.0000
  H   H8        1.0  0.3778945999697924  0.5439541402561829  0.5496088487385931  1.0000
  H   H9        1.0  0.2728360013340847  0.4972441238921873  0.9192373003609686  1.0000
  H   H10       1.0  0.7271520023922519  0.5027616949012739  0.0807600464748149  1.0000
  H   H11       1.0  0.4962355894766191  0.5095254102909265  0.8084142726840682  1.0000
  H   H12       1.0  0.5037559400428719  0.49047721128344085  0.1915835137637315  1.0000
  H   H13       1.0  0.7785656196552677  0.2386571841902949  0.18398952140444894  1.0000
  H   H14       1.0  0.22142930178746661  0.7613486130095168  0.8160037936310757  1.0000
  H   H15       1.0  0.6986938204934247  0.1528932208857227  0.11924154918091298  1.0000
  H   H16       1.0  0.301296891177401  0.8471125968839956  0.8807568589160153  1.0000
  H   H17       1.0  0.35526161838269116  0.9302716335621638  0.12699766692993117  1.0000
  H   H18       1.0  0.6447411880286822  0.0697298963121042  0.8729963582340969  1.0000
  H   H19       1.0  0.2940359754942321  0.11922332784681089  0.0698985823225158  1.0000
  H   H20       1.0  0.7059670542483047  0.8807771429737766  0.9300974639428432  1.0000
  H   H21       1.0  0.18956962858425186  0.7971386430807427  0.10121346245829703  1.0000
  H   H22       1.0  0.8104280792271863  0.20286078738865135  0.8987883317200768  1.0000
  H   H23       1.0  0.9831674682027797  0.8532211945284301  0.2041013459870059  1.0000
  H   H24       1.0  0.016828123233437995  0.1467814255103264  0.7958980323525182  1.0000
  H   H25       1.0  0.31001846950007916  0.166752831150653  0.645318620544387  1.0000
  H   H26       1.0  0.6899809265061518  0.8332455254774656  0.3546807116510492  1.0000
  H   H27       1.0  0.41976909477781976  0.24348141894256506  0.5088620988004137  1.0000
  H   H28       1.0  0.580232488582986  0.75651906428633  0.49113759493007353  1.0000
  C   C1        1.0  0.8377098554515994  0.43623781378668985  0.5843279147954235  1.0000
  C   C2        1.0  0.16229449579599733  0.5637563050910824  0.41568109369705997  1.0000
  C   C3        1.0  0.9520195659061128  0.48144487709268463  0.6340495952902713  1.0000
  C   C4        1.0  0.04798344985113798  0.5185492399176681  0.3659580469524927  1.0000
  C   C5        1.0  0.770742129500199  0.41953584769974833  0.4117074318721095  1.0000
  C   C6        1.0  0.22926340783417487  0.580459322581973  0.5882975792921883  1.0000
  C   C7        1.0  0.8055680950141804  0.2598649268348154  0.44378191356725694  1.0000
  C   C8        1.0  0.19443593894438754  0.7401312934953167  0.556217203388577  1.0000
  C   C9        1.0  0.4170006046687575  0.5047285838290776  0.9064356743032106  1.0000
  C   C10       1.0  0.582986008121537  0.49527724023483444  0.09356281314028081  1.0000
  C   C11       1.0  0.655573232218785  0.23314364967892934  0.16317794073473382  1.0000
  C   C12       1.0  0.3444230616781  0.7668621446297195  0.8368150693122302  1.0000
  C   C13       1.0  0.5012779163630157  0.3654046581041683  0.9946824822406838  1.0000
  C   C14       1.0  0.49870754730429906  0.6346001097972119  0.005318331292699033  1.0000
  C   C15       1.0  0.5100466689196779  0.17954148062884906  0.2864635623239522  1.0000
  C   C16       1.0  0.4899517014403827  0.8204664545562963  0.7135348229729104  1.0000
  C   C17       1.0  0.23701352789270663  0.0207600953554916  0.12390033223046255  1.0000
  C   C18       1.0  0.7629927858299226  0.9792382396789774  0.876094968164722  1.0000
  C   C19       1.0  0.141632974874689  0.0140498874806596  0.2604725380821051  1.0000
  C   C20       1.0  0.8583749346332396  0.9859473856089662  0.7395244784258352  1.0000
  C   C21       1.0  0.06237501343746738  0.8796654773553668  0.10304532956164544  1.0000
  C   C22       1.0  0.9376254762460475  0.12033394257313997  0.8969541834013127  1.0000
  C   C23       1.0  0.054764843524765204  0.13475148592507938  0.966011819843672  1.0000
  C   C24       1.0  0.945237018612886  0.8652479311122722  0.03398738813072558  1.0000
  N   N1        1.0  0.886021972790786  0.4594378532228589  0.4581467840412757  1.0000
  N   N2        1.0  0.11398187634879514  0.540558390900145  0.5418606891059666  1.0000
  N   N3        1.0  0.5843598738661342  0.36818412284892327  0.07528400241887573  1.0000
  N   N4        1.0  0.41562814834210116  0.63182169356525  0.9247125087977678  1.0000
  N   N5        1.0  0.11660460814300681  0.016025172793376896  0.05811961158840259  1.0000
  N   N6        1.0  0.883397514289605  0.9839731804317182  0.9418799462490456  1.0000
  O   O1        1.0  0.7001253397202375  0.3817777900633317  0.6600040771278302  1.0000
  O   O2        1.0  0.2998857843368157  0.6182110005678041  0.3400062963447681  1.0000
  O   O3        1.0  0.9641590635818883  0.18593604678540737  0.45796500913548505  1.0000
  O   O4        1.0  0.035846416758410236  0.8140601611364175  0.542030460355214  1.0000
  O   O5        1.0  0.6750236868914711  0.2063583642159514  0.4508413315146812  1.0000
  O   O6        1.0  0.32497843554114053  0.7936399890091366  0.549158226322767  1.0000
  O   O7        1.0  0.497228094063864  0.2526386533746959  0.9887245170349104  1.0000
  O   O8        1.0  0.5027546246951644  0.7473661203090031  0.011276906475608084  1.0000
  O   O9        1.0  0.34674007015991026  0.24883450434577978  0.30787260238766834  1.0000
  O   O10       1.0  0.6532548143190268  0.7511712976126006  0.6921223838861436  1.0000
  O   O11       1.0  0.556853092633787  0.05499654011659059  0.3688541513382262  1.0000
  O   O12       1.0  0.44314683654777537  0.9450103378822873  0.6311476213096796  1.0000
  O   O13       1.0  0.2465925619178435  0.010896475262733  0.32153359255854497  1.0000
  O   O14       1.0  0.7534206510392846  0.9891018405573747  0.6784585116555205  1.0000
  O   O15       1.0  0.9668486296091954  0.0121763332580329  0.30475291772797414  1.0000
  O   O16       1.0  0.03315976352485698  0.9878188169656569  0.6952464697443544  1.0000
  O   O17       1.0  0.09184684341871466  0.2535178658971092  0.9331058890273665  1.0000
  O   O18       1.0  0.9081607873123614  0.7464804733840608  0.06689161323667046  1.0000
  O   O19       1.0  0.293613096667535  0.22097034126579723  0.559011357877459  1.0000
  O   O20       1.0  0.7063871327210192  0.7790301424749658  0.44098780522245573  1.0000
