data_image0
_chemical_formula_structural       Zn8H78C96N6O38
_chemical_formula_sum              "Zn8 H78 C96 N6 O38"
_cell_length_a       25.92172485549351
_cell_length_b       26.363850711679063
_cell_length_c       26.431945534726626
_cell_angle_alpha    61.524784532450525
_cell_angle_beta     60.91575120927605
_cell_angle_gamma    60.93067547289762

_space_group_name_H-M_alt    "P 1"
_space_group_IT_number       1

loop_
  _space_group_symop_operation_xyz
  'x, y, z'

loop_
  _atom_site_type_symbol
  _atom_site_label
  _atom_site_symmetry_multiplicity
  _atom_site_fract_x
  _atom_site_fract_y
  _atom_site_fract_z
  _atom_site_occupancy
  Zn  Zn1       1.0  0.10043916277137296  0.9558059008890821  0.9655667585662399  1.0000
  Zn  Zn2       1.0  0.9772455006142593  0.9565285149776558  0.965271158330644  1.0000
  Zn  Zn3       1.0  0.980966505102195  0.076999918860551  0.9631961186365743  1.0000
  Zn  Zn4       1.0  0.9777036765126679  0.960910371670998  0.08428840822118426  1.0000
  Zn  Zn5       1.0  0.4176385901994663  0.5154780679800339  0.5226592345592563  1.0000
  Zn  Zn6       1.0  0.5255568355680822  0.5240725959253609  0.5319688893057231  1.0000
  Zn  Zn7       1.0  0.5372581525138144  0.5195216975023768  0.40517740129146756  1.0000
  Zn  Zn8       1.0  0.5340845002949024  0.3982735575832024  0.5308967666420655  1.0000
  H   H1        1.0  0.16747206033543455  0.8815873251769515  0.8120195458906492  1.0000
  H   H2        1.0  0.08367780136088501  0.8012132833583434  0.893222122903772  1.0000
  H   H3        1.0  0.07300912900693399  0.8646974704287087  0.8282685653127612  1.0000
  H   H4        1.0  0.17513590383561697  0.8116658543377825  0.7615705151791798  1.0000
  H   H5        1.0  0.12618078077365877  0.7656974057067529  0.804523520982954  1.0000
  H   H6        1.0  0.18065101853785853  0.7066272182666892  0.8811185274286042  1.0000
  H   H7        1.0  0.27725896585246795  0.7213418002209194  0.8615210061591866  1.0000
  H   H8        1.0  0.2657891296396854  0.7852108088140853  0.7961259065009396  1.0000
  H   H9        1.0  0.22412351320122767  0.8204073154617008  0.8856088318012426  1.0000
  H   H10       1.0  0.17655218199871567  0.7732968844152807  0.9285118096877765  1.0000
  H   H11       1.0  0.2737776079693361  0.5122165340841249  0.8166251949681962  1.0000
  H   H12       1.0  0.343482256756907  0.4883059859892925  0.7175951638897541  1.0000
  H   H13       1.0  0.3722298336599221  0.6630735526850415  0.6323787864780357  1.0000
  H   H14       1.0  0.1779416542720114  0.10854778860798578  0.8978020714237115  1.0000
  H   H15       1.0  0.09179050246060427  0.19065004098501956  0.8200867320854568  1.0000
  H   H16       1.0  0.08556512926647024  0.20183636875511013  0.8835489015552296  1.0000
  H   H17       1.0  0.18935768620990245  0.21932603127280004  0.8276659791722807  1.0000
  H   H18       1.0  0.1378937468935675  0.2695768476643465  0.7846207938703028  1.0000
  H   H19       1.0  0.1859861013351178  0.19863421503217887  0.7248334561853296  1.0000
  H   H20       1.0  0.28401068843312754  0.1107648470984657  0.7349255729471195  1.0000
  H   H21       1.0  0.27590491803202616  0.12439822310017948  0.7984241750873903  1.0000
  H   H22       1.0  0.23148730815530877  0.0426682392814115  0.8339273207100247  1.0000
  H   H23       1.0  0.1825702078244262  0.09205022140271522  0.7885232244311948  1.0000
  H   H24       1.0  0.2738898260113628  0.35975438723311015  0.5270814710590342  1.0000
  H   H25       1.0  0.3466763097923006  0.4142874419900268  0.4976834453504324  1.0000
  H   H26       1.0  0.38645402379795957  0.3033708622055542  0.666701890257457  1.0000
  H   H27       1.0  0.16764924227707206  0.7932535881257864  0.11891399573519833  1.0000
  H   H28       1.0  0.08535393403678883  0.8697906570761517  0.20618474689425892  1.0000
  H   H29       1.0  0.0757190908653556  0.8052753852324911  0.21228869880879853  1.0000
  H   H30       1.0  0.1786252184817556  0.7383468062376508  0.23053023288797192  1.0000
  H   H31       1.0  0.12918206411601568  0.7798906509863102  0.28341740147291  1.0000
  H   H32       1.0  0.18116635054318656  0.8589586646457192  0.21747964642685255  1.0000
  H   H33       1.0  0.2796678853850948  0.8389414669771895  0.13000276488371293  1.0000
  H   H34       1.0  0.2677247820429399  0.7739320072965867  0.1389346922918265  1.0000
  H   H35       1.0  0.22607444955464465  0.8647870911452811  0.058512271013029256  1.0000
  H   H36       1.0  0.17951514015284428  0.9071768767130023  0.11041572612487735  1.0000
  H   H37       1.0  0.2708143485839472  0.8043291456437842  0.3821207867475849  1.0000
  H   H38       1.0  0.34706240279834316  0.7101511431702221  0.43061275382920167  1.0000
  H   H39       1.0  0.3848131653967142  0.6200140133514224  0.3100362718790067  1.0000
  H   H40       1.0  0.9155975213317474  0.10873207056483382  0.80331502908205  1.0000
  H   H41       1.0  0.8342516725042441  0.19582522648938996  0.8799745455005096  1.0000
  H   H42       1.0  0.9012707735112497  0.20288737365471118  0.8154123051614091  1.0000
  H   H43       1.0  0.8470417138122954  0.21916893183478683  0.7491053295067829  1.0000
  H   H44       1.0  0.8018994331453441  0.2723450243007051  0.7904387884699347  1.0000
  H   H45       1.0  0.7386516166181138  0.2046483295302295  0.8696595434856815  1.0000
  H   H46       1.0  0.7487810659597756  0.11611720295802289  0.8495085707324747  1.0000
  H   H47       1.0  0.8157008524925896  0.12618899817890392  0.7845050915739122  1.0000
  H   H48       1.0  0.848035505185095  0.046366872613162996  0.8751222424449452  1.0000
  H   H49       1.0  0.8002176562509289  0.098374675529783  0.9173344198174223  1.0000
  H   H50       1.0  0.5425277032213742  0.3738801404387288  0.8127265578912103  1.0000
  H   H51       1.0  0.5131427944940511  0.4249914049470077  0.7174446803026411  1.0000
  H   H52       1.0  0.6818572975965083  0.30132511500740117  0.6290889754671625  1.0000
  H   H53       1.0  0.8147465839622894  0.8915607591317495  0.11999714189003198  1.0000
  H   H54       1.0  0.8919293378188158  0.819243516287095  0.20621127988026425  1.0000
  H   H55       1.0  0.8250164188812334  0.8846271344832103  0.2122366537659559  1.0000
  H   H56       1.0  0.7589290311914352  0.8284651049945353  0.23128464885319733  1.0000
  H   H57       1.0  0.799948107889925  0.7879719818923547  0.28423202755302407  1.0000
  H   H58       1.0  0.8822265319593826  0.7213569236883542  0.2205509262067764  1.0000
  H   H59       1.0  0.867130372240119  0.7256060411520053  0.13221329702778933  1.0000
  H   H60       1.0  0.7996593665199824  0.7913400225218152  0.1397451021293749  1.0000
  H   H61       1.0  0.8927100286543705  0.8222597673989891  0.05988253448909857  1.0000
  H   H62       1.0  0.933892151531758  0.7800585732284444  0.11257561577838274  1.0000
  H   H63       1.0  0.8147113503774289  0.5343260248038321  0.392746335572916  1.0000
  H   H64       1.0  0.7154458207158567  0.5089747495253293  0.44204200999268267  1.0000
  H   H65       1.0  0.6338465762936135  0.6710285700493728  0.31295149081140045  1.0000
  H   H66       1.0  0.9118092693814077  0.151420004933712  0.11881309709883693  1.0000
  H   H67       1.0  0.824641656364868  0.0746090491053906  0.19926282315230992  1.0000
  H   H68       1.0  0.8914059025076851  0.06316162296128881  0.2107496260273296  1.0000
  H   H69       1.0  0.8415418127461434  0.1646790304203165  0.22835984369103818  1.0000
  H   H70       1.0  0.7922443540244117  0.1192165380990815  0.27821732666745885  1.0000
  H   H71       1.0  0.7315616939057888  0.17191196623963378  0.20736413828274167  1.0000
  H   H72       1.0  0.7491747666365284  0.26466077479032174  0.11962179797983198  1.0000
  H   H73       1.0  0.8159402751831237  0.2514487269608736  0.13324514132618503  1.0000
  H   H74       1.0  0.8481037510330652  0.20843959504945525  0.051826412108560746  1.0000
  H   H75       1.0  0.7970936072984215  0.1651372863309604  0.10092915420206343  1.0000
  H   H76       1.0  0.536309068890958  0.26546772092482473  0.37102898958430336  1.0000
  H   H77       1.0  0.5136731167401435  0.3353710749345283  0.4243848357240765  1.0000
  H   H78       1.0  0.6920162685108692  0.3638603823297828  0.30866586203039503  1.0000
  C   C1        1.0  0.10374073472692658  0.8928410881761053  0.8974789500090735  1.0000
  C   C2        1.0  0.14516090948277577  0.8524320552243553  0.8566367630314811  1.0000
  C   C3        1.0  0.10891491802742345  0.8270376730462913  0.8481059220509337  1.0000
  C   C4        1.0  0.1527063436301006  0.7854473980249351  0.8080902451915364  1.0000
  C   C5        1.0  0.2034981694450693  0.7338622897674085  0.8354002729592763  1.0000
  C   C6        1.0  0.24140378327568598  0.7592940333900486  0.8416530237325902  1.0000
  C   C7        1.0  0.19783246008066854  0.8005992309630018  0.8819398595562404  1.0000
  C   C8        1.0  0.24020547745979565  0.6304901807815071  0.8262683068072506  1.0000
  C   C9        1.0  0.2826367990116053  0.6018601135142916  0.7769692317873478  1.0000
  C   C10       1.0  0.29492298535029704  0.5447133402665401  0.7762975389630211  1.0000
  C   C11       1.0  0.3339530095184599  0.5315507814526583  0.721558980917102  1.0000
  C   C12       1.0  0.3616600716775195  0.5736779222375432  0.67031059035439  1.0000
  C   C13       1.0  0.35055784714808874  0.6306356585519098  0.6721553211928963  1.0000
  C   C14       1.0  0.3093879569377123  0.6442039061468492  0.725850207821324  1.0000
  C   C15       1.0  0.283621953893224  0.7018344650179031  0.7407305476654288  1.0000
  C   C16       1.0  0.4018990382712885  0.5573432840808438  0.6129055901552788  1.0000
  C   C17       1.0  0.11101060330835821  0.07807752607040189  0.9069052802763334  1.0000
  C   C18       1.0  0.15444953838602524  0.11604970579632118  0.8682041070863631  1.0000
  C   C19       1.0  0.11944962071893168  0.18442318364827764  0.84493389861597  1.0000
  C   C20       1.0  0.16428751224454163  0.22123236831781412  0.802716802751817  1.0000
  C   C21       1.0  0.2118373046727554  0.19552046185994956  0.749796852437427  1.0000
  C   C22       1.0  0.24969774593654376  0.12827733312121842  0.7734627378126785  1.0000
  C   C23       1.0  0.20545471196553675  0.09082372043490489  0.815238617866889  1.0000
  C   C24       1.0  0.24457707908852194  0.2689617511137214  0.6459434187591738  1.0000
  C   C25       1.0  0.2882550912745215  0.30439385624543286  0.6141924547812323  1.0000
  C   C26       1.0  0.2982280377286272  0.3481435611820203  0.5570797771470594  1.0000
  C   C27       1.0  0.3390357610879704  0.3776935764906923  0.5408051549449766  1.0000
  C   C28       1.0  0.3706299405048199  0.3616170412699802  0.5798074509399739  1.0000
  C   C29       1.0  0.3618989929931543  0.3156319414542351  0.6366402969148126  1.0000
  C   C30       1.0  0.31903214490301207  0.2886870719608653  0.6534027201937818  1.0000
  C   C31       1.0  0.29488915669857363  0.2432977693267731  0.7120168868704649  1.0000
  C   C32       1.0  0.4108042070594776  0.3974429064998261  0.5609981395212172  1.0000
  C   C33       1.0  0.10435693013306482  0.8810932632521187  0.09013493665285927  1.0000
  C   C34       1.0  0.14646928059912767  0.8367040853817045  0.1289326320727256  1.0000
  C   C35       1.0  0.11116718392221249  0.8254597363131496  0.19748641344549617  1.0000
  C   C36       1.0  0.1555694688727057  0.7845845788488077  0.23479863879174462  1.0000
  C   C37       1.0  0.2053664691673091  0.8129820712499907  0.2123500046759119  1.0000
  C   C38       1.0  0.24358560778393482  0.8194179743011816  0.1449576632117911  1.0000
  C   C39       1.0  0.2000540296677896  0.8607124725542263  0.10693523454125389  1.0000
  C   C40       1.0  0.23900245306055018  0.8076923528120828  0.2891941463904644  1.0000
  C   C41       1.0  0.2841150505711524  0.7617329163006303  0.32230967132146304  1.0000
  C   C42       1.0  0.29543034363129533  0.7640120919362446  0.3672451412655349  1.0000
  C   C43       1.0  0.3381404274304671  0.7120375947983247  0.39339749125728213  1.0000
  C   C44       1.0  0.37029557538957647  0.6608786517131691  0.3727523522262289  1.0000
  C   C45       1.0  0.35995948551838086  0.6598064343176588  0.32580147778133284  1.0000
  C   C46       1.0  0.3150841671903135  0.7105903345992959  0.3023536166963368  1.0000
  C   C47       1.0  0.2891125936140213  0.7219892283276366  0.256759583876118  1.0000
  C   C48       1.0  0.41255306334571173  0.6059299930927508  0.4054819464569234  1.0000
  C   C49       1.0  0.9214615370830046  0.08057255767725739  0.8903256850406079  1.0000
  C   C50       1.0  0.883832689511081  0.11835726036729712  0.8468701820797192  1.0000
  C   C51       1.0  0.86110685653329  0.1871917889621315  0.8357001306527677  1.0000
  C   C52       1.0  0.8199672586298092  0.22349336957983462  0.7952012401942453  1.0000
  C   C53       1.0  0.7651699178666787  0.19974425016426514  0.8237105872915077  1.0000
  C   C54       1.0  0.7886923016455683  0.13208020178250018  0.8299284720065072  1.0000
  C   C55       1.0  0.8292522257854811  0.0949942961460977  0.8709753805114248  1.0000
  C   C56       1.0  0.6610119922645552  0.2773259777617767  0.8180137737674044  1.0000
  C   C57       1.0  0.6295182050341095  0.3122075697214655  0.7712169902831577  1.0000
  C   C58       1.0  0.5724858110099688  0.35886885825205894  0.7725625497657301  1.0000
  C   C59       1.0  0.5562523942801432  0.3865694529749034  0.7199221646455738  1.0000
  C   C60       1.0  0.5949769260346898  0.3657802958633809  0.6689371206180821  1.0000
  C   C61       1.0  0.6518816984021713  0.31726153304335003  0.6687003053791256  1.0000
  C   C62       1.0  0.6689172743659739  0.292260627425506  0.7201677330165663  1.0000
  C   C63       1.0  0.7279163064370024  0.24493197249022097  0.7324601690482236  1.0000
  C   C64       1.0  0.5743378242639706  0.39893244038869125  0.6142021634665723  1.0000
  C   C65       1.0  0.9020339640706254  0.9017340113006328  0.09001912929645778  1.0000
  C   C66       1.0  0.8593613659832258  0.8628979648344384  0.12942957827431206  1.0000
  C   C67       1.0  0.8468591262920382  0.8439408929490142  0.1977868610407398  1.0000
  C   C68       1.0  0.8058625884437799  0.8030753288714294  0.2356632229245647  1.0000
  C   C69       1.0  0.8360911946481477  0.7471131528967946  0.21423942442279315  1.0000
  C   C70       1.0  0.8454419670628537  0.7663693461376297  0.1465973458353036  1.0000
  C   C71       1.0  0.8868278373821848  0.8067949451005703  0.10838717267724016  1.0000
  C   C72       1.0  0.82596318148412  0.6473856561695825  0.2941648306839611  1.0000
  C   C73       1.0  0.7766293562206811  0.6182017100915047  0.3285254787690165  1.0000
  C   C74       1.0  0.7750912643195986  0.56391317873247  0.37620537405532434  1.0000
  C   C75       1.0  0.7201494273850813  0.5498475536185624  0.4029404604094962  1.0000
  C   C76       1.0  0.6699688276915621  0.5877500154079415  0.3802163469042482  1.0000
  C   C77       1.0  0.6727693048794521  0.641622064625814  0.3305679944958085  1.0000
  C   C78       1.0  0.7263057107443129  0.6566822333613588  0.3065916991318857  1.0000
  C   C79       1.0  0.74152917077226  0.7126929597404654  0.2584782076758359  1.0000
  C   C80       1.0  0.6126285970194231  0.5695736993440406  0.41226895661358753  1.0000
  C   C81       1.0  0.9179928751709526  0.08823609072124582  0.08711395077154542  1.0000
  C   C82       1.0  0.8792327832558866  0.1314972186371861  0.1252154150014919  1.0000
  C   C83       1.0  0.8530643026076701  0.0986416172072211  0.19332874577600742  1.0000
  C   C84       1.0  0.8128767514272396  0.1434992828660384  0.23003757638925032  1.0000
  C   C85       1.0  0.7605973077614505  0.19373825483607024  0.2041393519257185  1.0000
  C   C86       1.0  0.7874724988976283  0.22875674716520675  0.13708004781528882  1.0000
  C   C87       1.0  0.8271954593654911  0.1844389787373898  0.09983604310992432  1.0000
  C   C88       1.0  0.6559973990779966  0.2313202153530156  0.2783593523136004  1.0000
  C   C89       1.0  0.6276460742991787  0.27418547020874223  0.31350699852233543  1.0000
  C   C90       1.0  0.5698015573482137  0.28668734291440495  0.35827182576579736  1.0000
  C   C91       1.0  0.5573584241422864  0.3260263243916767  0.3871360902492497  1.0000
  C   C92       1.0  0.600640886684445  0.35390062133937755  0.36927131468397795  1.0000
  C   C93       1.0  0.658269990057633  0.3424920321303304  0.3224720431187506  1.0000
  C   C94       1.0  0.6712890848859416  0.3009348514389032  0.29636305211147346  1.0000
  C   C95       1.0  0.7297454521239854  0.274489934920176  0.25060248222456494  1.0000
  C   C96       1.0  0.5839798845252204  0.39397937955205015  0.4040619834658656  1.0000
  N   N1        1.0  0.2430197301222278  0.6900283173207243  0.8014377546362182  1.0000
  N   N2        1.0  0.25107784558225177  0.23343896343971693  0.7039343514411839  1.0000
  N   N3        1.0  0.24442386333776503  0.780981497300111  0.250958721016289  1.0000
  N   N4        1.0  0.7193880404218758  0.2380709368701091  0.7918766563790598  1.0000
  N   N5        1.0  0.8019171158331773  0.7035436256001333  0.25314180488499743  1.0000
  N   N6        1.0  0.7168403058891712  0.23378796764521334  0.24181635627886044  1.0000
  O   O1        1.0  0.008560895491108068  0.9876559730446887  0.9951171859457588  1.0000
  O   O2        1.0  0.0465358100832631  0.8958678531038871  0.9250556565475417  1.0000
  O   O3        1.0  0.13033518596877502  0.9201703731425539  0.901512241712581  1.0000
  O   O4        1.0  0.20824870227106362  0.6085856674505764  0.8779457545020577  1.0000
  O   O5        1.0  0.2939617096390704  0.7501295429498923  0.7077245174667155  1.0000
  O   O6        1.0  0.44846378249695107  0.5766853330467967  0.5779647060393883  1.0000
  O   O7        1.0  0.38618542468445577  0.5244485679070295  0.6032611152799416  1.0000
  O   O8        1.0  0.05356040319429669  0.10553791003489718  0.9111506362628743  1.0000
  O   O9        1.0  0.1361195745455603  0.021020356857143  0.9313689236730337  1.0000
  O   O10       1.0  0.20910764308401747  0.2698112088873473  0.6273166331369847  1.0000
  O   O11       1.0  0.30869391095173165  0.21967596774511833  0.7583638380171888  1.0000
  O   O12       1.0  0.4581857681344276  0.3713936088311484  0.5785505044887456  1.0000
  O   O13       1.0  0.3930448008839845  0.45330341043458583  0.5282308536757582  1.0000
  O   O14       1.0  0.04715352755670911  0.9068518253817077  0.11712721090360378  1.0000
  O   O15       1.0  0.1306530135807266  0.8898201427046714  0.03276556495893611  1.0000
  O   O16       1.0  0.2034342950989652  0.8585296722813924  0.2933048595170932  1.0000
  O   O17       1.0  0.30227935706034254  0.6877548707372583  0.23014691687815514  1.0000
  O   O18       1.0  0.46475735128639434  0.5754649666571864  0.37494733768846095  1.0000
  O   O19       1.0  0.3911964886065674  0.594280351502853  0.4633944099246677  1.0000
  O   O20       1.0  0.9294166928674485  0.10891666291074388  0.912441510674249  1.0000
  O   O21       1.0  0.9414496695268966  0.022750258641735896  0.9017658242873446  1.0000
  O   O22       1.0  0.6419855951543311  0.28103641899075166  0.8689431672727183  1.0000
  O   O23       1.0  0.7748839626570713  0.2179477715246136  0.6985105108224657  1.0000
  O   O24       1.0  0.5817463843073936  0.36741758349436526  0.5849530081520767  1.0000
  O   O25       1.0  0.5501026370251338  0.4567614033810584  0.6021802299825723  1.0000
  O   O26       1.0  0.9225628659447549  0.9133439851447488  0.1170314639104861  1.0000
  O   O27       1.0  0.9142353526385631  0.9191630444365798  0.032442678348921845  1.0000
  O   O28       1.0  0.8771440626556881  0.6283450015872702  0.29946374987228097  1.0000
  O   O29       1.0  0.708805419820756  0.7581287837950723  0.22986198135107822  1.0000
  O   O30       1.0  0.5893892421917852  0.5685590301776459  0.3800923566784106  1.0000
  O   O31       1.0  0.5928945791109044  0.5560997847085503  0.4703112000959919  1.0000
  O   O32       1.0  0.9305636370628176  0.031002347547882895  0.11541605922935377  1.0000
  O   O33       1.0  0.9348488279765733  0.11327395834488391  0.02934072234980087  1.0000
  O   O34       1.0  0.6331002016395358  0.19922276519478282  0.2799818362068152  1.0000
  O   O35       1.0  0.7793970570448535  0.2844016360878284  0.2260490554202902  1.0000
  O   O36       1.0  0.583697176248357  0.44894065053505733  0.3740360828871516  1.0000
  O   O37       1.0  0.5708050914224075  0.36811824109490493  0.46156614531875545  1.0000
  O   O38       1.0  0.509390627937016  0.4873750481982171  0.49439988470750507  1.0000
