data_image0
_chemical_formula_structural       Zn4P4H32C26N4O12
_chemical_formula_sum              "Zn4 P4 H32 C26 N4 O12"
_cell_length_a       5.116456387013798
_cell_length_b       11.274223655883231
_cell_length_c       15.281588619535537
_cell_angle_alpha    104.68750727687944
_cell_angle_beta     90.00003124165394
_cell_angle_gamma    90.00024763392256

_space_group_name_H-M_alt    "P 1"
_space_group_IT_number       1

loop_
  _space_group_symop_operation_xyz
  'x, y, z'

loop_
  _atom_site_type_symbol
  _atom_site_label
  _atom_site_symmetry_multiplicity
  _atom_site_fract_x
  _atom_site_fract_y
  _atom_site_fract_z
  _atom_site_occupancy
  Zn  Zn1       1.0  0.6997103843486272  0.6424230654086784  0.49663451428718003  1.0000
  Zn  Zn2       1.0  0.6997188413633709  0.8575786770565159  0.003367013486709429  1.0000
  Zn  Zn3       1.0  0.30028610168336206  0.3575741828319323  0.5033662528279448  1.0000
  Zn  Zn4       1.0  0.30028155365424414  0.1424250186894582  0.9966330453943822  1.0000
  P   P1        1.0  0.22583308058430165  0.5554416036541454  0.38808526410778643  1.0000
  P   P2        1.0  0.22584840072367027  0.9445554560508499  0.11191461580389733  1.0000
  P   P3        1.0  0.7741575420266783  0.44455842452135375  0.6119140808704626  1.0000
  P   P4        1.0  0.7741480852853044  0.055437217496987004  0.8880846064162637  1.0000
  H   H1        1.0  0.27947750948805355  0.5452224615816162  0.2959112202194375  1.0000
  H   H2        1.0  0.2794911171976153  0.9547829661606075  0.2040902978270012  1.0000
  H   H3        1.0  0.7205189765434737  0.4547747964160961  0.7040888943756582  1.0000
  H   H4        1.0  0.7205210046948592  0.04522257313509929  0.7959094654875113  1.0000
  H   H5        1.0  0.1083523381053553  0.7162968054545757  0.6324946812190999  1.0000
  H   H6        1.0  0.1083508893188494  0.7837045703800882  0.8675064481509691  1.0000
  H   H7        1.0  0.8916597837510308  0.2837013987213198  0.3675036542955255  1.0000
  H   H8        1.0  0.8916475511903956  0.2162926876197346  0.13249366644470936  1.0000
  H   H9        1.0  0.3297761047519643  0.9091273180734164  0.717439713395194  1.0000
  H   H10       1.0  0.3297726838726404  0.5908763704638247  0.7825619044318228  1.0000
  H   H11       1.0  0.6702281992120617  0.09087454389683097  0.2825599885370877  1.0000
  H   H12       1.0  0.6702238021724225  0.40912363820381614  0.21743874558823248  1.0000
  H   H13       1.0  0.7965855196337726  0.11084059168430122  0.5896447832295875  1.0000
  H   H14       1.0  0.7965812347479047  0.38915965402842567  0.9103567673140912  1.0000
  H   H15       1.0  0.20341096639821635  0.8891566565563166  0.4103559838855445  1.0000
  H   H16       1.0  0.20341134234716657  0.6108412520107648  0.08964536621985529  1.0000
  H   H17       1.0  0.5882243552156936  0.909859169764843  0.5140348923665596  1.0000
  H   H18       1.0  0.5882251552894785  0.5901404445478065  0.9859692491840162  1.0000
  H   H19       1.0  0.4117721308127145  0.09013714207159042  0.48596700131364645  1.0000
  H   H20       1.0  0.4117693762963839  0.40986322192051716  0.014032767255429198  1.0000
  H   H21       1.0  0.3448806443333794  0.17069396956222252  0.6508479854864149  1.0000
  H   H22       1.0  0.3448776471796364  0.32930990310862285  0.8491528841168401  1.0000
  H   H23       1.0  0.6551158416967552  0.8293033177067884  0.3491501715485796  1.0000
  H   H24       1.0  0.6551110209649805  0.6706919100592116  0.15085008041096154  1.0000
  H   H25       1.0  0.369321237920694  0.12255432570226078  0.7519388756317865  1.0000
  H   H26       1.0  0.3693185413030662  0.37744959007518025  0.7480626610073028  1.0000
  H   H27       1.0  0.6306811115565906  0.8774457024859218  0.24806046934993728  1.0000
  H   H28       1.0  0.6306759902706531  0.6225512964519169  0.25194077756729166  1.0000
  H   H29       1.0  0.9293482063272265  0.27692340270227334  0.7004453100378283  1.0000
  H   H30       1.0  0.929348027287517  0.2230753061488286  0.7995553098872106  1.0000
  H   H31       1.0  0.07065414314150331  0.7230747819488599  0.29955433051396335  1.0000
  H   H32       1.0  0.07065041322483978  0.7769228980122806  0.2004430256233505  1.0000
  C   C1        1.0  0.0453501710822621  0.8059759243775487  0.6255973873354248  1.0000
  C   C2        1.0  0.04534396893706829  0.6940225645125935  0.8744031691901453  1.0000
  C   C3        1.0  0.9546541328623234  0.19402229930410186  0.37439964313681157  1.0000
  C   C4        1.0  0.9546564260886398  0.3059829845275317  0.12559594160084933  1.0000
  C   C5        1.0  0.1686352642719626  0.9132757251257714  0.671655817032544  1.0000
  C   C6        1.0  0.16862601218996787  0.5867257810883828  0.8283453481383203  1.0000
  C   C7        1.0  0.8313749031085604  0.0867224400196136  0.3283451285616365  1.0000
  C   C8        1.0  0.8313802462268925  0.413271545219601  0.1716501988194422  1.0000
  C   C9        1.0  0.0860035254762863  0.026370313172961308  0.6589973871558498  1.0000
  C   C10       1.0  0.085996028422997  0.4736339066920506  0.841004159689312  1.0000
  C   C11       1.0  0.9140027329668499  0.973631519528098  0.3410042723371163  1.0000
  C   C12       1.0  0.9139906852384596  0.5263670090978964  0.15899732132286457  1.0000
  C   C13       1.0  0.8705327881518414  0.0257650317551352  0.6020609904094127  1.0000
  C   C14       1.0  0.8705312495770342  0.4742353836606341  0.897939951533665  1.0000
  C   C15       1.0  0.1294578344456028  0.9742322457504357  0.3979378191438768  1.0000
  C   C16       1.0  0.12946523652933453  0.5257775004950672  0.10206058705606576  1.0000
  C   C17       1.0  0.7551172665869998  0.9148266267359305  0.5591856070220586  1.0000
  C   C18       1.0  0.7551159940077738  0.5851743044710318  0.9408162020434642  1.0000
  C   C19       1.0  0.2448870373518162  0.08516969486606028  0.44081563414043484  1.0000
  C   C20       1.0  0.2448922188922396  0.4148239192148466  0.05918082842993041  1.0000
  C   C21       1.0  0.2291168337454224  0.14210304252766548  0.7030508855380757  1.0000
  C   C22       1.0  0.2291140273652417  0.3578987264598865  0.7969508634011218  1.0000
  C   C23       1.0  0.7708816067674036  0.8578951518763418  0.2969481024925216  1.0000
  C   C24       1.0  0.7708883221156242  0.6421022381324735  0.20304735501552068  1.0000
  C   C25       1.0  0.05598974883221789  0.25000070214270664  0.7500004967983498  1.0000
  C   C26       1.0  0.9440047827301539  0.7499983993899447  0.2499993222261024  1.0000
  N   N1        1.0  0.8426969048071626  0.806564123920509  0.569283994137123  1.0000
  N   N2        1.0  0.8426946943360463  0.6934370064714273  0.930717214423211  1.0000
  N   N3        1.0  0.1573113080992243  0.19343497762694284  0.43071582489139343  1.0000
  N   N4        1.0  0.1572978827545128  0.30656298267778226  0.06928474063575149  1.0000
  O   O1        1.0  0.9274886806344185  0.5654494575796392  0.39611097104412346  1.0000
  O   O2        1.0  0.9275078017417682  0.9345555867787922  0.1038873123193227  1.0000
  O   O3        1.0  0.0725097598869624  0.43455058036141025  0.6038877214164128  1.0000
  O   O4        1.0  0.0725062746329428  0.06545086940900549  0.8961126294707566  1.0000
  O   O5        1.0  0.36527003303392996  0.6729438022888985  0.4427615030900112  1.0000
  O   O6        1.0  0.36528023796314096  0.8270580751535095  0.0572439196494372  1.0000
  O   O7        1.0  0.6347303619525703  0.3270534654701435  0.5572379589862136  1.0000
  O   O8        1.0  0.6347201570518165  0.17294466467408404  0.9427585708368011  1.0000
  O   O9        1.0  0.3407382317865526  0.4376526819188839  0.40512078028400095  1.0000
  O   O10       1.0  0.34077137961671866  0.0623503084117232  0.09487752397228627  1.0000
  O   O11       1.0  0.6592484818528064  0.5623436396640855  0.5948804608732698  1.0000
  O   O12       1.0  0.6592446512333794  0.9376561965636866  0.9051191552182087  1.0000
