data_image0
_chemical_formula_structural       Cu2H40C52I2N12
_chemical_formula_sum              "Cu2 H40 C52 I2 N12"
_cell_length_a       8.461575674491481
_cell_length_b       10.48397253337005
_cell_length_c       15.891
_cell_angle_alpha    91.72395273839456
_cell_angle_beta     97.30004231666933
_cell_angle_gamma    104.3365363566393

_space_group_name_H-M_alt    "P 1"
_space_group_IT_number       1

loop_
  _space_group_symop_operation_xyz
  'x, y, z'

loop_
  _atom_site_type_symbol
  _atom_site_label
  _atom_site_symmetry_multiplicity
  _atom_site_fract_x
  _atom_site_fract_y
  _atom_site_fract_z
  _atom_site_occupancy
  Cu  Cu1       1.0  0.9240550059770739  0.9979028815489457  0.06349559874676199  1.0000
  Cu  Cu2       1.0  0.0759442429516923  0.0020993175058734  0.9365046457974842  1.0000
  H   H1        1.0  0.019452444231838187  0.7628099030543183  0.1448200710499847  1.0000
  H   H2        1.0  0.9805486209284879  0.2371942690432718  0.8551797062525995  1.0000
  H   H3        1.0  0.9086955100891032  0.6061917411196092  0.2514478861626017  1.0000
  H   H4        1.0  0.09130674654184649  0.3938124309779738  0.7485526010409986  1.0000
  H   H5        1.0  0.6404001332051337  0.6143907203448435  0.30153296708866867  1.0000
  H   H6        1.0  0.35959729949208  0.3856095056672046  0.6984658568361797  1.0000
  H   H7        1.0  0.6123698681207017  0.9186329287532473  0.12790015056187093  1.0000
  H   H8        1.0  0.3876347714515092  0.0813712433443357  0.8720992392956932  1.0000
  H   H9        1.0  0.4050587696685851  0.8654840891720498  0.21118449435339676  1.0000
  H   H10       1.0  0.594939854499259  0.1345161368399985  0.7888150394724677  1.0000
  H   H11       1.0  0.9508187770258374  0.6401280767408296  0.4837173061785478  1.0000
  H   H12       1.0  0.0491812929418742  0.35986918970706233  0.5162841545893289  1.0000
  H   H13       1.0  0.7126697553591512  0.7233293172531178  0.5108251254716337  1.0000
  H   H14       1.0  0.2873300602793236  0.2766709087589305  0.4891738596812162  1.0000
  H   H15       1.0  0.6688138475534372  0.9266000754531589  0.44697886736602754  1.0000
  H   H16       1.0  0.3311859680850375  0.0734001505588893  0.5530182299257619  1.0000
  H   H17       1.0  0.869490089285847  0.0522461725145291  0.3582002871326537  1.0000
  H   H18       1.0  0.13051060544278667  0.9477530669761336  0.6417981086314911  1.0000
  H   H19       1.0  0.10921528976206928  0.9668560670624516  0.329181467569498  1.0000
  H   H20       1.0  0.8907835887350118  0.0331411993854474  0.6708199125843779  1.0000
  H   H21       1.0  0.3608637859441757  0.8975322228636458  0.5019365401767288  1.0000
  H   H22       1.0  0.6391297599606816  0.10246701662701702  0.4980664061995698  1.0000
  H   H23       1.0  0.5520212709347659  0.9802461218120655  0.6359271897929875  1.0000
  H   H24       1.0  0.4479740331504303  0.0197511446358263  0.3640745778059086  1.0000
  H   H25       1.0  0.6482048497038235  0.8227400906314557  0.7297297464096604  1.0000
  H   H26       1.0  0.3517960993540612  0.17725618929505774  0.2702692371084653  1.0000
  H   H27       1.0  0.5628010631122535  0.5807335702753846  0.6864440536296003  1.0000
  H   H28       1.0  0.43720051070656035  0.41926468269389267  0.31355312345883146  1.0000
  H   H29       1.0  0.3723349568660268  0.498912473179793  0.553024478354537  1.0000
  H   H30       1.0  0.6276681208038681  0.5010867663108699  0.44697219077655603  1.0000
  H   H31       1.0  0.1631772580665682  0.32469378322711157  0.3372407353854925  1.0000
  H   H32       1.0  0.8368258196033266  0.6753054562635512  0.6627590801806917  1.0000
  H   H33       1.0  0.7489642955322822  0.4019936528182911  0.2722670309365611  1.0000
  H   H34       1.0  0.25104153551055924  0.598010519279299  0.7277330688220192  1.0000
  H   H35       1.0  0.55829407162188  0.29153679949951794  0.1406012025654064  1.0000
  H   H36       1.0  0.44170968886016476  0.7084683591194505  0.8593987766808553  1.0000
  H   H37       1.0  0.6527590112583327  0.13863091753407283  0.046557371747077504  1.0000
  H   H38       1.0  0.3472393585802677  0.8613722680421247  0.9534415743248135  1.0000
  H   H39       1.0  0.09559087435010129  0.1895048388029963  0.20389193523446641  1.0000
  H   H40       1.0  0.9044058755349695  0.8104894680807533  0.7961073542973197  1.0000
  C   C1        1.0  0.899846274612848  0.7589289279283307  0.1648937990945711  1.0000
  C   C2        1.0  0.10015598201810859  0.2410752441692523  0.8351073173960444  1.0000
  C   C3        1.0  0.8370551833748507  0.6720864369864543  0.22449410779602635  1.0000
  C   C4        1.0  0.1629458817854683  0.3279177351111286  0.7755062987935732  1.0000
  C   C5        1.0  0.6892120845284353  0.6764152928209343  0.25230849438862896  1.0000
  C   C6        1.0  0.3107883558709617  0.323586906233885  0.7476912014825956  1.0000
  C   C7        1.0  0.6055318604927676  0.7675126504934582  0.21809739881189932  1.0000
  C   C8        1.0  0.3944685799066292  0.23248954856136092  0.7819022970593252  1.0000
  C   C9        1.0  0.67532604320877  0.8478707363760806  0.1564974895210298  1.0000
  C   C10       1.0  0.32467502195154907  0.1521334357215096  0.8435041756426076  1.0000
  C   C11       1.0  0.45744700804283406  0.7917731843770923  0.24488897653414915  1.0000
  C   C12       1.0  0.5425497998934504  0.2082250685921849  0.7551103952463623  1.0000
  C   C13       1.0  0.1833620720523612  0.7449449873053453  0.3852760898015148  1.0000
  C   C14       1.0  0.8166374312056491  0.2550542521853245  0.6147209667745984  1.0000
  C   C15       1.0  0.0467619264558792  0.7986946184096057  0.4047735348369771  1.0000
  C   C16       1.0  0.9532378311313748  0.20130166151690793  0.5952247387801324  1.0000
  C   C17       1.0  0.935536010819547  0.7314207656474565  0.4568481467665252  1.0000
  C   C18       1.0  0.06446286767753409  0.2685765008004424  0.5431532333873507  1.0000
  C   C19       1.0  0.8001286166140956  0.7776037777338446  0.47162442226492374  1.0000
  C   C20       1.0  0.19987358196564028  0.22239644827820373  0.5283747241159205  1.0000
  C   C21       1.0  0.7760430137632568  0.8923263495184984  0.43580587239326724  1.0000
  C   C22       1.0  0.2239582476750925  0.1076709169294006  0.5641925225535189  1.0000
  C   C23       1.0  0.8880044695716549  0.961847497994171  0.3853707187891047  1.0000
  C   C24       1.0  0.1119932174548026  0.038149768453728  0.6146280636027086  1.0000
  C   C25       1.0  0.022346899030729644  0.9153418934150964  0.3694969813728904  1.0000
  C   C26       1.0  0.977650787995728  0.0846553730327955  0.6305011717319006  1.0000
  C   C27       1.0  0.23417443558317788  0.6453063274872193  0.4419236228950396  1.0000
  C   C28       1.0  0.7658265715259275  0.3546938985248289  0.5580760721588264  1.0000
  C   C29       1.0  0.3520142254222094  0.6927313699964941  0.5192413540757741  1.0000
  C   C30       1.0  0.6479852778358007  0.3072678694941686  0.4807582196484078  1.0000
  C   C31       1.0  0.40526378655657425  0.8284362651046211  0.5427781956852087  1.0000
  C   C32       1.0  0.5947369081720666  0.1715629743860418  0.4572233465140273  1.0000
  C   C33       1.0  0.5116089040878151  0.874790931911889  0.6178382741772525  1.0000
  C   C34       1.0  0.4883879038484764  0.1252073210573883  0.3821623561772896  1.0000
  C   C35       1.0  0.5674513722746326  0.7859655329874968  0.6702160159431403  1.0000
  C   C36       1.0  0.4325460023713603  0.2140307469390166  0.3297846135940432  1.0000
  C   C37       1.0  0.5176976078903621  0.6506670846897151  0.6465052884869779  1.0000
  C   C38       1.0  0.4823024620773566  0.3493301817581838  0.3534942844198454  1.0000
  C   C39       1.0  0.41114434531063887  0.6039523375771623  0.5718260946702429  1.0000
  C   C40       1.0  0.5888548455669137  0.396045915392115  0.4281721797642248  1.0000
  C   C41       1.0  0.061495385700958076  0.3703943863565655  0.318450125113678  1.0000
  C   C42       1.0  0.9385070672080218  0.6296028800913334  0.6815514968821931  1.0000
  C   C43       1.0  0.9398414540390831  0.3082859595628094  0.24662739006957682  1.0000
  C   C44       1.0  0.060160119779723686  0.691712293406475  0.7533741920279768  1.0000
  C   C45       1.0  0.7850910350588548  0.3358750165971998  0.22872972119735382  1.0000
  C   C46       1.0  0.2149111635208811  0.6641252094148485  0.7712719423315662  1.0000
  C   C47       1.0  0.6802274450483665  0.2746741894770324  0.1566694793789054  1.0000
  C   C48       1.0  0.31977268297056577  0.7253270230564013  0.8433314343506738  1.0000
  C   C49       1.0  0.7307709505223557  0.1874351169386514  0.10438817056846975  1.0000
  C   C50       1.0  0.2692286107868753  0.812568068637546  0.8956114854044374  1.0000
  C   C51       1.0  0.9781658056652773  0.21636781609851144  0.19209867782642936  1.0000
  C   C52       1.0  0.021832506122102274  0.7836314233921513  0.8079008152837519  1.0000
  I   I1        1.0  0.24703667228297377  0.0306235968126174  0.0898468235546375  1.0000
  I   I2        1.0  0.7529588861314663  0.9693707100711251  0.9101555317982388  1.0000
  N   N1        1.0  0.8204770170157901  0.8462755312976072  0.1311195572753547  1.0000
  N   N2        1.0  0.17952436052499368  0.1537296273213684  0.8688821486039588  1.0000
  N   N3        1.0  0.3884081591069517  0.7358502466631336  0.3074516310678562  1.0000
  N   N4        1.0  0.6115889612098044  0.2641489928275291  0.6925452642802625  1.0000
  N   N5        1.0  0.25607529296669895  0.7872124960172968  0.32047088599969703  1.0000
  N   N6        1.0  0.7439215149695925  0.2127857569519804  0.6795284857808072  1.0000
  N   N7        1.0  0.17487475346128178  0.5191292559090286  0.4266153482943906  1.0000
  N   N8        1.0  0.8251247497967283  0.48086998358163413  0.5733861132908447  1.0000
  N   N9        1.0  0.054901940549555696  0.47832574493143204  0.3579625890380456  1.0000
  N   N10       1.0  0.9450981294181559  0.5216715215164669  0.6420382424428156  1.0000
  N   N11       1.0  0.8769992901599792  0.15686380575940723  0.12219690132776151  1.0000
  N   N12       1.0  0.12300265409051295  0.8431393798167977  0.8778016572991023  1.0000
