data_image0
_chemical_formula_structural       Ga2H8C8Br6N4
_chemical_formula_sum              "Ga2 H8 C8 Br6 N4"
_cell_length_a       6.581188355026527
_cell_length_b       6.5813428957395335
_cell_length_c       11.94026632116276
_cell_angle_alpha    79.20972363168669
_cell_angle_beta     79.21240462994437
_cell_angle_gamma    61.549667143862465

_space_group_name_H-M_alt    "P 1"
_space_group_IT_number       1

loop_
  _space_group_symop_operation_xyz
  'x, y, z'

loop_
  _atom_site_type_symbol
  _atom_site_label
  _atom_site_symmetry_multiplicity
  _atom_site_fract_x
  _atom_site_fract_y
  _atom_site_fract_z
  _atom_site_occupancy
  Ga  Ga1       1.0  0.2886601678675333  0.7113299393755877  0.24999586652531047  1.0000
  Ga  Ga2       1.0  0.711334386843248  0.2886686243857  0.7499967315507516  1.0000
  H   H1        1.0  0.41950590853294045  0.3561702408689057  0.47351143962120545  1.0000
  H   H2        1.0  0.6438292406391497  0.580540002277253  0.02647784673768432  1.0000
  H   H3        1.0  0.5805281630697292  0.6438197245576872  0.5264897044626835  1.0000
  H   H4        1.0  0.3561504393127136  0.41947069982771973  0.9735259200296081  1.0000
  H   H5        1.0  0.778829049169474  0.7738145161405111  0.34789469474566914  1.0000
  H   H6        1.0  0.22616177270474208  0.22116485937351624  0.15213146121970308  1.0000
  H   H7        1.0  0.22121337239858713  0.22618417485640654  0.6521155809404177  1.0000
  H   H8        1.0  0.7738016602719923  0.7788475342711505  0.8478746396719289  1.0000
  C   C1        1.0  0.23135587904464924  0.4219985406815282  0.4855745428931114  1.0000
  C   C2        1.0  0.5779847796843285  0.7687023056266327  0.014416592966206608  1.0000
  C   C3        1.0  0.7687003511425631  0.5779566389099954  0.5144480002420123  1.0000
  C   C4        1.0  0.42198659743468164  0.23129617899037666  0.9855884464967559  1.0000
  C   C5        1.0  0.8781759741948393  0.6512009986152021  0.4158413514696377  1.0000
  C   C6        1.0  0.3487921570670168  0.12181644842991796  0.08416530417128595  1.0000
  C   C7        1.0  0.12192148446658276  0.34878567803632876  0.584151938107503  1.0000
  C   C8        1.0  0.6511883291260215  0.8781925212952255  0.915830182830689  1.0000
  Br  Br1       1.0  0.6384454392769353  0.36153125512346657  0.24999076040506904  1.0000
  Br  Br2       1.0  0.36154014007356483  0.6384498824759248  0.7499811026198628  1.0000
  Br  Br3       1.0  0.2437620013743993  0.9846786461154834  0.36796425275413464  1.0000
  Br  Br4       1.0  0.015257365465032435  0.7562878564031336  0.13203309375104055  1.0000
  Br  Br5       1.0  0.7562513597859633  0.015302552512366695  0.6320332224363552  1.0000
  Br  Br6       1.0  0.9846897146308959  0.24373319999244808  0.8679696102092224  1.0000
  N   N1        1.0  0.10940769904149047  0.5726446359828471  0.401805444763255  1.0000
  N   N2        1.0  0.42738498250513135  0.8905581435613924  0.09817982867980392  1.0000
  N   N3        1.0  0.8905655362310724  0.4273834738866427  0.5981863068985902  1.0000
  N   N4        1.0  0.5725860123034108  0.10946472767084707  0.9018202296281855  1.0000
