data_image0
_chemical_formula_structural       Hf6H28C52O32
_chemical_formula_sum              "Hf6 H28 C52 O32"
_cell_length_a       15.497895582515973
_cell_length_b       19.284079560704363
_cell_length_c       19.293203578671083
_cell_angle_alpha    88.60478370756078
_cell_angle_beta     89.90255314172688
_cell_angle_gamma    89.92547965394695

_space_group_name_H-M_alt    "P 1"
_space_group_IT_number       1

loop_
  _space_group_symop_operation_xyz
  'x, y, z'

loop_
  _atom_site_type_symbol
  _atom_site_label
  _atom_site_symmetry_multiplicity
  _atom_site_fract_x
  _atom_site_fract_y
  _atom_site_fract_z
  _atom_site_occupancy
  Hf  Hf1       1.0  0.008328924702972501  0.9898029097247016  0.9006876591316416  1.0000
  Hf  Hf2       1.0  0.0039557508876698  0.11060015989500725  0.03774216273357921  1.0000
  Hf  Hf3       1.0  0.005905327992770999  0.851344620653002  0.0252123026626805  1.0000
  Hf  Hf4       1.0  0.004808691335334499  0.9713345846882006  0.15849702289876436  1.0000
  Hf  Hf5       1.0  0.16536310915493146  0.9816198388684966  0.0313313644515816  1.0000
  Hf  Hf6       1.0  0.846074570648561  0.9812542527120055  0.029929095172867907  1.0000
  H   H1        1.0  0.6446358923062191  0.9754183537186307  0.6454780971484342  1.0000
  H   H2        1.0  0.5042580598925924  0.983138964534376  0.8385045470745425  1.0000
  H   H3        1.0  0.36628218812175123  0.9896401690460832  0.6443501232675574  1.0000
  H   H4        1.0  0.3656235939612813  0.9756004526805813  0.41947487808607076  1.0000
  H   H5        1.0  0.5022634649705111  0.978039315151889  0.22421162172570772  1.0000
  H   H6        1.0  0.643960295175539  0.9857964841320238  0.41634545810433116  1.0000
  H   H7        1.0  0.644364094419963  0.36917650152048503  0.032751644311240106  1.0000
  H   H8        1.0  0.5069317730201846  0.17494908867254821  0.026806045546429406  1.0000
  H   H9        1.0  0.3657530758632461  0.36812623726520133  0.025135189521115802  1.0000
  H   H10       1.0  0.6445216573645922  0.5944572444122257  0.027786193014840404  1.0000
  H   H11       1.0  0.5078248340300674  0.7896395906249011  0.030361589222323505  1.0000
  H   H12       1.0  0.36586322522416737  0.59718619287505  0.033556976645677104  1.0000
  H   H13       1.0  0.8882101974201362  0.08935700061932289  0.923307928939174  1.0000
  H   H14       1.0  0.12466121151236818  0.0822755786175406  0.1412556092078603  1.0000
  H   H15       1.0  0.8795185073768367  0.8757282358522785  0.13419440051450954  1.0000
  H   H16       1.0  0.1322894670346315  0.8818628252880526  0.9263349756014421  1.0000
  H   H17       1.0  0.062217367365363395  0.20829432227763076  0.12261760138014922  1.0000
  H   H18       1.0  0.9484675945107525  0.03711082706440999  0.2710950865125099  1.0000
  H   H19       1.0  0.04972428846418351  0.8722251896267749  0.24868533327724412  1.0000
  H   H20       1.0  0.0053806325369479  0.8196853129002051  0.16692969273377406  1.0000
  H   H21       1.0  0.9617217335835377  0.7623388861716904  0.9297946273448974  1.0000
  H   H22       1.0  0.004479968682986199  0.8494054727992053  0.872875390518445  1.0000
  H   H23       1.0  0.041323196645727506  0.07881806742667409  0.8002852891728056  1.0000
  H   H24       1.0  0.958756502862336  0.22856335940249287  0.9686380008946716  1.0000
  H   H25       1.0  0.9574455304181767  0.7546008014929625  0.1294790815923008  1.0000
  H   H26       1.0  0.9509898765174969  0.894339027968769  0.8148401213842222  1.0000
  H   H27       1.0  0.05936680889674759  0.2171865248428091  0.9581274291450942  1.0000
  H   H28       1.0  0.0502352933900028  0.028948985166955793  0.2843951172143875  1.0000
  C   C1        1.0  0.5055306088629408  0.9824896199151852  0.636427548713293  1.0000
  C   C2        1.0  0.5836977140798538  0.9785165991962187  0.6734212010148612  1.0000
  C   C3        1.0  0.583488738157861  0.9786094516589967  0.746258880384545  1.0000
  C   C4        1.0  0.5046417830359572  0.9829271512097573  0.7820717718588029  1.0000
  C   C5        1.0  0.4262556642597275  0.9870484376535628  0.7455633885319488  1.0000
  C   C6        1.0  0.42688001199579156  0.9866784082017116  0.6727573698869735  1.0000
  C   C7        1.0  0.504905544889013  0.9809805330870844  0.426451377503817  1.0000
  C   C8        1.0  0.4260274727964203  0.9775431163012412  0.39057534907806263  1.0000
  C   C9        1.0  0.4248254003626855  0.9763415449452424  0.31779288028437247  1.0000
  C   C10       1.0  0.5030253511734274  0.9788761978530257  0.2806177991996394  1.0000
  C   C11       1.0  0.582164460163412  0.9823345599522072  0.31599971265507787  1.0000
  C   C12       1.0  0.5828114637187553  0.9833119998473591  0.38881646176242424  1.0000
  C   C13       1.0  0.5049695475043947  0.3771783749811418  0.02910805659571741  1.0000
  C   C14       1.0  0.5837954693369128  0.34075471248620187  0.0307479073050203  1.0000
  C   C15       1.0  0.5847199209127325  0.26793539985644804  0.029912230588742306  1.0000
  C   C16       1.0  0.5063597935860997  0.23140234731401674  0.027353271681860712  1.0000
  C   C17       1.0  0.42735276261572613  0.26733212313673244  0.025517535213332106  1.0000
  C   C18       1.0  0.42683658076630593  0.3401669025401617  0.0264423704073167  1.0000
  C   C19       1.0  0.5051081385146716  0.5872626259278063  0.0307065681975303  1.0000
  C   C20       1.0  0.5840824483007124  0.6232525502569358  0.02903748375403841  1.0000
  C   C21       1.0  0.5853250015739847  0.6961211358205475  0.028792060842278  1.0000
  C   C22       1.0  0.5070215767047016  0.733163942495544  0.030556348904468705  1.0000
  C   C23       1.0  0.42772049125487394  0.6976398052188485  0.032452451570435414  1.0000
  C   C24       1.0  0.42714509993281524  0.624748866809938  0.03238573465413452  1.0000
  C   C25       1.0  0.21590677554613788  0.9935349594357205  0.8713591595263283  1.0000
  C   C26       1.0  0.7956419765529502  0.14223733858634796  0.034267980846799204  1.0000
  C   C27       1.0  0.21711190589802237  0.1413864027714453  0.025025012345132307  1.0000
  C   C28       1.0  0.7941533964239937  0.9746906622415348  0.8718342150817692  1.0000
  C   C29       1.0  0.7998796634037433  0.8174474542087964  0.025367696199857903  1.0000
  C   C30       1.0  0.21221868924411783  0.969631099624593  0.1949482345962181  1.0000
  C   C31       1.0  0.7941301002916885  0.982595973891122  0.19128056495231502  1.0000
  C   C32       1.0  0.2139989830311109  0.8207621650585607  0.03420795052816321  1.0000
  C   C33       1.0  0.7295535670715908  0.7685348976606007  0.025269240360707105  1.0000
  C   C34       1.0  0.6643557905497203  0.7332770424671011  0.0268521236063108  1.0000
  C   C35       1.0  0.3495932062992678  0.7361079602851105  0.03417188831787851  1.0000
  C   C36       1.0  0.28488517806747643  0.7719608051917958  0.03539770386084481  1.0000
  C   C37       1.0  0.6628097893672448  0.22952383920839745  0.0317303016065793  1.0000
  C   C38       1.0  0.7255065783806175  0.1914556759774655  0.0332932888770685  1.0000
  C   C39       1.0  0.3499163091352884  0.22835601788671758  0.023299614929698006  1.0000
  C   C40       1.0  0.28754405239916286  0.19007635240052417  0.022078533569391805  1.0000
  C   C41       1.0  0.5044349614054511  0.45060894979751237  0.029992344754099103  1.0000
  C   C42       1.0  0.5043585903929682  0.5138079121020168  0.030503083332661208  1.0000
  C   C43       1.0  0.7237458835042291  0.985267497297272  0.24011997463017568  1.0000
  C   C44       1.0  0.6599592107754617  0.984270537990348  0.277098251559636  1.0000
  C   C45       1.0  0.34622445147743974  0.9726570716858799  0.28043147102592775  1.0000
  C   C46       1.0  0.2821274226419632  0.9696751071469907  0.24416750389210756  1.0000
  C   C47       1.0  0.6609933189178534  0.974980352933997  0.7851703141652708  1.0000
  C   C48       1.0  0.7234669421963674  0.9728107881620359  0.8233276822609598  1.0000
  C   C49       1.0  0.28589430099766844  0.9940381171011834  0.8220888645069382  1.0000
  C   C50       1.0  0.3484260574850495  0.9911477040437973  0.7840075127835606  1.0000
  C   C51       1.0  0.5058026379983431  0.9822112306791198  0.5630029929841316  1.0000
  C   C52       1.0  0.5056513751234561  0.98181303334119  0.4998312066629397  1.0000
  O   O1        1.0  0.13924831527553036  0.9962777987354908  0.8482305791665113  1.0000
  O   O2        1.0  0.23888415939499202  0.989104033388763  0.9350177917431498  1.0000
  O   O3        1.0  0.8723227817743648  0.1658163586540837  0.03264165537891021  1.0000
  O   O4        1.0  0.7733228489024812  0.07860786592806329  0.03600780706110381  1.0000
  O   O5        1.0  0.14061439483766244  0.16467326648184158  0.018159190200705708  1.0000
  O   O6        1.0  0.23853010369030872  0.0781825714655184  0.03661505939447101  1.0000
  O   O7        1.0  0.8703437278102157  0.9683406487724967  0.8491831346956857  1.0000
  O   O8        1.0  0.7717987117132737  0.9842934026178011  0.9349611295296116  1.0000
  O   O9        1.0  0.9930013461277057  0.0652768893520701  0.8295161406350008  1.0000
  O   O10       1.0  0.006681035790670399  0.8920060956262857  0.8385019422811057  1.0000
  O   O11       1.0  0.002273331164062099  0.19639773531898896  0.9515518805313621  1.0000
  O   O12       1.0  0.010880789773224799  0.18386866730495646  0.10862267330040251  1.0000
  O   O13       1.0  0.07475803297325  0.039051977510396796  0.979610025630038  1.0000
  O   O14       1.0  0.9183159691101678  0.05906844599705609  0.9562422973928763  1.0000
  O   O15       1.0  0.8773593436503974  0.7939464716014226  0.025724136657238706  1.0000
  O   O16       1.0  0.776968091835741  0.8808225538257941  0.026139540183585608  1.0000
  O   O17       1.0  0.1347134434479003  0.9663683752461977  0.21829739752320884  1.0000
  O   O18       1.0  0.23470609227788947  0.9742418123033333  0.1317212873426925  1.0000
  O   O19       1.0  0.871313495808522  0.9849953763961922  0.2145668524861364  1.0000
  O   O20       1.0  0.7721114233187053  0.9762164711085359  0.12821230281835486  1.0000
  O   O21       1.0  0.13730988731382615  0.7978795664294225  0.034312443490137005  1.0000
  O   O22       1.0  0.2374524523944501  0.8845123990044143  0.031852636465906414  1.0000
  O   O23       1.0  0.006400543054972701  0.7858237425249327  0.12469085788124093  1.0000
  O   O24       1.0  0.007267954300829198  0.7965881889934179  0.9335721396543308  1.0000
  O   O25       1.0  0.0012554795939081  0.8776840197241287  0.21709222065547357  1.0000
  O   O26       1.0  0.0063662422629704  0.04450261986863069  0.251293343254858  1.0000
  O   O27       1.0  0.9154992951051213  0.9041686332145318  0.1037584374656646  1.0000
  O   O28       1.0  0.07330346670133991  0.9243019035467126  0.08368982683742843  1.0000
  O   O29       1.0  0.9391175111770805  0.9301648445723669  0.9774966367568255  1.0000
  O   O30       1.0  0.09078532524606693  0.0530840678379789  0.1114781501151114  1.0000
  O   O31       1.0  0.09618635654603482  0.9108005708009865  0.9549662043828138  1.0000
  O   O32       1.0  0.935452897634697  0.033783227568569905  0.08815426027585002  1.0000
