data_image0
_chemical_formula_structural       Al4H34C70O24F2
_chemical_formula_sum              "Al4 H34 C70 O24 F2"
_cell_length_a       6.642566343537569
_cell_length_b       19.553616519296323
_cell_length_c       20.73560324107515
_cell_angle_alpha    95.30989875841009
_cell_angle_beta     89.92186886769522
_cell_angle_gamma    89.94757396793199

_space_group_name_H-M_alt    "P 1"
_space_group_IT_number       1

loop_
  _space_group_symop_operation_xyz
  'x, y, z'

loop_
  _atom_site_type_symbol
  _atom_site_label
  _atom_site_symmetry_multiplicity
  _atom_site_fract_x
  _atom_site_fract_y
  _atom_site_fract_z
  _atom_site_occupancy
  Al  Al1       1.0  0.1277237667324727  0.4971083541261407  0.5013917660745548  1.0000
  Al  Al2       1.0  0.627717963250106  0.502982891117931  0.4985990523907589  1.0000
  Al  Al3       1.0  0.6475111286942549  0.9984212974565098  0.9998591305955457  1.0000
  Al  Al4       1.0  0.14750311044384998  0.0013682097639034002  8.174957497429999e-05  1.0000
  H   H1        1.0  0.9574049016982042  0.7730874086606079  0.9782335125262804  1.0000
  H   H2        1.0  0.45050726907457767  0.22672072089496714  0.021442710381393202  1.0000
  H   H3        1.0  0.9253257413094785  0.5834851281030924  0.8170019028819766  1.0000
  H   H4        1.0  0.4238047141319754  0.4163820273095666  0.18273736002208096  1.0000
  H   H5        1.0  0.9638531735257132  0.6567568058647311  0.9175859219343394  1.0000
  H   H6        1.0  0.45932731061802906  0.3430099149721997  0.0820575461591488  1.0000
  H   H7        1.0  0.8672351871899477  0.8649562109850281  0.8002118585916945  1.0000
  H   H8        1.0  0.37153933977507597  0.13484917045596495  0.20003663809191616  1.0000
  H   H9        1.0  0.8753179289400707  0.7219605982690355  0.5293166645686895  1.0000
  H   H10       1.0  0.3771321182482765  0.2782152746048752  0.4706841198563581  1.0000
  H   H11       1.0  0.9087240383646318  0.8536430355992908  0.7061897424608502  1.0000
  H   H12       1.0  0.4099308599281599  0.1463461710442502  0.2939225370964849  1.0000
  H   H13       1.0  0.8921989275904211  0.8393199172737837  0.5873977538668669  1.0000
  H   H14       1.0  0.393415934936634  0.1607938976407297  0.4126845578468518  1.0000
  H   H15       1.0  0.15593846470899558  0.31808469488593977  0.594954316804106  1.0000
  H   H16       1.0  0.6555976498757942  0.681944433349436  0.4050332658270648  1.0000
  H   H17       1.0  0.570464486287392  0.3889958675241445  0.6600851619530417  1.0000
  H   H18       1.0  0.0710001648109184  0.6111107380427258  0.3398946101722585  1.0000
  H   H19       1.0  0.41930161741886723  0.34775652525317474  0.7584409009797568  1.0000
  H   H20       1.0  0.9202003136658518  0.652524735938492  0.24167849798611477  1.0000
  H   H21       1.0  0.4339323300584468  0.27283649448067854  0.8481310437892091  1.0000
  H   H22       1.0  0.9348320538070779  0.7276032192273831  0.1520738450038692  1.0000
  H   H23       1.0  0.17240905775692988  0.0989419332509982  0.8304341133965704  1.0000
  H   H24       1.0  0.6741217256360342  0.9006932171934424  0.1694488547539592  1.0000
  H   H25       1.0  0.32379198881604754  0.13957434738910732  0.730007933175493  1.0000
  H   H26       1.0  0.8238732406184183  0.8604361144363322  0.2700703468078913  1.0000
  H   H27       1.0  0.3151227757295629  0.2178831613261067  0.6429892536424049  1.0000
  H   H28       1.0  0.8146004630601382  0.7821701701760658  0.3571263258974682  1.0000
  H   H29       1.0  0.6466740842393719  0.49460916231068086  0.6485602216857487  1.0000
  H   H30       1.0  0.14687028114146017  0.5055339034151274  0.3514643836172837  1.0000
  H   H31       1.0  0.375109491698609  0.5421615429386577  0.5773149153586559  1.0000
  H   H32       1.0  0.8759782357894751  0.45787400986933596  0.4227114956451318  1.0000
  H   H33       1.0  0.39544705361061716  0.9609068121250743  0.9216751570075487  1.0000
  H   H34       1.0  0.8939455950517968  0.03891834823250661  0.0782523249741942  1.0000
  C   C1        1.0  0.37438429680615576  0.585846604744887  0.42109384713960196  1.0000
  C   C2        1.0  0.8743926690706443  0.41421378172007906  0.5788715091249941  1.0000
  C   C3        1.0  0.37959386504008563  0.39651939062410696  0.42578642606255107  1.0000
  C   C4        1.0  0.8782954997977512  0.603585733952933  0.5741774186586426  1.0000
  C   C5        1.0  0.9456215924408936  0.7026997959086573  0.8920033954448953  1.0000
  C   C6        1.0  0.4423418606530233  0.2970771606873726  0.10773758436678797  1.0000
  C   C7        1.0  0.9098818353791458  0.8251108286970491  0.8915550570688779  1.0000
  C   C8        1.0  0.40842583649715886  0.174660532482072  0.1084123510652759  1.0000
  C   C9        1.0  0.879446801588358  0.7284256934686156  0.5821389221213876  1.0000
  C   C10       1.0  0.3812079252155485  0.27171465473976747  0.41787398914812  1.0000
  C   C11       1.0  0.8888362705536037  0.7943532593847848  0.6147905345839817  1.0000
  C   C12       1.0  0.39024803476785763  0.2057546670855785  0.38526776774934035  1.0000
  C   C13       1.0  0.8969027201364523  0.8021144114764881  0.6816421594681188  1.0000
  C   C14       1.0  0.39831851928587975  0.19792537420637762  0.3184084738535873  1.0000
  C   C15       1.0  0.8940229876896737  0.7448364875452569  0.7184210539264768  1.0000
  C   C16       1.0  0.3953919669164491  0.2551452563300103  0.28155714584280384  1.0000
  C   C17       1.0  0.884369922769963  0.6770273334010996  0.6853846944987652  1.0000
  C   C18       1.0  0.38559324404121037  0.32299250338328994  0.3145517407139593  1.0000
  C   C19       1.0  0.9038860528238428  0.7538492175707744  0.7888086233656253  1.0000
  C   C20       1.0  0.40476858863471676  0.24604474488126024  0.21115539030815  1.0000
  C   C21       1.0  0.9259417869365762  0.6949457034782753  0.8238154054668526  1.0000
  C   C22       1.0  0.42494382120857915  0.3049262855163164  0.1760188492172645  1.0000
  C   C23       1.0  0.9175661398345197  0.6284806009509156  0.7896161710259052  1.0000
  C   C24       1.0  0.4168679989540038  0.37143040322879983  0.210190579282532  1.0000
  C   C25       1.0  0.8869485580525164  0.6192661147584317  0.7241406147470357  1.0000
  C   C26       1.0  0.387356452550847  0.3807129416421234  0.2757449838994929  1.0000
  C   C27       1.0  0.8918674141412596  0.8187285970184988  0.8246872429308283  1.0000
  C   C28       1.0  0.3936138210562277  0.18109559687712823  0.1753783540762655  1.0000
  C   C29       1.0  0.9404441844496886  0.7668679827917798  0.9257541218792013  1.0000
  C   C30       1.0  0.43604926848710324  0.23290275847804048  0.07400576610493198  1.0000
  C   C31       1.0  0.8794391827042817  0.6705723630761398  0.6163421730658811  1.0000
  C   C32       1.0  0.3811675213770939  0.3295267404114385  0.38361761901096963  1.0000
  C   C33       1.0  0.028550668696404102  0.31420850013813617  0.6276276933556559  1.0000
  C   C34       1.0  0.5284465545010376  0.6858669354406288  0.3723880470794115  1.0000
  C   C35       1.0  0.8650594809063391  0.3587671901256756  0.6235381964908838  1.0000
  C   C36       1.0  0.3651463018778216  0.6413045707112418  0.376440519354972  1.0000
  C   C37       1.0  0.699366317179482  0.3552575743582267  0.664799957045602  1.0000
  C   C38       1.0  0.19975030982362088  0.6448598933680288  0.3352058766681552  1.0000
  C   C39       1.0  0.7015717966477694  0.31144417144584224  0.7145718500791247  1.0000
  C   C40       1.0  0.20205948038717028  0.6887370846906435  0.2854853998592972  1.0000
  C   C41       1.0  0.8687055543737401  0.266010596535196  0.719203013608265  1.0000
  C   C42       1.0  0.368972888390985  0.734175580198027  0.2808920634686913  1.0000
  C   C43       1.0  0.0307175496602454  0.265884567594007  0.6735959229851929  1.0000
  C   C44       1.0  0.5306437491383064  0.73425664084224  0.32648531520059265  1.0000
  C   C45       1.0  0.5453928732430455  0.3125942357747178  0.762396632944963  1.0000
  C   C46       1.0  0.046171971267682486  0.6876635207087745  0.23769734752109167  1.0000
  C   C47       1.0  0.5534744097099277  0.2714290336891381  0.8120351239040459  1.0000
  C   C48       1.0  0.05421502202383979  0.7289117563403239  0.18811889497038686  1.0000
  C   C49       1.0  0.7173849893047403  0.22449890143054319  0.8167638041655606  1.0000
  C   C50       1.0  0.2178932174599026  0.775860532672482  0.18344075934969334  1.0000
  C   C51       1.0  0.8757707186477363  0.22186657316019162  0.7698627026924925  1.0000
  C   C52       1.0  0.376164157316623  0.7783535551104421  0.23026934148420242  1.0000
  C   C53       1.0  0.0420191957269154  0.17597252008750533  0.7742903053472148  1.0000
  C   C54       1.0  0.5425154158293991  0.824099459184957  0.2258149266611014  1.0000
  C   C55       1.0  0.19790782955777075  0.1748875635573697  0.7262971955335757  1.0000
  C   C56       1.0  0.6980292384176962  0.8251620134593624  0.2737790057210887  1.0000
  C   C57       1.0  0.19275823983317514  0.2179998375440348  0.6781690647992491  1.0000
  C   C58       1.0  0.6926075320230608  0.78207701454474  0.32193004240317435  1.0000
  C   C59       1.0  0.7292374853903921  0.179575425806469  0.865573552434398  1.0000
  C   C60       1.0  0.23007333757944784  0.8208760115509932  0.13471760611486158  1.0000
  C   C61       1.0  0.889250482557564  0.1336396233091008  0.870495889014343  1.0000
  C   C62       1.0  0.390535148728226  0.8664755841110507  0.12966444448307607  1.0000
  C   C63       1.0  0.046215247097506996  0.1337314381897485  0.8252632482951797  1.0000
  C   C64       1.0  0.5474020242261871  0.8662158791608265  0.17474959172403703  1.0000
  C   C65       1.0  0.39874985699866267  0.10550101169464199  0.07099060530799758  1.0000
  C   C66       1.0  0.9017739096823332  0.8942211438457193  0.9290590150811511  1.0000
  C   C67       1.0  0.396032155279613  0.9178537714812193  0.080617134172698  1.0000
  C   C68       1.0  0.8935906635102454  0.08205134014108494  0.9193472736356583  1.0000
  C   C69       1.0  0.8462264936003834  0.5468572782157893  0.6980878346179651  1.0000
  C   C70       1.0  0.34676472588929397  0.4531379034283277  0.30194128099800116  1.0000
  O   O1        1.0  0.5475305265041754  0.4260988341442983  0.4387182646782151  1.0000
  O   O2        1.0  0.046452307437796506  0.5738751678126236  0.561410663798746  1.0000
  O   O3        1.0  0.20706863794265468  0.5570859501750506  0.4346516517891317  1.0000
  O   O4        1.0  0.7071458923542764  0.44309739595850334  0.5654097037711096  1.0000
  O   O5        1.0  0.21068461585483786  0.4167477505901828  0.448572790718643  1.0000
  O   O6        1.0  0.7097447996641151  0.5834523195164608  0.5512688866374376  1.0000
  O   O7        1.0  0.04657409273485771  0.43091108722975946  0.5593792745835202  1.0000
  O   O8        1.0  0.5464758532784302  0.5690455346351441  0.4405139895245256  1.0000
  O   O9        1.0  0.3785905505734987  0.5078446967818381  0.5402470236412283  1.0000
  O   O10       1.0  0.878961561484914  0.49221523697332265  0.45975924507818183  1.0000
  O   O11       1.0  0.22786630843217637  0.941822350903564  0.06423200397173191  1.0000
  O   O12       1.0  0.7244727555832071  0.06079410744796122  0.9379015807220411  1.0000
  O   O13       1.0  0.5663277034246902  0.07629538129152282  0.05736355211792699  1.0000
  O   O14       1.0  0.07024494593210309  0.9211403311363997  0.9452947492408798  1.0000
  O   O15       1.0  0.5694617487751826  0.9354507264381555  0.0618009439808844  1.0000
  O   O16       1.0  0.06639999716644948  0.06153444540937872  0.9359650439534875  1.0000
  O   O17       1.0  0.7296192729312381  0.9203082413255574  0.9422904880179601  1.0000
  O   O18       1.0  0.2260446943757586  0.08166697410948132  0.055202502205752096  1.0000
  O   O19       1.0  0.39747390532044585  0.9928554942816348  0.9603338083127468  1.0000
  O   O20       1.0  0.8971862784017757  0.006972143249868199  0.039597180340514584  1.0000
  O   O21       1.0  0.9639655704739739  0.49915235625197607  0.7007579741220341  1.0000
  O   O22       1.0  0.6566276040420577  0.5398336089776025  0.6741563277015173  1.0000
  O   O23       1.0  0.4649569194225336  0.5006701795513635  0.29948900746292395  1.0000
  O   O24       1.0  0.1568429463310963  0.4603570902927173  0.3257695416180794  1.0000
  F   F1        1.0  0.5783688267376376  0.1832289938780676  0.9101810904704449  1.0000
  F   F2        1.0  0.07949610407347049  0.8176473169663937  0.09013155658895039  1.0000
