data_image0
_chemical_formula_structural       SrCoH10C14N2O10
_chemical_formula_sum              "Sr1 Co1 H10 C14 N2 O10"
_cell_length_a       5.210633983550338
_cell_length_b       7.766522699244182
_cell_length_c       10.374594100923812
_cell_angle_alpha    80.75782727980408
_cell_angle_beta     82.92290058094932
_cell_angle_gamma    77.22136802577472

_space_group_name_H-M_alt    "P 1"
_space_group_IT_number       1

loop_
  _space_group_symop_operation_xyz
  'x, y, z'

loop_
  _atom_site_type_symbol
  _atom_site_label
  _atom_site_symmetry_multiplicity
  _atom_site_fract_x
  _atom_site_fract_y
  _atom_site_fract_z
  _atom_site_occupancy
  Sr  Sr1       1.0  0.5000034414747175  0.9999991202389394  0.4999998306240128  1.0000
  Co  Co1       1.0  2.82406664812429e-06  0.9999990314709134  0.9999988223164066  1.0000
  H   H1        1.0  0.2947145591983613  0.8314627368268787  0.7996597593641255  1.0000
  H   H2        1.0  0.7052847231447001  0.16853939869075416  0.20033918137702494  1.0000
  H   H3        1.0  0.4916987440466016  0.9064503639977203  0.8720266042626786  1.0000
  H   H4        1.0  0.5082982030180575  0.09355312930543386  0.12797326965839767  1.0000
  H   H5        1.0  0.7775341962775926  0.4539318323923211  0.6226870873617044  1.0000
  H   H6        1.0  0.2224674441959493  0.5460689441146795  0.3773099551051401  1.0000
  H   H7        1.0  0.33458106246559527  0.5692551898092901  0.8556980071404111  1.0000
  H   H8        1.0  0.6654188490786553  0.43074428627184597  0.14430603492647257  1.0000
  H   H9        1.0  0.3089042357756782  0.2873300647492413  0.0010385187210318115  1.0000
  H   H10       1.0  0.691096138907661  0.7126680736503984  0.9989618008952018  1.0000
  C   C1        1.0  0.053882552738578254  0.7125444477310126  0.6385512352417917  1.0000
  C   C2        1.0  0.9461151606397209  0.28745637878495944  0.36144794943869835  1.0000
  C   C3        1.0  0.05571196768019606  0.537186536222002  0.7267305281117797  1.0000
  C   C4        1.0  0.9442899988199825  0.4628129099541879  0.27326858247074165  1.0000
  C   C5        1.0  0.8999100019753  0.4211944587731438  0.70438036971678  1.0000
  C   C6        1.0  0.10009159279409374  0.5788063201840783  0.29561860293883757  1.0000
  C   C7        1.0  0.9021866282075235  0.2623954983608385  0.7879765570333672  1.0000
  C   C8        1.0  0.097811062318705  0.7376053293802443  0.21202359274151658  1.0000
  C   C9        1.0  0.2081958599410285  0.4854946830164976  0.8336889019880117  1.0000
  C   C10       1.0  0.791801784881045  0.5145061471748135  0.1663131779756383  1.0000
  C   C11       1.0  0.19545366212827275  0.3271434335630373  0.9160748442563215  1.0000
  C   C12       1.0  0.8045545210414035  0.6728546072688955  0.08392312112139422  1.0000
  C   C13       1.0  0.7478177799674698  0.12783451200045448  0.7735753569292212  1.0000
  C   C14       1.0  0.2521801908812337  0.8721649878600529  0.22642879115010567  1.0000
  N   N1        1.0  0.04502368459600356  0.2163783273535102  0.8943764819911022  1.0000
  N   N2        1.0  0.954972110938826  0.7836225217167153  0.1056218436074445  1.0000
  O   O1        1.0  0.22652748484328095  0.8013113729208282  0.651952926382563  1.0000
  O   O2        1.0  0.7734647096229352  0.19868819582755748  0.3480496095453062  1.0000
  O   O3        1.0  0.3406259558598067  0.8446807120802614  0.8878159030818223  1.0000
  O   O4        1.0  0.6593736982140398  0.15532009065633898  0.11218317558623879  1.0000
  O   O5        1.0  0.8818224082996409  0.7599071767265284  0.5572874837518283  1.0000
  O   O6        1.0  0.11817023993898354  0.2400976993666361  0.44271439445599714  1.0000
  O   O7        1.0  0.7686135393874238  0.9942404769702478  0.8681454974483882  1.0000
  O   O8        1.0  0.23138454572166003  0.0057590167646850016  0.1318538251590056  1.0000
  O   O9        1.0  0.6090530897231118  0.14392081496445286  0.6805462841149319  1.0000
  O   O10       1.0  0.3909516201237366  0.8560825832212158  0.31945316575639277  1.0000
