data_image0
_chemical_formula_structural       Zn2H28C32N8O8
_chemical_formula_sum              "Zn2 H28 C32 N8 O8"
_cell_length_a       9.109407095231104
_cell_length_b       9.88803361731668
_cell_length_c       9.887888732762793
_cell_angle_alpha    109.3917789010597
_cell_angle_beta     97.6340787601285
_cell_angle_gamma    97.63458000564844

_space_group_name_H-M_alt    "P 1"
_space_group_IT_number       1

loop_
  _space_group_symop_operation_xyz
  'x, y, z'

loop_
  _atom_site_type_symbol
  _atom_site_label
  _atom_site_symmetry_multiplicity
  _atom_site_fract_x
  _atom_site_fract_y
  _atom_site_fract_z
  _atom_site_occupancy
  Zn  Zn1       1.0  0.2499996203359132  0.40283463305342343  0.5971552279810555  1.0000
  Zn  Zn2       1.0  0.7500020343189533  0.5971636683979541  0.4028418105234268  1.0000
  H   H1        1.0  0.19339902146595733  0.8431987113426659  0.5281773483028548  1.0000
  H   H2        1.0  0.3066045687370789  0.4718117470507225  0.1567997293098032  1.0000
  H   H3        1.0  0.8066032683432525  0.15680297708956908  0.47182588583059754  1.0000
  H   H4        1.0  0.693402175911565  0.5281779372922627  0.843196224300535  1.0000
  H   H5        1.0  0.5187408782424328  0.23619307887987873  0.6926547538484374  1.0000
  H   H6        1.0  0.9812539712057103  0.3073415648171789  0.7638084324784205  1.0000
  H   H7        1.0  0.4812704931316887  0.7638098247914442  0.3073499426488838  1.0000
  H   H8        1.0  0.018734399751743132  0.6926566634408431  0.2361920593189312  1.0000
  H   H9        1.0  0.6042775210477345  0.9791048428378989  0.6729124891973304  1.0000
  H   H10       1.0  0.8957214030432255  0.32709207513061495  0.02090441793674811  1.0000
  H   H11       1.0  0.3957186191867095  0.020899250489364408  0.327104928814201  1.0000
  H   H12       1.0  0.10428069752548913  0.6729085442278304  0.979099469946178  1.0000
  H   H13       1.0  0.45661995186535626  0.8272673313370263  0.6284659099275702  1.0000
  H   H14       1.0  0.04338231313796831  0.3715359933917526  0.17274524424795606  1.0000
  H   H15       1.0  0.5433857196479792  0.1727408698716388  0.37153673466395554  1.0000
  H   H16       1.0  0.9566215411698452  0.6284743824504632  0.8272588775477208  1.0000
  H   H17       1.0  0.07854889773883401  0.061976361122930305  0.4498098151464662  1.0000
  H   H18       1.0  0.4214461496724907  0.5501787984832732  0.9380158060064193  1.0000
  H   H19       1.0  0.9214499721871618  0.9380308130600168  0.5501987784748296  1.0000
  H   H20       1.0  0.578548442755256  0.44980511623233355  0.06196981040562118  1.0000
  H   H21       1.0  0.550972215085423  0.7665062194173303  0.8357892471400707  1.0000
  H   H22       1.0  0.9490241485421436  0.16420683593590726  0.2334946643974051  1.0000
  H   H23       1.0  0.4490186211236562  0.23348115525107002  0.16420813430714534  1.0000
  H   H24       1.0  0.05097935257200704  0.8358014691685157  0.7665138237262501  1.0000
  H   H25       1.0  0.43104782707112577  0.18852337847616957  0.90206012127009  1.0000
  H   H26       1.0  0.06894648318584022  0.09794415778388552  0.811479639496  1.0000
  H   H27       1.0  0.568937729903695  0.8114715442268264  0.09793899882075155  1.0000
  H   H28       1.0  0.9310681565138593  0.9020643918194651  0.1885342976959451  1.0000
  C   C1        1.0  0.24341277886050963  0.9553694071650868  0.5464745513583442  1.0000
  C   C2        1.0  0.2565901840417056  0.453515908970772  0.044629005294048375  1.0000
  C   C3        1.0  0.756585472769359  0.04463442497687709  0.45352988585334253  1.0000
  C   C4        1.0  0.7434138221549986  0.5464770036176533  0.9553676347079977  1.0000
  C   C5        1.0  0.5458796246265507  0.528322932836822  0.5801359301550165  1.0000
  C   C6        1.0  0.9541189320009097  0.41986116499592196  0.4716782012042774  1.0000
  C   C7        1.0  0.45410559105258125  0.4716768479046253  0.4198383723223247  1.0000
  C   C8        1.0  0.045901823225875694  0.5801512214037315  0.5283103552820452  1.0000
  C   C9        1.0  0.4140026409353368  0.16015537832370802  0.636116965679847  1.0000
  C   C10       1.0  0.0859945874169696  0.36387917711223144  0.8398468263834292  1.0000
  C   C11       1.0  0.5860002418826866  0.8398495847397315  0.3638873660341917  1.0000
  C   C12       1.0  0.9140031596265673  0.6361158482620654  0.16015074257093445  1.0000
  C   C13       1.0  0.4902660973636372  0.9448302246609687  0.6899529542977094  1.0000
  C   C14       1.0  0.009730103324905301  0.3100401154341341  0.05516813517390771  1.0000
  C   C15       1.0  0.5097363187158874  0.055160264678733015  0.31003262082424515  1.0000
  C   C16       1.0  0.9902696204146509  0.6899658253774706  0.9448330923824318  1.0000
  C   C17       1.0  0.4913386984778825  0.9746513619414261  0.8502818108706838  1.0000
  C   C18       1.0  0.008655325709959508  0.14972452163244301  0.025356940785890517  1.0000
  C   C19       1.0  0.5086444398535123  0.025342438293996804  0.14971666923404578  1.0000
  C   C20       1.0  0.9913582456483709  0.8502841248586606  0.9746619573914619  1.0000
  C   C21       1.0  0.18693049390714836  0.06459473624735781  0.5115687098525828  1.0000
  C   C22       1.0  0.31306866029026287  0.4884203370776208  0.9354019027612287  1.0000
  C   C23       1.0  0.8130716990504822  0.9354124618514207  0.48843927534791504  1.0000
  C   C24       1.0  0.6869292004630764  0.5115692235700138  0.06459295434542871  1.0000
  C   C25       1.0  0.5290716061923249  0.8694359813767748  0.9075835384422039  1.0000
  C   C26       1.0  0.9709272859768987  0.0924198163742389  0.13057121638380664  1.0000
  C   C27       1.0  0.4709115068517419  0.1305577514488476  0.09241188283349541  1.0000
  C   C28       1.0  0.029088842690711717  0.9075908868386264  0.8694415503721377  1.0000
  C   C29       1.0  0.4620836029312159  0.1050670363730504  0.9439656791443201  1.0000
  C   C30       1.0  0.0379052778183961  0.0560282758987114  0.894925382865893  1.0000
  C   C31       1.0  0.5378977181946639  0.8949289384959304  0.05603427816456025  1.0000
  C   C32       1.0  0.9620984085698084  0.9439689874027122  0.10507258351398722  1.0000
  N   N1        1.0  0.29386653024251064  0.19150550694823207  0.5686658719330782  1.0000
  N   N2        1.0  0.20612853189852842  0.43132681858235605  0.808487061315589  1.0000
  N   N3        1.0  0.7061370761523236  0.8084973109595879  0.43133888473320803  1.0000
  N   N4        1.0  0.7938671665534686  0.5686692000020345  0.19150754054403776  1.0000
  N   N5        1.0  0.38794007907149103  0.017792096788184608  0.6247695244466559  1.0000
  N   N6        1.0  0.11205408580016751  0.37522581181163867  0.9822086050040757  1.0000
  N   N7        1.0  0.6120622275959349  0.9822096365839246  0.37523574890614264  1.0000
  N   N8        1.0  0.8879358878349849  0.6247691053292287  0.017788004509576266  1.0000
  O   O1        1.0  0.4789203016406418  0.5019263979728664  0.6763950737274913  1.0000
  O   O2        1.0  0.02107391187712443  0.3236032988319124  0.49807141007905664  1.0000
  O   O3        1.0  0.5210718298331827  0.4980741496381072  0.3236106394178295  1.0000
  O   O4        1.0  0.9789363534727543  0.6763875009706268  0.5019243009706715  1.0000
  O   O5        1.0  0.6795829127114317  0.5963654405355426  0.6045237212567403  1.0000
  O   O6        1.0  0.8204107923948526  0.3954840264489406  0.4036548943833795  1.0000
  O   O7        1.0  0.32042178698083756  0.40364367946539664  0.3954720148643107  1.0000
  O   O8        1.0  0.1795962798288713  0.6045139927930947  0.5963265156811135  1.0000
