data_image0
_chemical_formula_structural       Zn2H15C30N3O14
_chemical_formula_sum              "Zn2 H15 C30 N3 O14"
_cell_length_a       9.50737748147556
_cell_length_b       11.01261316471006
_cell_length_c       13.616546294193475
_cell_angle_alpha    89.12807301872402
_cell_angle_beta     115.71299801625835
_cell_angle_gamma    91.22962519246019

_space_group_name_H-M_alt    "P 1"
_space_group_IT_number       1

loop_
  _space_group_symop_operation_xyz
  'x, y, z'

loop_
  _atom_site_type_symbol
  _atom_site_label
  _atom_site_symmetry_multiplicity
  _atom_site_fract_x
  _atom_site_fract_y
  _atom_site_fract_z
  _atom_site_occupancy
  Zn  Zn1       1.0  0.6493459455291558  0.4976302569303855  0.5204354908877561  1.0000
  Zn  Zn2       1.0  0.3418302664737638  0.49430692535456455  0.4783322627727172  1.0000
  H   H1        1.0  0.15634289977841584  0.6320652376145831  0.1404222674260112  1.0000
  H   H2        1.0  0.19242436541394173  0.7009470601531904  0.8001378896667432  1.0000
  H   H3        1.0  0.5845022917286613  0.4692968785786535  0.1872426612017293  1.0000
  H   H4        1.0  0.853060167352993  0.42945553757171256  0.8576710776664241  1.0000
  H   H5        1.0  0.9433134180392386  0.4183653718171671  0.0596114403163099  1.0000
  H   H6        1.0  0.3706771287444041  0.6345694479146858  0.7263163172579468  1.0000
  H   H7        1.0  0.30238668492145143  0.10256612712943547  0.5458815617436911  1.0000
  H   H8        1.0  0.3094980190439216  0.8749887434533296  0.548465236536316  1.0000
  H   H9        1.0  0.6744881598637705  0.8892611360381725  0.4430132209868347  1.0000
  H   H10       1.0  0.6723868786365941  0.11705018580294543  0.4446254955346091  1.0000
  H   H11       1.0  0.06349683035533359  0.664038269039786  0.4135900402452108  1.0000
  H   H12       1.0  0.8204544026227581  0.6641176783284667  0.4494302466922305  1.0000
  H   H13       1.0  0.17596394288803202  0.32329235844008525  0.5585337570237243  1.0000
  H   H14       1.0  0.9461974256335564  0.135784885949299  0.6497774170481206  1.0000
  H   H15       1.0  0.9611823924822218  0.40865159373507254  0.29720040795513814  1.0000
  C   C1        1.0  0.48689142535840085  0.25868125341498444  0.49695845855591597  1.0000
  C   C2        1.0  0.5825855022627948  0.504073803434686  0.7081649317437166  1.0000
  C   C3        1.0  0.4937528219214543  0.7333185099482977  0.495760357267585  1.0000
  C   C4        1.0  0.41022865351126103  0.512156299451519  0.2897097574734246  1.0000
  C   C5        1.0  0.21393746241223968  0.6430013018394052  0.004531611820439682  1.0000
  C   C6        1.0  0.37625271941340094  0.5466710536987666  0.17471981134887213  1.0000
  C   C7        1.0  0.778776943807749  0.45976645577406594  0.8946658334162263  1.0000
  C   C8        1.0  0.8275909185197322  0.4521729151108575  0.007158164555590875  1.0000
  C   C9        1.0  0.7323688027634816  0.4898433733875579  0.05484000048622303  1.0000
  C   C10       1.0  0.5793154634106513  0.5336644268905674  0.9891825940248252  1.0000
  C   C11       1.0  0.5352729718932139  0.5490880236716934  0.8752486028252234  1.0000
  C   C12       1.0  0.4638249945852309  0.559147727459788  0.02979298157319484  1.0000
  C   C13       1.0  0.3212002438888605  0.6185796985858831  0.9599215582678866  1.0000
  C   C14       1.0  0.2958030646030068  0.6505517210213372  0.8514844450085518  1.0000
  C   C15       1.0  0.3954915715487672  0.6133044295951537  0.8105152681565782  1.0000
  C   C16       1.0  0.48394547076197375  0.5215738669508739  0.13429094077184797  1.0000
  C   C17       1.0  0.24052927773637836  0.6098622710311405  0.10943124931949198  1.0000
  C   C18       1.0  0.6339182101209744  0.5073207610280976  0.8288830156882057  1.0000
  C   C19       1.0  0.3841473232334991  0.05522067768263382  0.5239960151681159  1.0000
  C   C20       1.0  0.3875172156430082  0.9290168663885017  0.5250422032082013  1.0000
  C   C21       1.0  0.49254737657407344  0.8690577593649497  0.4961506552743414  1.0000
  C   C22       1.0  0.5949944877136986  0.9369800750720008  0.4668245143845837  1.0000
  C   C23       1.0  0.5934543001023371  0.06325121111986223  0.46738445522696986  1.0000
  C   C24       1.0  0.487742424052314  0.12298729002281314  0.4958083813612004  1.0000
  C   C25       1.0  0.0343009459355628  0.5892503153708832  0.4548552825133569  1.0000
  C   C26       1.0  0.9039262118469011  0.5905538270360681  0.4767925774883181  1.0000
  C   C27       1.0  0.9709133558628552  0.4034708426239747  0.5626499556424774  1.0000
  C   C28       1.0  0.0968833674887009  0.3996189364014954  0.5364832957787583  1.0000
  C   C29       1.0  0.9492609367122214  0.3068458931202046  0.6345961280295923  1.0000
  C   C30       1.0  0.8156702095246686  0.4977518274339021  0.17589985148990903  1.0000
  N   N1        1.0  0.8737963847477275  0.4987414604476542  0.5306610485802777  1.0000
  N   N2        1.0  0.1275410111648014  0.49289269750554626  0.4833933799507975  1.0000
  N   N3        1.0  0.06545385121207657  0.7058972526689333  0.9409648406215252  1.0000
  O   O1        1.0  0.6178295771962539  0.3132416915179947  0.5243820992315804  1.0000
  O   O2        1.0  0.3560310883787139  0.3094145246710554  0.471106482731642  1.0000
  O   O3        1.0  0.6863084319531296  0.5275365417039098  0.6750338994239156  1.0000
  O   O4        1.0  0.44137339043694374  0.47310584617591206  0.6482979830979118  1.0000
  O   O5        1.0  0.6066586800367872  0.6823257100066942  0.4868253934520224  1.0000
  O   O6        1.0  0.3801892600448086  0.6775509345159921  0.504177269345746  1.0000
  O   O7        1.0  0.5487078707666909  0.47925379692686954  0.3509075440468122  1.0000
  O   O8        1.0  0.2997685230365974  0.5216509417574218  0.3186540063445306  1.0000
  O   O9        1.0  0.9323265878538507  0.3289866485586118  0.7157586893653017  1.0000
  O   O10       1.0  0.9621960820126463  0.19443660964591916  0.6004053320881724  1.0000
  O   O11       1.0  0.014351614878137285  0.7688878352235169  0.9927601112002689  1.0000
  O   O12       1.0  0.9985038071630827  0.6912404431281804  0.8407014093770541  1.0000
  O   O13       1.0  0.827792640399629  0.5891027664112872  0.22937503462794234  1.0000
  O   O14       1.0  0.8903491990069057  0.39258377784512555  0.22080586971684102  1.0000
