data_image0
_chemical_formula_structural       Al4H28C60Cl8O20
_chemical_formula_sum              "Al4 H28 C60 Cl8 O20"
_cell_length_a       6.65831844037361
_cell_length_b       21.38946463496033
_cell_length_c       24.62029654546806
_cell_angle_alpha    99.08035362083713
_cell_angle_beta     89.99986284086555
_cell_angle_gamma    90.00120937447831

_space_group_name_H-M_alt    "P 1"
_space_group_IT_number       1

loop_
  _space_group_symop_operation_xyz
  'x, y, z'

loop_
  _atom_site_type_symbol
  _atom_site_label
  _atom_site_symmetry_multiplicity
  _atom_site_fract_x
  _atom_site_fract_y
  _atom_site_fract_z
  _atom_site_occupancy
  Al  Al1       1.0  0.780322327822816  0.7500102753972586  0.24888682982295046  1.0000
  Al  Al2       1.0  0.2186092009841971  0.2500543214800857  0.752214174473316  1.0000
  Al  Al3       1.0  0.28032371783454124  0.7499965411586301  0.25111701254407137  1.0000
  Al  Al4       1.0  0.7186032958742958  0.24995627360405587  0.7477931670743769  1.0000
  H   H1        1.0  0.8003020649468553  0.9129032178427893  0.5094834257338902  1.0000
  H   H2        1.0  0.29262837704733613  0.0623617701676125  0.5106947762147768  1.0000
  H   H3        1.0  0.3004918295085731  0.5871352192613416  0.9905087415693784  1.0000
  H   H4        1.0  0.7926199949762635  0.43763700859872046  0.989316998193324  1.0000
  H   H5        1.0  0.23898949885955295  0.9345344787602842  0.35090995026472177  1.0000
  H   H6        1.0  0.6865369231670115  0.09107550513241591  0.6282944836941055  1.0000
  H   H7        1.0  0.7388368359216813  0.5654340510879338  0.1491271320861074  1.0000
  H   H8        1.0  0.18656779597053946  0.4089413326211827  0.8717149551905834  1.0000
  H   H9        1.0  0.21762589981747038  0.022841099949666002  0.42880567500076683  1.0000
  H   H10       1.0  0.6899821422905108  0.006325751178906088  0.5470794700798151  1.0000
  H   H11       1.0  0.7175129261669969  0.4771421323906893  0.0712129256764626  1.0000
  H   H12       1.0  0.19003423214586232  0.4936999769373217  0.9529246434546151  1.0000
  H   H13       1.0  0.3041238409792655  0.9772792044284773  0.08783084182037727  1.0000
  H   H14       1.0  0.6907946310791787  0.02201257492421151  0.9112709198268545  1.0000
  H   H15       1.0  0.8040372029105712  0.5226813743766813  0.41213832990877103  1.0000
  H   H16       1.0  0.19080472444085936  0.47797909609744244  0.5887257073291818  1.0000
  H   H17       1.0  0.7456613292345082  0.8309510446525081  0.1123649880904267  1.0000
  H   H18       1.0  0.25096176869458736  0.16800285186754849  0.8878196876986519  1.0000
  H   H19       1.0  0.24565039277666764  0.6690316589749941  0.3876281324660694  1.0000
  H   H20       1.0  0.7509847900879337  0.33200002596650074  0.6121851414286111  1.0000
  H   H21       1.0  0.7237119222795344  0.8976033372038614  0.03815074437908089  1.0000
  H   H22       1.0  0.2728435481061667  0.10016018752833132  0.9611322035511306  1.0000
  H   H23       1.0  0.22365477013710236  0.6023761349111184  0.46183292974402684  1.0000
  H   H24       1.0  0.7728497916428838  0.399836391397038  0.5388627247346278  1.0000
  H   H25       1.0  0.5272355692464715  0.8289533628816843  0.23990997935621997  1.0000
  H   H26       1.0  0.4725564893829528  0.1699594797706609  0.7578723112763652  1.0000
  H   H27       1.0  0.027233123566709608  0.6710448472637013  0.26007061203033993  1.0000
  H   H28       1.0  0.9725665301004442  0.3300458039230847  0.7421274103386535  1.0000
  C   C1        1.0  0.5329212395040842  0.6778222443415771  0.3165300818454496  1.0000
  C   C2        1.0  0.46483129331484463  0.3217890221174359  0.6829499033051009  1.0000
  C   C3        1.0  0.0329287054348484  0.8221783418119772  0.18347147892249893  1.0000
  C   C4        1.0  0.9648268604725274  0.17821434125534105  0.8170498197800808  1.0000
  C   C5        1.0  0.527992962982296  0.6713036711000201  0.1676212641656605  1.0000
  C   C6        1.0  0.4725050466576378  0.329440434204578  0.8319610508862778  1.0000
  C   C7        1.0  0.027986622093642707  0.8287005705789524  0.3323852434180238  1.0000
  C   C8        1.0  0.9724933170412131  0.17057340622278622  0.6680473261016074  1.0000
  C   C9        1.0  0.8919229352340141  0.9196632599214569  0.4742394437243718  1.0000
  C   C10       1.0  0.15711242869395653  0.06778912550596772  0.5357598952727612  1.0000
  C   C11       1.0  0.39206779077869675  0.5803606034267049  0.0257536610654441  1.0000
  C   C12       1.0  0.6571155626623552  0.43221770183797753  0.9642495424520587  1.0000
  C   C13       1.0  0.8984017885566972  0.8714068323546729  0.4290167811502172  1.0000
  C   C14       1.0  0.15248088943783966  0.1160683955885062  0.5809900147624415  1.0000
  C   C15       1.0  0.39852763952428927  0.6286103959124959  0.07098082430152888  1.0000
  C   C16       1.0  0.6524639769027305  0.3839275709085896  0.9190189884066909  1.0000
  C   C17       1.0  0.022449448093695402  0.8764961578654537  0.3837532697519207  1.0000
  C   C18       1.0  0.9837436842978279  0.12397127185377603  0.6160417312369901  1.0000
  C   C19       1.0  0.5224973213584434  0.6235093783750473  0.11625283441176042  1.0000
  C   C20       1.0  0.4837438410217061  0.3760408242781565  0.8839616985973888  1.0000
  C   C21       1.0  0.14067936117607624  0.9310115308402944  0.3857241752863913  1.0000
  C   C22       1.0  0.8190430279959031  0.08354474834469271  0.6021156720824121  1.0000
  C   C23       1.0  0.6406799516611416  0.5689805730591075  0.11428878865259409  1.0000
  C   C24       1.0  0.31907154549340083  0.41647252297185844  0.8978887266667852  1.0000
  C   C25       1.0  0.13021604183263952  0.9800325091109913  0.42994680913523803  1.0000
  C   C26       1.0  0.8226202669963598  0.0358601571370798  0.5567780898778024  1.0000
  C   C27       1.0  0.6301139370905916  0.5199504489622699  0.07008340825540668  1.0000
  C   C28       1.0  0.3226372509264976  0.4641506807528941  0.9432320458053524  1.0000
  C   C29       1.0  0.005095815105164501  0.9752375614330904  0.4751674718868982  1.0000
  C   C30       1.0  0.9940219976749989  0.0265379369258412  0.5229948868159581  1.0000
  C   C31       1.0  0.5050914272323724  0.5247657364931869  0.024847685824916296  1.0000
  C   C32       1.0  0.4940427951690651  0.47347301451411994  0.9770122320461282  1.0000
  C   C33       1.0  0.18188166843548004  0.9447246080471177  0.09245200575159629  1.0000
  C   C34       1.0  0.813448317813027  0.05451481738928979  0.9069065861244636  1.0000
  C   C35       1.0  0.6818107438107647  0.5552441961345452  0.4075205748963525  1.0000
  C   C36       1.0  0.3134592211440932  0.4454823878984158  0.5930903664577514  1.0000
  C   C37       1.0  0.19296736292912445  0.9067601353226918  0.13343955837977006  1.0000
  C   C38       1.0  0.8025759134818742  0.09312300118769198  0.8663667297071382  1.0000
  C   C39       1.0  0.69293035612656  0.5932246064360883  0.36654333160564784  1.0000
  C   C40       1.0  0.3025813894510279  0.4068842691227205  0.6336372462473462  1.0000
  C   C41       1.0  0.035265475958787804  0.8648669462767276  0.1409576771632928  1.0000
  C   C42       1.0  0.9607779261340926  0.13497267269344354  0.8591942691080019  1.0000
  C   C43       1.0  0.5352418006723313  0.6351232266989443  0.35903522174533004  1.0000
  C   C44       1.0  0.46079710577032545  0.36503282933920644  0.6408071071643063  1.0000
  C   C45       1.0  0.8675955926829886  0.8629531170958772  0.10591534266889369  1.0000
  C   C46       1.0  0.12856793371312852  0.13612944187814693  0.8941047888946442  1.0000
  C   C47       1.0  0.3675674881574694  0.6370259631009391  0.3940739695999155  1.0000
  C   C48       1.0  0.6285900926826643  0.3638776797004227  0.6058968611021951  1.0000
  C   C49       1.0  0.8551341465282009  0.90008236603061  0.06475096621750248  1.0000
  C   C50       1.0  0.1409993166379024  0.09828995011421433  0.9347263295806341  1.0000
  C   C51       1.0  0.3550826958930103  0.5999001835560094  0.4352346646156774  1.0000
  C   C52       1.0  0.6410013183636424  0.4017131968180436  0.5652683110333071  1.0000
  C   C53       1.0  0.013242810062713805  0.9419845577510485  0.057574109332776395  1.0000
  C   C54       1.0  0.9823319561832805  0.05648961590021879  0.9416041329606415  1.0000
  C   C55       1.0  0.5131737541640647  0.5579916068440413  0.44240397142864646  1.0000
  C   C56       1.0  0.4823290290564304  0.44350599004585695  0.5583881560110838  1.0000
  C   C57       1.0  0.0027053590000961003  0.9816061737827797  0.0167687272712982  1.0000
  C   C58       1.0  0.9926516182759361  0.016417676915864418  0.9820552201289059  1.0000
  C   C59       1.0  0.5026443243134652  0.5183633106998898  0.48320112255395725  1.0000
  C   C60       1.0  0.4926482112317744  0.4835667508220141  0.5179316876885094  1.0000
  Cl  Cl1       1.0  0.7583431051715837  0.8037363846680777  0.43187055579964095  1.0000
  Cl  Cl2       1.0  0.35891010443449295  0.16583533084642713  0.5897442928372171  1.0000
  Cl  Cl3       1.0  0.25857868839668197  0.6962986760143579  0.06811158468018867  1.0000
  Cl  Cl4       1.0  0.8588837456619844  0.33416699863676763  0.9102666143848807  1.0000
  Cl  Cl5       1.0  0.4041532855523543  0.9173598448727418  0.17520106459349444  1.0000
  Cl  Cl6       1.0  0.5905970307635259  0.08346394767484357  0.8249327887177598  1.0000
  Cl  Cl7       1.0  0.9040777935307747  0.5826203669864186  0.3247775312554849  1.0000
  Cl  Cl8       1.0  0.09060488060517712  0.41653694277049175  0.6750746324472771  1.0000
  O   O1        1.0  0.35950211449913644  0.6885252420351337  0.18900046120088376  1.0000
  O   O2        1.0  0.6372562406261368  0.31325705693675593  0.8078820419413119  1.0000
  O   O3        1.0  0.8595022329168033  0.8114850883072505  0.31099921430446636  1.0000
  O   O4        1.0  0.1372575191388776  0.18674710332756922  0.6921315166097697  1.0000
  O   O5        1.0  0.7000555603093589  0.6947020331093087  0.29892333089491524  1.0000
  O   O6        1.0  0.2987903576571541  0.30529980477901114  0.7015953445090017  1.0000
  O   O7        1.0  0.20004995097465894  0.8053027392706653  0.20108509403629424  1.0000
  O   O8        1.0  0.7987884551468486  0.19470513006650952  0.7984061618458111  1.0000
  O   O9        1.0  0.7007579227555  0.6879960464188528  0.186727870101592  1.0000
  O   O10       1.0  0.2979167681075907  0.3115674313316816  0.8146617324797772  1.0000
  O   O11       1.0  0.20075635252303675  0.8120052547763948  0.3132846569523479  1.0000
  O   O12       1.0  0.7979063463778502  0.1884438445650645  0.6853439018426071  1.0000
  O   O13       1.0  0.8606056153646267  0.8053246830131969  0.19851279962873747  1.0000
  O   O14       1.0  0.1380225730900762  0.19583641438008212  0.8034276158290724  1.0000
  O   O15       1.0  0.36061250372804216  0.6946721997946312  0.3014769739990227  1.0000
  O   O16       1.0  0.6380336183903808  0.30417499573694323  0.6965793820298102  1.0000
  O   O17       1.0  0.5302740288191147  0.7884646649329242  0.25294121281567067  1.0000
  O   O18       1.0  0.4688767725877768  0.21162402843791742  0.7470711574770376  1.0000
  O   O19       1.0  0.030274277579557904  0.7115460935756204  0.24706243125746136  1.0000
  O   O20       1.0  0.9688825258461694  0.28838260753056494  0.7529310373413622  1.0000
