data_image0
_chemical_formula_structural       Zn2H4C40N4Cl8O12
_chemical_formula_sum              "Zn2 H4 C40 N4 Cl8 O12"
_cell_length_a       13.175743989661424
_cell_length_b       14.395347986778749
_cell_length_c       23.7164593531279
_cell_angle_alpha    90.00111716657598
_cell_angle_beta     89.99988993909969
_cell_angle_gamma    89.47510693938537

_space_group_name_H-M_alt    "P 1"
_space_group_IT_number       1

loop_
  _space_group_symop_operation_xyz
  'x, y, z'

loop_
  _atom_site_type_symbol
  _atom_site_label
  _atom_site_symmetry_multiplicity
  _atom_site_fract_x
  _atom_site_fract_y
  _atom_site_fract_z
  _atom_site_occupancy
  Zn  Zn1       1.0  0.6061300133108461  0.491760682094764  0.49999850316023475  1.0000
  Zn  Zn2       1.0  0.393883058665871  0.5082418693770876  0.49999755455814904  1.0000
  H   H1        1.0  0.314389909629547  0.6622185876440057  0.9466347777117005  1.0000
  H   H2        1.0  0.6856073652938902  0.3377583202621964  0.05336465305605738  1.0000
  H   H3        1.0  0.6856056834225298  0.33775739574110036  0.9466320537873895  1.0000
  H   H4        1.0  0.31438704904162756  0.6622174452488212  0.05336864191711749  1.0000
  C   C1        1.0  0.5163078373445558  0.6794811147673627  0.5000009712816079  1.0000
  C   C2        1.0  0.4836854739998415  0.32052637377454846  0.4999921349496716  1.0000
  C   C3        1.0  0.500012260728198  0.4999991501493922  0.3906615144178146  1.0000
  C   C4        1.0  0.5000198397136728  0.4999936042708272  0.6093379164077815  1.0000
  C   C5        1.0  0.5713650168634529  0.4409902340559882  0.8783350665331252  1.0000
  C   C6        1.0  0.42862848609126286  0.5589825199263531  0.12166099102915946  1.0000
  C   C7        1.0  0.4286336347822228  0.5589863219209904  0.8783401282501229  1.0000
  C   C8        1.0  0.5713628581548135  0.440994757021791  0.12166098913550626  1.0000
  C   C9        1.0  0.43152199475428427  0.5591772155130246  0.9407482615295135  1.0000
  C   C10       1.0  0.568478312307093  0.4408003756723319  0.05925201253535308  1.0000
  C   C11       1.0  0.5684796543482094  0.44080202933446344  0.9407469983556633  1.0000
  C   C12       1.0  0.4315206488809409  0.5591762565430332  0.05925327571331708  1.0000
  C   C13       1.0  0.4999985682006524  0.49998489005800917  0.969952031371626  1.0000
  C   C14       1.0  0.49999874887688384  0.4999843762549858  0.030048664295179592  1.0000
  C   C15       1.0  0.3657665220179851  0.6172362565889243  0.970399810423437  1.0000
  C   C16       1.0  0.6342284912563159  0.3827378811321722  0.029600463626458393  1.0000
  C   C17       1.0  0.6342313577987824  0.38273631379529877  0.9703977246572673  1.0000
  C   C18       1.0  0.3657651811251553  0.6172364288282496  0.02960254938280829  1.0000
  C   C19       1.0  0.4532808055974158  0.42744885732697924  0.2381257171063566  1.0000
  C   C20       1.0  0.5467102364315223  0.5725572505225005  0.7618749787848739  1.0000
  C   C21       1.0  0.5467194822026755  0.5725501900255242  0.23812479260165273  1.0000
  C   C22       1.0  0.45328832664450397  0.4274433504585033  0.7618721083650468  1.0000
  C   C23       1.0  0.4546001130848721  0.4269967762492613  0.29734998340435226  1.0000
  C   C24       1.0  0.5453985648569669  0.573000966714645  0.7026498691333242  1.0000
  C   C25       1.0  0.5454062482349967  0.572997899248364  0.2973490669371585  1.0000
  C   C26       1.0  0.4546099325245834  0.4269914416327439  0.7026461474036692  1.0000
  C   C27       1.0  0.500006973154342  0.49999675660760096  0.32692265788065805  1.0000
  C   C28       1.0  0.500009958932921  0.4999939708282499  0.673074243059993  1.0000
  C   C29       1.0  0.5000009340228856  0.49999488211394555  0.20884010776007494  1.0000
  C   C30       1.0  0.5000023323649074  0.4999965914605653  0.7911584797914767  1.0000
  C   C31       1.0  0.5211882337729604  0.7794734131952269  0.5000053526429865  1.0000
  C   C32       1.0  0.47879747231550596  0.22053688274256444  0.49999154844562793  1.0000
  C   C33       1.0  0.5148723546448436  0.8645792271290064  0.500009657479012  1.0000
  C   C34       1.0  0.4851072909959839  0.1354290077886944  0.4999998930466275  1.0000
  C   C35       1.0  0.5055145677124598  0.9573768467206635  0.5000102161237192  1.0000
  C   C36       1.0  0.49445521485468896  0.042630730763093504  0.500006924073986  1.0000
  C   C37       1.0  0.1485828658736139  0.5101022306518815  0.5000032999077033  1.0000
  C   C38       1.0  0.8514248471636634  0.4899086773863175  0.5000092021415055  1.0000
  C   C39       1.0  0.0462045011039933  0.5032191411009848  0.5000046296890657  1.0000
  C   C40       1.0  0.9538100390344579  0.4967924359196446  0.5000078723570595  1.0000
  N   N1        1.0  0.500000065465791  0.4999927056487153  0.8514313889257676  1.0000
  N   N2        1.0  0.4999986814562901  0.4999925328431233  0.14856762024164985  1.0000
  N   N3        1.0  0.23679057674024756  0.5161230693357484  0.5000024012840496  1.0000
  N   N4        1.0  0.7632231967426788  0.48388989983771347  0.5000046193458161  1.0000
  Cl  Cl1       1.0  0.39494183824936596  0.3405351052347997  0.20126309966602202  1.0000
  Cl  Cl2       1.0  0.6050165019500329  0.6594829352163528  0.7987375963295162  1.0000
  Cl  Cl3       1.0  0.6050394607302253  0.6594690811558693  0.20126266163568116  1.0000
  Cl  Cl4       1.0  0.3949615210164907  0.34052379030507757  0.7987317094455119  1.0000
  Cl  Cl5       1.0  0.40212363918709565  0.33592463421063473  0.3336382207117693  1.0000
  Cl  Cl6       1.0  0.5978575167774096  0.6640849842086992  0.6663607886180285  1.0000
  Cl  Cl7       1.0  0.5978728005732775  0.6640774968246035  0.3336382736630766  1.0000
  Cl  Cl8       1.0  0.4021441353472639  0.33591253585812814  0.6663548324405679  1.0000
  O   O1        1.0  0.5999487177791138  0.6341949626619582  0.49999935218326624  1.0000
  O   O2        1.0  0.4000400511071831  0.36581045889591485  0.4999908025037667  1.0000
  O   O3        1.0  0.5730737357162852  0.3533142590951855  0.4999951882971556  1.0000
  O   O4        1.0  0.4269188089700222  0.6466946217486084  0.5000017127760399  1.0000
  O   O5        1.0  0.5857095714297884  0.4894554996041478  0.4141851111235864  1.0000
  O   O6        1.0  0.4143225405099215  0.5105351706719077  0.5858101032086791  1.0000
  O   O7        1.0  0.5857179071511566  0.48945197367983456  0.5858140182419758  1.0000
  O   O8        1.0  0.4143126523119491  0.5105449546200518  0.4141862559061023  1.0000
  O   O9        1.0  0.6310186807936801  0.39387174273082354  0.850505108442995  1.0000
  O   O10       1.0  0.3689687770450972  0.6060961713002656  0.14949347898547666  1.0000
  O   O11       1.0  0.3689761836901084  0.6061053225488707  0.8505087424506282  1.0000
  O   O12       1.0  0.6310263965160274  0.3938729548061489  0.14949448315265093  1.0000
