data_image0
_chemical_formula_structural       Ni4H48C32O28
_chemical_formula_sum              "Ni4 H48 C32 O28"
_cell_length_a       8.703911488
_cell_length_b       10.738935937665659
_cell_length_c       10.9145
_cell_angle_alpha    107.54975471076276
_cell_angle_beta     90.0
_cell_angle_gamma    90.0

_space_group_name_H-M_alt    "P 1"
_space_group_IT_number       1

loop_
  _space_group_symop_operation_xyz
  'x, y, z'

loop_
  _atom_site_type_symbol
  _atom_site_label
  _atom_site_symmetry_multiplicity
  _atom_site_fract_x
  _atom_site_fract_y
  _atom_site_fract_z
  _atom_site_occupancy
  Ni  Ni1       1.0  0.2232639891477746  0.710703287722758  0.6000252859269181  1.0000
  Ni  Ni2       1.0  0.7242307103755294  0.7888302933698766  0.3998399542779367  1.0000
  Ni  Ni3       1.0  0.7762153842343835  0.28894735149362555  0.39988966357424965  1.0000
  Ni  Ni4       1.0  0.2759966025978073  0.21086624833123577  0.600164659364381  1.0000
  H   H1        1.0  0.2821650936347382  0.7976963094616849  0.22803084864833775  1.0000
  H   H2        1.0  0.78147623736497  0.7024213075004013  0.7718445796093575  1.0000
  H   H3        1.0  0.7180656660648239  0.202353779036649  0.7721464562415931  1.0000
  H   H4        1.0  0.2181869614159382  0.29791786898682904  0.22807766193717774  1.0000
  H   H5        1.0  0.507176572979418  0.9860273677397728  0.3304280983030523  1.0000
  H   H6        1.0  0.0059341136535238  0.5137220526959183  0.6700536539560602  1.0000
  H   H7        1.0  0.49330809555218014  0.013850830603004698  0.6700546162141734  1.0000
  H   H8        1.0  0.993308584527739  0.4862010714829664  0.33021425243719443  1.0000
  H   H9        1.0  0.5443690467822933  0.0045023500972974  0.11250531847309729  1.0000
  H   H10       1.0  0.0426945977693265  0.4956306138234012  0.8882823545782301  1.0000
  H   H11       1.0  0.4567946268159488  0.9956756793690998  0.8882569231917257  1.0000
  H   H12       1.0  0.9567939668827633  0.5046763332596598  0.11215897957522002  1.0000
  H   H13       1.0  0.3624853038027567  0.9255523090901717  0.09450272448003005  1.0000
  H   H14       1.0  0.8612656516940902  0.57508781487887  0.905952845573637  1.0000
  H   H15       1.0  0.6382716561007413  0.0748835556095599  0.9058101067614429  1.0000
  H   H16       1.0  0.1382056793268731  0.4253041006333617  0.09438267894802266  1.0000
  H   H17       1.0  0.48306672302410186  0.7272711547619224  0.9555027964273035  1.0000
  H   H18       1.0  0.9823020387773482  0.7732224719154529  0.04461337368641684  1.0000
  H   H19       1.0  0.5175362831079369  0.2730787648600312  0.044693831294864594  1.0000
  H   H20       1.0  0.0171635476999015  0.22736965656206107  0.9552602258926584  1.0000
  H   H21       1.0  0.6586107875641147  0.8131390773008248  0.9740509178229785  1.0000
  H   H22       1.0  0.1575935143516958  0.687068391333483  0.02626163109640336  1.0000
  H   H23       1.0  0.3421932775978149  0.18711513075723465  0.026401339686373086  1.0000
  H   H24       1.0  0.8418100310534768  0.3134280255801372  0.9739885383037571  1.0000
  H   H25       1.0  0.7186676942457451  0.6601617220969302  0.09781159566570344  1.0000
  H   H26       1.0  0.218144451792476  0.8396580170387651  0.9020826539784821  1.0000
  H   H27       1.0  0.28164578688326  0.3398336740791805  0.9024328582363381  1.0000
  H   H28       1.0  0.7817657623680105  0.1602660837887413  0.0976330661064395  1.0000
  H   H29       1.0  0.4035013458997128  0.6071150527835626  0.09839584310012127  1.0000
  H   H30       1.0  0.9028952110593877  0.8928951328312988  0.9016392004272332  1.0000
  H   H31       1.0  0.5967949015981517  0.393046373656439  0.9015982678083958  1.0000
  H   H32       1.0  0.0970506192721032  0.1073668884156476  0.0981043943216662  1.0000
  H   H33       1.0  0.4799945410474251  0.6676721499164983  0.7043130308551537  1.0000
  H   H34       1.0  0.9798640544263789  0.8325431319067036  0.2942619488032533  1.0000
  H   H35       1.0  0.5198938438469582  0.332402354797118  0.29524666108326864  1.0000
  H   H36       1.0  0.0196716154841496  0.1674288247027462  0.7049319850655209  1.0000
  H   H37       1.0  0.5033978121262805  0.7697485328056712  0.6247930295249731  1.0000
  H   H38       1.0  0.0052597042218423  0.7304540525855855  0.37351981141986806  1.0000
  H   H39       1.0  0.495670251926164  0.23035527136627815  0.3748229981254738  1.0000
  H   H40       1.0  0.9953731735374944  0.2694094960280253  0.6253304473674176  1.0000
  H   H41       1.0  0.3206627277687701  0.4724127463910789  0.5658385406536722  1.0000
  H   H42       1.0  0.8212480112941165  0.027424293000450496  0.4339304646710573  1.0000
  H   H43       1.0  0.6789660037498777  0.527370717036419  0.43485519899982705  1.0000
  H   H44       1.0  0.1787724981056229  0.9723572171298257  0.5655423005836795  1.0000
  H   H45       1.0  0.34966922678338347  0.5057848294332885  0.43115201454797597  1.0000
  H   H46       1.0  0.8501717888792939  0.9942673520718515  0.5688395995156482  1.0000
  H   H47       1.0  0.6503983878747803  0.4937603317330924  0.5695379082397308  1.0000
  H   H48       1.0  0.1504760246936954  0.0059614631223184  0.4308749030824969  1.0000
  C   C1        1.0  0.39841742471543273  0.7889933936879316  0.2630428626827381  1.0000
  C   C2        1.0  0.8978009496964248  0.710993352360262  0.7369549917014453  1.0000
  C   C3        1.0  0.6018374620677207  0.21098442281318336  0.7370937598319428  1.0000
  C   C4        1.0  0.1019105032516592  0.28912803148668326  0.26297043405952536  1.0000
  C   C5        1.0  0.5050373049014141  0.8976602014049888  0.2479656488304727  1.0000
  C   C6        1.0  0.0040705836736592  0.602265015780702  0.7523263793710483  1.0000
  C   C7        1.0  0.49539106710180647  0.10233421812250748  0.7523719689785224  1.0000
  C   C8        1.0  0.9953881093511397  0.3977733529342941  0.24783004041635331  1.0000
  C   C9        1.0  0.4844212864311713  0.9157848463302898  0.1155894862338158  1.0000
  C   C10       1.0  0.9832625264858378  0.584474384680412  0.8848373706698424  1.0000
  C   C11       1.0  0.5162874193051507  0.0844644784847191  0.8848118470290628  1.0000
  C   C12       1.0  0.0162179958050572  0.4157944731068142  0.11543049342381546  1.0000
  C   C13       1.0  0.5609926073733504  0.789712207065719  0.026806445778227304  1.0000
  C   C14       1.0  0.06011664993622649  0.7105167478380352  0.9734052809163953  1.0000
  C   C15       1.0  0.4396149943936578  0.21053223450623185  0.9734715824603127  1.0000
  C   C16       1.0  0.9393994885256802  0.28985661135058644  0.02666545014564998  1.0000
  C   C17       1.0  0.616990419468749  0.7223830284632271  0.12440118839775482  1.0000
  C   C18       1.0  0.11633160578390539  0.7775441420196854  0.8756522878843283  1.0000
  C   C19       1.0  0.3833896983673029  0.2776778031698299  0.8758260306351884  1.0000
  C   C20       1.0  0.8834407393275185  0.22250887642447736  0.12422536861244987  1.0000
  C   C21       1.0  0.48051959234261693  0.6609547607691653  0.17580490553383038  1.0000
  C   C22       1.0  0.9799226487722308  0.8390290553331994  0.8242314767157808  1.0000
  C   C23       1.0  0.5197180608093959  0.3390777480541658  0.8242682328182552  1.0000
  C   C24       1.0  0.0199657361221526  0.16108744527069518  0.17555048734853776  1.0000
  C   C25       1.0  0.3869524643768969  0.7876212023892959  0.40116615139314854  1.0000
  C   C26       1.0  0.8867404052351517  0.7121184515602862  0.5987116679898532  1.0000
  C   C27       1.0  0.6131220437337248  0.212129054985418  0.5988699744182711  1.0000
  C   C28       1.0  0.11309053422212398  0.2877021245144391  0.4011336751663208  1.0000
  C   C29       1.0  0.5285589135807172  0.5690677528398851  0.2529615145963362  1.0000
  C   C30       1.0  0.0278690793598315  0.9308682074805361  0.7471257207071033  1.0000
  C   C31       1.0  0.4715891246894088  0.4307430567487245  0.7470037034623684  1.0000
  C   C32       1.0  0.9718642028543557  0.0691017958316849  0.2525019183176269  1.0000
  O   O1        1.0  0.4379169072726654  0.7482124542817061  0.6898058915634876  1.0000
  O   O2        1.0  0.93844359645216  0.7520663097012131  0.3094640869447005  1.0000
  O   O3        1.0  0.561729057877109  0.2519821782110725  0.31022372498242845  1.0000
  O   O4        1.0  0.06153440332411719  0.2478011455068412  0.6898683423634964  1.0000
  O   O5        1.0  0.2611733820057864  0.7461478191177874  0.4328801868083474  1.0000
  O   O6        1.0  0.7612244229660091  0.75385357665958  0.5669076202135627  1.0000
  O   O7        1.0  0.7389229553709384  0.2533963653999862  0.5670361629766915  1.0000
  O   O8        1.0  0.23868923792070967  0.2460148551970889  0.4328529700307868  1.0000
  O   O9        1.0  0.2843732962372698  0.5230705332016256  0.5076350191303759  1.0000
  O   O10       1.0  0.785395165084658  0.9764464448646135  0.4919999069840769  1.0000
  O   O11       1.0  0.7154093890528299  0.47660647552725516  0.4928814593932884  1.0000
  O   O12       1.0  0.2153916664461377  0.023152431975376  0.5075634355269045  1.0000
  O   O13       1.0  0.4451228629038155  0.471897075924403  0.2501475039713981  1.0000
  O   O14       1.0  0.9447913172528785  0.0283315995601896  0.750285588355915  1.0000
  O   O15       1.0  0.555021728640078  0.5278395083697589  0.7495419018320674  1.0000
  O   O16       1.0  0.0549281780564002  0.9716296139145368  0.24932111862074877  1.0000
  O   O17       1.0  0.5028463359300162  0.8216456867037465  0.4751050845514512  1.0000
  O   O18       1.0  0.0024747494307249  0.6775411841319396  0.5247370028879388  1.0000
  O   O19       1.0  0.49725689489915936  0.17802839207930524  0.5249441726049539  1.0000
  O   O20       1.0  0.9972596816922062  0.3219209619024994  0.4750908725592069  1.0000
  O   O21       1.0  0.6516851656660592  0.5986641123514785  0.32081597795622935  1.0000
  O   O22       1.0  0.1506575522749642  0.9008860717675446  0.6788636159193969  1.0000
  O   O23       1.0  0.3483066210151264  0.40107344859129757  0.6793272427299681  1.0000
  O   O24       1.0  0.8488390547383273  0.09887981198495048  0.3205257189810381  1.0000
  O   O25       1.0  0.6567173859569451  0.8347874704150725  0.23476197275981284  1.0000
  O   O26       1.0  0.1558988739569287  0.6649443703456226  0.7653728166812782  1.0000
  O   O27       1.0  0.3436454982479731  0.16516983646521058  0.7655114940179855  1.0000
  O   O28       1.0  0.8436839012120244  0.3348781590263243  0.2346371080017917  1.0000
