data_image0
_chemical_formula_structural       Zn8H64C80N32
_chemical_formula_sum              "Zn8 H64 C80 N32"
_cell_length_a       15.02117588060286
_cell_length_b       14.491889053154253
_cell_length_c       21.344574404963723
_cell_angle_alpha    90.14837466867903
_cell_angle_beta     89.94665495657426
_cell_angle_gamma    89.92760709912446

_space_group_name_H-M_alt    "P 1"
_space_group_IT_number       1

loop_
  _space_group_symop_operation_xyz
  'x, y, z'

loop_
  _atom_site_type_symbol
  _atom_site_label
  _atom_site_symmetry_multiplicity
  _atom_site_fract_x
  _atom_site_fract_y
  _atom_site_fract_z
  _atom_site_occupancy
  Zn  Zn1       1.0  0.4764567426465263  0.336553580897565  0.015680133285926  1.0000
  Zn  Zn2       1.0  0.6297817824971547  0.4955130751103313  0.003229577436464099  1.0000
  Zn  Zn3       1.0  0.47960318527177753  0.657393269489809  0.0022997865201545994  1.0000
  Zn  Zn4       1.0  0.3221786494809463  0.5000455718543081  0.009444779840002599  1.0000
  Zn  Zn5       1.0  0.0008265585868584996  0.8508960433190823  0.49911440716456207  1.0000
  Zn  Zn6       1.0  0.15314010260416921  0.013278699662883805  0.5088532093722833  1.0000
  Zn  Zn7       1.0  0.9952902145103976  0.1729839752622624  0.5143563973297276  1.0000
  Zn  Zn8       1.0  0.8465996007871511  0.0089290393693915  0.5030413245525551  1.0000
  H   H1        1.0  0.47641129980264907  0.7075433059357439  0.1517949189050043  1.0000
  H   H2        1.0  0.6779098380376709  0.10743105735669191  0.5745537354427981  1.0000
  H   H3        1.0  0.0003110288382188996  0.7934334886622453  0.6473982203821862  1.0000
  H   H4        1.0  0.30965115244580943  0.892958078134257  0.5831193851247675  1.0000
  H   H5        1.0  0.9899155411180587  0.8287320359078622  0.3499114042449207  1.0000
  H   H6        1.0  0.6870935614628166  0.9004238297979088  0.425751098139159  1.0000
  H   H7        1.0  0.005977511133778501  0.23004166957304054  0.36488490368903825  1.0000
  H   H8        1.0  0.31182034054089763  0.13582925860497855  0.44246255078513735  1.0000
  H   H9        1.0  0.8675942336794831  0.6837004150523855  0.8420203130874099  1.0000
  H   H10       1.0  0.44419513688997375  0.7190502330459196  0.7486863084222648  1.0000
  H   H11       1.0  0.0812666854528459  0.2780905125852157  0.8691481546696948  1.0000
  H   H12       1.0  0.1656009876386122  0.6274190686773057  0.08062063915605928  1.0000
  H   H13       1.0  0.5250103293171337  0.23073243587356987  0.7559912995841813  1.0000
  H   H14       1.0  0.8834668572724453  0.31578551826933693  0.1550337674309503  1.0000
  H   H15       1.0  0.45342641232240055  0.2988504742572289  0.2777917675330385  1.0000
  H   H16       1.0  0.0846138686607745  0.74152302882829  0.1484477195559464  1.0000
  H   H17       1.0  0.5346847708577016  0.7492774292149423  0.2581767050628017  1.0000
  H   H18       1.0  0.39358146356058654  0.24018746408160757  0.3719891619407818  1.0000
  H   H19       1.0  0.9480341006688136  0.2719644818289666  0.2539525936218894  1.0000
  H   H20       1.0  0.6011924505742031  0.8054986437593216  0.3524331800695322  1.0000
  H   H21       1.0  0.027826893900865502  0.8076119014979498  0.2417095411397767  1.0000
  H   H22       1.0  0.38666802163190545  0.7878212407548518  0.6572073389019693  1.0000
  H   H23       1.0  0.4936557708972629  0.3178573324901208  0.1663847273938899  1.0000
  H   H24       1.0  0.9330673463126687  0.741779169092986  0.7483685605656659  1.0000
  H   H25       1.0  0.5899375242052116  0.1847710215768643  0.6574722142169662  1.0000
  H   H26       1.0  0.021244439018453003  0.21867366432109497  0.775297581185896  1.0000
  H   H27       1.0  0.5931645947057902  0.18720907864493344  0.10433769790378021  1.0000
  H   H28       1.0  0.6727783195522505  0.48776015529787037  0.1531935662861414  1.0000
  H   H29       1.0  0.37646273700361377  0.830099758964984  0.0727848553991421  1.0000
  H   H30       1.0  0.29052526039737364  0.5304454542667187  0.1598617700459499  1.0000
  H   H31       1.0  0.5904194710231392  0.8155674646834402  0.9178920375076559  1.0000
  H   H32       1.0  0.6500550811257498  0.505437651791496  0.8524749718374167  1.0000
  H   H33       1.0  0.36280964928614173  0.1660641182768217  0.9494540832013811  1.0000
  H   H34       1.0  0.7972260755492968  0.39194403368983916  0.0717056389404718  1.0000
  H   H35       1.0  0.28057623379432073  0.4792761369611612  0.8578245577775903  1.0000
  H   H36       1.0  0.1085653188008493  0.6806338441201518  0.5685421231124649  1.0000
  H   H37       1.0  0.1817710633853693  0.9821885587287015  0.6592391996398703  1.0000
  H   H38       1.0  0.8746222694464906  0.321626194549083  0.6015640214386551  1.0000
  H   H39       1.0  0.8055402371832442  0.014613446338778103  0.6527774515696763  1.0000
  H   H40       1.0  0.10586091892717771  0.3445834396717374  0.4469857742068797  1.0000
  H   H41       1.0  0.1939191692976152  0.03996167096205741  0.357375805425768  1.0000
  H   H42       1.0  0.8919485216727878  0.6909244854300671  0.41384827999498697  1.0000
  H   H43       1.0  0.8236174206016996  0.9989270867502498  0.3524835485930922  1.0000
  H   H44       1.0  0.72627898747578  0.8364206724214542  0.830581028756029  1.0000
  H   H45       1.0  0.4643805082615557  0.2774272557230261  0.8662607620609959  1.0000
  H   H46       1.0  0.2898558927701202  0.5799042528900034  0.7460377948601788  1.0000
  H   H47       1.0  0.2323163417450189  0.1354230015281388  0.8600857060759779  1.0000
  H   H48       1.0  0.641060696420048  0.40468152579973093  0.7468363370015183  1.0000
  H   H49       1.0  0.7377814792098859  0.17331274763003535  0.1841028726959379  1.0000
  H   H50       1.0  0.29966982817071397  0.43883143645302886  0.2730616772156367  1.0000
  H   H51       1.0  0.24762115735381232  0.8681313469151849  0.16095589254418738  1.0000
  H   H52       1.0  0.6712112312424666  0.5910936354980764  0.2605570904977057  1.0000
  H   H53       1.0  0.237940668351591  0.37671570409337113  0.35936285176043004  1.0000
  H   H54       1.0  0.830010596541591  0.09919649435587272  0.246637175493241  1.0000
  H   H55       1.0  0.7535123715294957  0.6677343332438996  0.3289928709381158  1.0000
  H   H56       1.0  0.1632586624878982  0.38097760547242404  0.939933953219203  1.0000
  H   H57       1.0  0.18704289808773916  0.9407802266439449  0.2438400579621316  1.0000
  H   H58       1.0  0.23527503715764198  0.6454031575571196  0.6579372068266665  1.0000
  H   H59       1.0  0.807738768800462  0.9089670617401493  0.7592504603824749  1.0000
  H   H60       1.0  0.7319039588361634  0.33278497260130285  0.6829497682636756  1.0000
  H   H61       1.0  0.1715338654629051  0.07458158716892169  0.7723426286192704  1.0000
  H   H62       1.0  0.4894273406575849  0.6855084538843743  0.8537657880675269  1.0000
  H   H63       1.0  0.7877485415365655  0.5978911712919058  0.9217987050031198  1.0000
  H   H64       1.0  0.9787859822154702  0.19509094405522384  0.6648244256390896  1.0000
  C   C1        1.0  0.6338323218127186  0.24493826715487194  0.08908271304635919  1.0000
  C   C2        1.0  0.13032085988538  0.0330622868956283  0.6499063592979368  1.0000
  C   C3        1.0  0.8358412846427329  0.2617209042850065  0.5876429238059586  1.0000
  C   C4        1.0  0.8561824103747783  0.9638026421256854  0.6411354983276425  1.0000
  C   C5        1.0  0.14797234683400967  0.28413415306773976  0.4526920937553313  1.0000
  C   C6        1.0  0.1417889846304305  0.9897063012860629  0.3660914924097298  1.0000
  C   C7        1.0  0.8504155053025144  0.7506033116051256  0.4239714380569239  1.0000
  C   C8        1.0  0.870214723948152  0.0525827249814697  0.3661113111653904  1.0000
  C   C9        1.0  0.5219653787716113  0.651134489161578  0.1419235526993887  1.0000
  C   C10       1.0  0.224933400135626  0.6680453596900195  0.0715968189660927  1.0000
  C   C11       1.0  0.4457549734417228  0.37104060425391344  0.15433556559052158  1.0000
  C   C12       1.0  0.6219439568533146  0.5386543858054652  0.14240052338619338  1.0000
  C   C13       1.0  0.7383614515730841  0.34851702674852464  0.072370546105887  1.0000
  C   C14       1.0  0.508518816117487  0.33579374717767513  0.8732541924096252  1.0000
  C   C15       1.0  0.22026240213324402  0.3369198370737367  0.9492512658317834  1.0000
  C   C16       1.0  0.4405483711270719  0.6330228033403247  0.8650391748587936  1.0000
  C   C17       1.0  0.7312299237340413  0.6437364696454821  0.9282823943179251  1.0000
  C   C18       1.0  0.0267443867753983  0.14172391963919753  0.6530094428135839  1.0000
  C   C19       1.0  0.7350750194528786  0.1532353708048149  0.5738449158551333  1.0000
  C   C20       1.0  0.9551318498443778  0.8504237780884553  0.6385084445291227  1.0000
  C   C21       1.0  0.25260134000082257  0.8497186887937787  0.5724583151738755  1.0000
  C   C22       1.0  0.037540547523057896  0.8820883513062725  0.3620457640975516  1.0000
  C   C23       1.0  0.332733706003765  0.770827587027  0.06785204215866258  1.0000
  C   C24       1.0  0.7455183254288542  0.8567263634386325  0.4302252353368203  1.0000
  C   C25       1.0  0.9628202635136348  0.17101372368819773  0.3721996716492271  1.0000
  C   C26       1.0  0.25330468544768786  0.1783331810411753  0.45060137390372995  1.0000
  C   C27       1.0  0.7201731515357395  0.2697113298811474  0.1086841647458172  1.0000
  C   C28       1.0  0.58510672498074  0.6078309477878677  0.1810751821293906  1.0000
  C   C29       1.0  0.2488650412448834  0.755538703465213  0.0953680008310656  1.0000
  C   C30       1.0  0.38425338180814356  0.4185821928007201  0.1927806514121002  1.0000
  C   C31       1.0  0.7121190652294871  0.7284984636767932  0.898953435147817  1.0000
  C   C32       1.0  0.5654829684639964  0.38089373791124365  0.8304645840144785  1.0000
  C   C33       1.0  0.2399315873430723  0.2481880440580398  0.9256179924519969  1.0000
  C   C34       1.0  0.34207391893124145  0.4795033342030808  0.1507486309290584  1.0000
  C   C35       1.0  0.37572145329544077  0.5909305037632466  0.8266463584059593  1.0000
  C   C36       1.0  0.2309669327879504  0.761238437155555  0.5953421397328  1.0000
  C   C37       1.0  0.0881068475259497  0.09479468309949374  0.6916497883566066  1.0000
  C   C38       1.0  0.7509974310621317  0.23420712910286315  0.6087337332888723  1.0000
  C   C39       1.0  0.891584720304202  0.8923816481189704  0.6782524915303298  1.0000
  C   C40       1.0  0.23190944218010398  0.26579232688698806  0.425915240663592  1.0000
  C   C41       1.0  0.1006197516608296  0.9276713037839601  0.3241083638013933  1.0000
  C   C42       1.0  0.7657973398299873  0.772782230693956  0.39987080463305347  1.0000
  C   C43       1.0  0.9062773859041187  0.12445666141888272  0.3297804821549518  1.0000
  C   C44       1.0  0.8367499716505195  0.7460774022120661  0.8230064408605314  1.0000
  C   C45       1.0  0.6303071844746313  0.7542020073066598  0.9262561322454202  1.0000
  C   C46       1.0  0.3847924451125523  0.6854525562641955  0.7297956883616408  1.0000
  C   C47       1.0  0.11733969557626982  0.2189550485690576  0.8496354999318426  1.0000
  C   C48       1.0  0.574935029636535  0.2774110459840458  0.7363702068285534  1.0000
  C   C49       1.0  0.8520098235044956  0.2580004033214679  0.17940113326024226  1.0000
  C   C50       1.0  0.3935251647564328  0.334364337953055  0.2943630133020463  1.0000
  C   C51       1.0  0.12525662196703993  0.7968277449838297  0.16848832435261576  1.0000
  C   C52       1.0  0.5913019560149735  0.7092965730340668  0.2755538510328392  1.0000
  C   C53       1.0  0.3560169265573307  0.2973472930081726  0.3514453525754746  1.0000
  C   C54       1.0  0.8972878306606447  0.22557389084873597  0.23497429439545672  1.0000
  C   C55       1.0  0.6355494767083415  0.7477710636738949  0.329731809182384  1.0000
  C   C56       1.0  0.6027173851247768  0.45274587226892754  0.8664415013176806  1.0000
  C   C57       1.0  0.08932315272284802  0.8390694959818819  0.2245236783949522  1.0000
  C   C58       1.0  0.3495532134899192  0.7276522063041355  0.6737421081747357  1.0000
  C   C59       1.0  0.8803711562809298  0.7846150591475977  0.7686937289534512  1.0000
  C   C60       1.0  0.6201711547901426  0.24435756762122918  0.6807492682599019  1.0000
  C   C61       1.0  0.07987888743289061  0.1817878719895063  0.7925088647077202  1.0000
  C   C62       1.0  0.759381271500672  0.7752887475721979  0.849515490014511  1.0000
  C   C63       1.0  0.34859919069079137  0.6158328093920248  0.7640037015792772  1.0000
  C   C64       1.0  0.19524835877011532  0.1951525820028053  0.8776875248718454  1.0000
  C   C65       1.0  0.5937739490040954  0.35645199702564423  0.7679595112264862  1.0000
  C   C66       1.0  0.7712716742191789  0.22876172309552356  0.1586564004936903  1.0000
  C   C67       1.0  0.3222737863342999  0.22791583193109238  0.9539825722345723  1.0000
  C   C68       1.0  0.3581653202003352  0.40054213998778476  0.2567519819008197  1.0000
  C   C69       1.0  0.20636855952177058  0.8122689229079756  0.1423510862428969  1.0000
  C   C70       1.0  0.6168816688457354  0.6336692665706353  0.24237161608433413  1.0000
  C   C71       1.0  0.27647433748291667  0.3189802492198553  0.378165126398045  1.0000
  C   C72       1.0  0.8777574939185797  0.14753733301986932  0.2672313699112436  1.0000
  C   C73       1.0  0.7174272546974053  0.7243779982500841  0.3515866284118587  1.0000
  C   C74       1.0  0.12714459010042842  0.9057691068070428  0.2606884291383551  1.0000
  C   C75       1.0  0.27301923943749534  0.7061173322484394  0.6431734863486795  1.0000
  C   C76       1.0  0.8588912141625685  0.8642213521143207  0.7388047895517573  1.0000
  C   C77       1.0  0.6996072113610124  0.27528592466641305  0.6587091232716915  1.0000
  C   C78       1.0  0.3340445017346383  0.5277043646413162  0.867358514501042  1.0000
  C   C79       1.0  0.11407155547178861  0.11384879329190059  0.7555369566928719  1.0000
  C   C80       1.0  0.14979796709983623  0.7419993738121776  0.5651270778053146  1.0000
  N   N1        1.0  0.6033190938052544  0.30415659924900507  0.0454940005242079  1.0000
  N   N2        1.0  0.09788936354286192  0.044453783974042003  0.5916164458835879  1.0000
  N   N3        1.0  0.867637727149898  0.20209466079048613  0.5445361405503633  1.0000
  N   N4        1.0  0.8941579048212489  0.962303604177983  0.5840308769625508  1.0000
  N   N5        1.0  0.12160042451871791  0.21380157873132793  0.48940316977996895  1.0000
  N   N6        1.0  0.10686674858514071  0.9797303806131695  0.4238925540582271  1.0000
  N   N7        1.0  0.8778450405879711  0.8155779709479775  0.4648259576896053  1.0000
  N   N8        1.0  0.901185452392035  0.05784917688377789  0.42505090192533146  1.0000
  N   N9        1.0  0.5234552596826276  0.6114802197242784  0.08494103582683009  1.0000
  N   N10       1.0  0.289259049592097  0.6346031699921756  0.03387937257973309  1.0000
  N   N11       1.0  0.4384293503585397  0.4003871099919608  0.0948834378304042  1.0000
  N   N12       1.0  0.584953591988814  0.542498317999531  0.0851168020927631  1.0000
  N   N13       1.0  0.6687677495454735  0.3689005557501588  0.0353019941174466  1.0000
  N   N14       1.0  0.5139781610759613  0.37702646294570746  0.929693641126903  1.0000
  N   N15       1.0  0.28551385898054343  0.36655785845403005  0.9874265150554891  1.0000
  N   N16       1.0  0.4356250900616061  0.5987404038635094  0.9232834994061676  1.0000
  N   N17       1.0  0.6662857858499648  0.6213346114370498  0.9688239627590747  1.0000
  N   N18       1.0  0.0342422477596642  0.1113316366029835  0.5937106317968883  1.0000
  N   N19       1.0  0.8045639963381461  0.13428464169801663  0.5361641792876242  1.0000
  N   N20       1.0  0.9551103114310991  0.89282061990739  0.5825854680777098  1.0000
  N   N21       1.0  0.18938215472704914  0.8801118443400142  0.5328701981329118  1.0000
  N   N22       1.0  0.0428892815546504  0.9134413102332319  0.421129227680396  1.0000
  N   N23       1.0  0.35650352402758057  0.6990344247394449  0.0313769007660483  1.0000
  N   N24       1.0  0.8123567319027388  0.8818761761052586  0.46845639569469455  1.0000
  N   N25       1.0  0.9583406407276058  0.13041635795021023  0.4287419454538082  1.0000
  N   N26       1.0  0.18752592585082084  0.1475630175084675  0.487899117460465  1.0000
  N   N27       1.0  0.3747335328756876  0.4671972160044505  0.0925361444178634  1.0000
  N   N28       1.0  0.6031746466293484  0.6902394191209567  0.9677793826962073  1.0000
  N   N29       1.0  0.5721425972026424  0.44865576398894563  0.9255629881826194  1.0000
  N   N30       1.0  0.3493873948941655  0.29833593649534157  0.9905865653278879  1.0000
  N   N31       1.0  0.3702336757754949  0.5338785761147947  0.9250069456324822  1.0000
  N   N32       1.0  0.1251367178270684  0.8126692988008273  0.5281694337811018  1.0000
