data_image0
_chemical_formula_structural       Zn2H22C38N2O10
_chemical_formula_sum              "Zn2 H22 C38 N2 O10"
_cell_length_a       11.763230163620475
_cell_length_b       13.154259377335961
_cell_length_c       16.928213819422446
_cell_angle_alpha    88.30989016556887
_cell_angle_beta     76.59516210280286
_cell_angle_gamma    86.22014665666141

_space_group_name_H-M_alt    "P 1"
_space_group_IT_number       1

loop_
  _space_group_symop_operation_xyz
  'x, y, z'

loop_
  _atom_site_type_symbol
  _atom_site_label
  _atom_site_symmetry_multiplicity
  _atom_site_fract_x
  _atom_site_fract_y
  _atom_site_fract_z
  _atom_site_occupancy
  Zn  Zn1       1.0  0.6177464097212705  0.5106193814178752  0.49102377196737  1.0000
  Zn  Zn2       1.0  0.3804567264855265  0.5045404791297585  0.5075992294516638  1.0000
  H   H1        1.0  0.3948094112202724  0.5506902182443056  0.23858160115995009  1.0000
  H   H2        1.0  0.3666607363273967  0.25572723463400143  0.8736986742203923  1.0000
  H   H3        1.0  0.5843733304595131  0.49847834887696524  0.9000036309569165  1.0000
  H   H4        1.0  0.41283491263966704  0.4897042998713915  0.09807364051410866  1.0000
  H   H5        1.0  0.3568126281290346  0.18402813090041553  0.4978966404952485  1.0000
  H   H6        1.0  0.6464856706134083  0.8306424706267705  0.4986181172974326  1.0000
  H   H7        1.0  0.7193829694300857  0.1860866573784676  0.5035225036379811  1.0000
  H   H8        1.0  0.2802434749945704  0.8280988219760914  0.5035578440061811  1.0000
  H   H9        1.0  0.2630673556260277  0.0183351654961257  0.5012870434724161  1.0000
  H   H10       1.0  0.7375926323746069  0.9957989494418769  0.5027702414120439  1.0000
  H   H11       1.0  0.7944039263693979  0.4120838780196508  0.5709782962504375  1.0000
  H   H12       1.0  0.5840794577551164  0.5584645283503348  0.7591102831011437  1.0000
  H   H13       1.0  0.203914472235759  0.602837827913021  0.426612537266031  1.0000
  H   H14       1.0  0.28526094623984466  0.32367052168716975  0.9978911157075668  1.0000
  H   H15       1.0  0.7577285328619607  0.351106329308422  0.002366226465866818  1.0000
  H   H16       1.0  0.7989153445943057  0.6391007914977892  0.39607264120366625  1.0000
  H   H17       1.0  0.19778427875077395  0.38063525356098205  0.6052623892408346  1.0000
  H   H18       1.0  0.9829936432804657  0.35647158367380877  0.6196372200102968  1.0000
  H   H19       1.0  0.014059425271930994  0.6617301774926007  0.38056904777426565  1.0000
  H   H20       1.0  0.356658807406724  0.3240472622432621  0.736946679347781  1.0000
  H   H21       1.0  0.6855601822262827  0.3473572892718054  0.26320039238463255  1.0000
  H   H22       1.0  0.6969562764839594  0.27740942178943584  0.12658305105878032  1.0000
  C   C1        1.0  0.476231616845723  0.7050216760403389  0.4989970981846738  1.0000
  C   C2        1.0  0.4391295410860393  0.141738809128114  0.49968248664596604  1.0000
  C   C3        1.0  0.5558305057923788  0.9802886082497153  0.5009829452190713  1.0000
  C   C4        1.0  0.44554563299323746  0.0340368283120398  0.5006794165981459  1.0000
  C   C5        1.0  0.02843204296772229  0.4118204017400658  0.5764687496916421  1.0000
  C   C6        1.0  0.9688676823311221  0.6058035169794637  0.42328369682519434  1.0000
  C   C7        1.0  0.14564871391114304  0.42410021969414646  0.5690257067150382  1.0000
  C   C8        1.0  0.8515951936396674  0.59375748388063  0.43088891107328897  1.0000
  C   C9        1.0  0.15083580374289338  0.5503784876905015  0.46858163058548985  1.0000
  C   C10       1.0  0.8470213554401481  0.46587278681519007  0.5300841631822947  1.0000
  C   C11       1.0  0.030068473781106782  0.544422942454517  0.4718020321905028  1.0000
  C   C12       1.0  0.5266721810772239  0.30914323705789576  0.49974784068765365  1.0000
  C   C13       1.0  0.9675842607441819  0.4725472214040635  0.5273764815677352  1.0000
  C   C14       1.0  0.5288372924085819  0.48987146113404373  0.34343375787496183  1.0000
  C   C15       1.0  0.46970991062555356  0.48251342697300714  0.6554202153440583  1.0000
  C   C16       1.0  0.5396873400302836  0.4530831666365104  0.2590020019767393  1.0000
  C   C17       1.0  0.46948242034419946  0.44535483830316025  0.7398944457357711  1.0000
  C   C18       1.0  0.4612649466903845  0.49158525531429126  0.21284716745640242  1.0000
  C   C19       1.0  0.5358441983539562  0.49296418089064536  0.7854559626482851  1.0000
  C   C20       1.0  0.470388039707231  0.4562742604997254  0.13524305503617026  1.0000
  C   C21       1.0  0.5373478594680634  0.45831134903166054  0.8632527438447607  1.0000
  C   C22       1.0  0.5553337093405303  0.3786424591471871  0.10194723619666486  1.0000
  C   C23       1.0  0.5363159821741945  0.19519744948438963  0.5006083767007395  1.0000
  C   C24       1.0  0.47660056625664987  0.3723497222997877  0.8971968200351835  1.0000
  C   C25       1.0  0.6327013043353203  0.3394943529158071  0.1494000085560855  1.0000
  C   C26       1.0  0.411684696955163  0.32405407477998704  0.8502941971168309  1.0000
  C   C27       1.0  0.6256542887298477  0.3771710814921504  0.22650563283076502  1.0000
  C   C28       1.0  0.4071829316028115  0.361048655293729  0.7730559856358635  1.0000
  C   C29       1.0  0.5676925548440721  0.3513352565122929  0.016973695715996894  1.0000
  C   C30       1.0  0.4725477613739172  0.3451554553895662  0.9822798193218811  1.0000
  C   C31       1.0  0.3572147060742665  0.3133248358334201  0.030963337416231675  1.0000
  C   C32       1.0  0.6904338303026307  0.3336137382858979  0.9686062680414761  1.0000
  C   C33       1.0  0.4655209470101908  0.8189959432910996  0.5001701330338119  1.0000
  C   C34       1.0  0.3467256428263567  0.9770626662025139  0.501303698382763  1.0000
  C   C35       1.0  0.6541608306347867  0.03708751354610481  0.5021130843903803  1.0000
  C   C36       1.0  0.35592297868223  0.8722177471460312  0.5020357070492235  1.0000
  C   C37       1.0  0.6446671674707785  0.14188889824210094  0.5024237807319307  1.0000
  C   C38       1.0  0.5630648911256557  0.8726276395706949  0.499658817599865  1.0000
  N   N1        1.0  0.7926044630309262  0.5240384494339595  0.48353044199927075  1.0000
  N   N2        1.0  0.20510648273054938  0.49270529839631655  0.5155208900856534  1.0000
  O   O1        1.0  0.5792027487653967  0.6628769839588102  0.4773436248447708  1.0000
  O   O2        1.0  0.7204516265392086  0.2981961675434235  0.9002474510139745  1.0000
  O   O3        1.0  0.432266174838844  0.3524985398359776  0.4870025795863524  1.0000
  O   O4        1.0  0.381887714550345  0.6583186604205978  0.5197948504374492  1.0000
  O   O5        1.0  0.6134801857553213  0.3549286412381036  0.5116742336559736  1.0000
  O   O6        1.0  0.6205862964392491  0.481063647167737  0.3716386792103633  1.0000
  O   O7        1.0  0.37990198524234836  0.4683647893254986  0.6279962506194249  1.0000
  O   O8        1.0  0.4279189995494119  0.5247665521947981  0.38146977061372656  1.0000
  O   O9        1.0  0.5616501453712742  0.5238535487694592  0.6165700978913404  1.0000
  O   O10       1.0  0.3392611222098053  0.2738375185131403  0.0987906897646127  1.0000
