data_image0
_chemical_formula_structural       Hg4H28C20S4O20
_chemical_formula_sum              "Hg4 H28 C20 S4 O20"
_cell_length_a       5.732093604349363
_cell_length_b       11.090891655442535
_cell_length_c       13.576445586165855
_cell_angle_alpha    114.40537543882077
_cell_angle_beta     90.00100496630911
_cell_angle_gamma    89.99888725643623

_space_group_name_H-M_alt    "P 1"
_space_group_IT_number       1

loop_
  _space_group_symop_operation_xyz
  'x, y, z'

loop_
  _atom_site_type_symbol
  _atom_site_label
  _atom_site_symmetry_multiplicity
  _atom_site_fract_x
  _atom_site_fract_y
  _atom_site_fract_z
  _atom_site_occupancy
  Hg  Hg1       1.0  0.659726978633813  0.5432340704280492  0.5721088384488553  1.0000
  Hg  Hg2       1.0  0.15973129991280635  0.9567729545994509  0.427895230924591  1.0000
  Hg  Hg3       1.0  0.3402665213842225  0.45676030753032376  0.4278814907104262  1.0000
  Hg  Hg4       1.0  0.8402604557318866  0.043232512044689  0.5721149714027121  1.0000
  H   H1        1.0  0.900212457505688  0.7418061520802438  0.7190531836953724  1.0000
  H   H2        1.0  0.40023238367841435  0.7582040061601132  0.28094784548193275  1.0000
  H   H3        1.0  0.09977406443665869  0.25818833384511203  0.2809460203539729  1.0000
  H   H4        1.0  0.5997646054959559  0.2418023605851402  0.7190552886028669  1.0000
  H   H5        1.0  0.999684947211314  0.6156399500606324  0.7345557299004071  1.0000
  H   H6        1.0  0.49968721086202084  0.884362573893348  0.2654449983121907  1.0000
  H   H7        1.0  0.0002963408539642  0.38435641708016977  0.265435993804509  1.0000
  H   H8        1.0  0.5003080338500894  0.11564285675757446  0.7345622457214276  1.0000
  H   H9        1.0  0.9609057905742516  0.2708959890960685  0.4452970248329252  1.0000
  H   H10       1.0  0.4608995213045403  0.22910685482028728  0.5547044008386166  1.0000
  H   H11       1.0  0.03908945404914729  0.7291093875840247  0.5547057817466694  1.0000
  H   H12       1.0  0.5390992125143724  0.7708965686895792  0.4452999694755632  1.0000
  H   H13       1.0  0.0154671825831514  0.33748500250258207  0.5720948465632247  1.0000
  H   H14       1.0  0.5154716584188959  0.1625181755281487  0.42790921855384306  1.0000
  H   H15       1.0  0.9845263175065352  0.6625203921741158  0.42790943916321567  1.0000
  H   H16       1.0  0.4845323091267558  0.8374822777482648  0.5720941692716862  1.0000
  H   H17       1.0  0.004017055356044399  0.30359244377039823  0.8575007764776075  1.0000
  H   H18       1.0  0.5040156697958763  0.19641279751451174  0.1425038846402416  1.0000
  H   H19       1.0  0.9959904010674023  0.6964148410472502  0.14249676852951146  1.0000
  H   H20       1.0  0.4959935315996587  0.8035807702181755  0.8575009085721634  1.0000
  H   H21       1.0  0.031196463410374495  0.31004212582182317  0.04332072186750931  1.0000
  H   H22       1.0  0.5312108101721477  0.18994908415823628  0.9566817130231797  1.0000
  H   H23       1.0  0.9687883138848503  0.6899483188676638  0.95667051599348  1.0000
  H   H24       1.0  0.468796646596111  0.8100484348716034  0.04332365061189576  1.0000
  H   H25       1.0  0.34482196884415817  0.4329471557998159  0.16599967885365877  1.0000
  H   H26       1.0  0.8448273293734232  0.06705444237317687  0.8339916189304051  1.0000
  H   H27       1.0  0.6551697865268549  0.5670491663273152  0.833988346999874  1.0000
  H   H28       1.0  0.1551923391802035  0.9329509612037081  0.16601340643911291  1.0000
  C   C1        1.0  0.30502906489673626  0.42604957881897576  0.8784897164039975  1.0000
  C   C2        1.0  0.8050227893582826  0.07396634006920519  0.1215200133038223  1.0000
  C   C3        1.0  0.694987114133937  0.5739745371823373  0.12151339613762248  1.0000
  C   C4        1.0  0.194986411936341  0.9260341491687708  0.8784863328378733  1.0000
  C   C5        1.0  0.14359089253214558  0.3584663870354489  0.9119531709620289  1.0000
  C   C6        1.0  0.643605103769147  0.14153094682993123  0.08805287501095899  1.0000
  C   C7        1.0  0.856393884768046  0.6415260557872883  0.08804020105171874  1.0000
  C   C8        1.0  0.3564023531002291  0.858471621503881  0.9119622614600119  1.0000
  C   C9        1.0  0.16045660064320083  0.3621802653923253  0.01674295347176269  1.0000
  C   C10       1.0  0.6604565699652126  0.13782384065549985  0.9832625135508337  1.0000
  C   C11       1.0  0.839554344919108  0.6378260293411697  0.9832542640436375  1.0000
  C   C12       1.0  0.3395543759714741  0.8621727062804677  0.016744001743852214  1.0000
  C   C13       1.0  0.3366348755131127  0.4318794870974826  0.0857540835534962  1.0000
  C   C14       1.0  0.8366382076108037  0.06809946181573417  0.9142348165627682  1.0000
  C   C15       1.0  0.6633516464929201  0.5680930913231774  0.9142275614209012  1.0000
  C   C16       1.0  0.16335878172609597  0.931901018471407  0.08577078997179641  1.0000
  C   C17       1.0  0.4927981393683821  0.49900870902393984  0.946685419643508  1.0000
  C   C18       1.0  0.9928006178906442  0.000983948742288  0.0533084578835101  1.0000
  C   C19       1.0  0.5072093173011395  0.5009787743639221  0.05330557534944799  1.0000
  C   C20       1.0  0.007220795039017998  0.9990233360247202  0.9466890871595555  1.0000
  S   S1        1.0  0.27043528535504174  0.42150499106405437  0.7466743610660134  1.0000
  S   S2        1.0  0.770444635232387  0.07849737177350848  0.2533350429156513  1.0000
  S   S3        1.0  0.7295599593125032  0.5784884417921957  0.2533193384754071  1.0000
  S   S4        1.0  0.2295593323625836  0.9215051066215734  0.7466726977896414  1.0000
  O   O1        1.0  0.8510384283455961  0.6589675224132915  0.7258228498589289  1.0000
  O   O2        1.0  0.3510566581728866  0.8410350541113588  0.2741738268360622  1.0000
  O   O3        1.0  0.14894983808610363  0.34102691853004063  0.27417265631655857  1.0000
  O   O4        1.0  0.6489350973239566  0.15897032258138918  0.7258289797345512  1.0000
  O   O5        1.0  0.985608434918134  0.3565324977449577  0.5078681901864073  1.0000
  O   O6        1.0  0.4856046535597826  0.14346619762201832  0.4921313131691818  1.0000
  O   O7        1.0  0.014386809700297898  0.6434708808018782  0.4921324822404358  1.0000
  O   O8        1.0  0.5143923356908856  0.8565352277609288  0.5078709229877489  1.0000
  O   O9        1.0  0.4907124815534799  0.3632055451149511  0.6873173544782532  1.0000
  O   O10       1.0  0.9907359596674536  0.13679211404804187  0.3126811081647674  1.0000
  O   O11       1.0  0.5092862519574338  0.6367986885636296  0.3126725518232547  1.0000
  O   O12       1.0  0.009271497088498398  0.8632063950532896  0.6873245829710157  1.0000
  O   O13       1.0  0.24348462484225306  0.5587822827055645  0.7581792812211249  1.0000
  O   O14       1.0  0.743498831548024  0.9412161869260623  0.24182038092420283  1.0000
  O   O15       1.0  0.7565123643098843  0.44122107784466624  0.24181991205887235  1.0000
  O   O16       1.0  0.2565016469573038  0.0587833212672138  0.7581863772699791  1.0000
  O   O17       1.0  0.0669360775667371  0.3377594590308276  0.6976421020453714  1.0000
  O   O18       1.0  0.5669442082320301  0.16226898840537266  0.3023626079101405  1.0000
  O   O19       1.0  0.9330801017492901  0.6622368989882331  0.3023488821737459  1.0000
  O   O20       1.0  0.43306499297884926  0.8377334449950312  0.6976414349302901  1.0000
