data_image0
_chemical_formula_structural       Al2H48C60O12
_chemical_formula_sum              "Al2 H48 C60 O12"
_cell_length_a       3.944737713255423
_cell_length_b       29.06241546437742
_cell_length_c       29.065466590305366
_cell_angle_alpha    120.00843432232938
_cell_angle_beta     89.99731770913532
_cell_angle_gamma    90.00189849378394

_space_group_name_H-M_alt    "P 1"
_space_group_IT_number       1

loop_
  _space_group_symop_operation_xyz
  'x, y, z'

loop_
  _atom_site_type_symbol
  _atom_site_label
  _atom_site_symmetry_multiplicity
  _atom_site_fract_x
  _atom_site_fract_y
  _atom_site_fract_z
  _atom_site_occupancy
  Al  Al1       1.0  0.00039255945784329995  0.499985330669908  0.4999976036385618  1.0000
  Al  Al2       1.0  0.9990576934926522  0.16668628238851801  0.8333473400189886  1.0000
  H   H1        1.0  0.5454590277896757  0.2162597177842116  0.6362719074929686  1.0000
  H   H2        1.0  0.4542893239609001  0.36378422069063987  0.7837574527224546  1.0000
  H   H3        1.0  0.4556340644302992  0.30289099222971316  0.5495860025803977  1.0000
  H   H4        1.0  0.5446841990821697  0.45039320253651044  0.6970792895056804  1.0000
  H   H5        1.0  0.5454026489570936  0.9200070496682785  0.7837372478522512  1.0000
  H   H6        1.0  0.4541953951399051  0.9199865961233158  0.6362298120476595  1.0000
  H   H7        1.0  0.455515185854054  0.7466870749384213  0.697087058926648  1.0000
  H   H8        1.0  0.5446671970572368  0.7466808027655674  0.5495956309932666  1.0000
  H   H9        1.0  0.5453879559356097  0.3637510089619554  0.08000500565575654  1.0000
  H   H10       1.0  0.45440326718336616  0.21625302234958352  0.08001891150343712  1.0000
  H   H11       1.0  0.4555412702358623  0.45038529340025246  0.2533151253290455  1.0000
  H   H12       1.0  0.5448068430429345  0.3028971534282761  0.25332322469994745  1.0000
  H   H13       1.0  0.28814207112120016  0.13131547017217568  0.6692994815938319  1.0000
  H   H14       1.0  0.6921783712988656  0.1336768000119546  0.696401522854998  1.0000
  H   H15       1.0  0.6549995540121288  0.13580941708970332  0.6363766017982542  1.0000
  H   H16       1.0  0.7107941619460759  0.33071300839649337  0.8686624340766045  1.0000
  H   H17       1.0  0.30667789125436673  0.30368999394961793  0.8663775153800514  1.0000
  H   H18       1.0  0.34415806776365787  0.36373089869960745  0.8642492496133655  1.0000
  H   H19       1.0  0.7123268521952254  0.33594634768554243  0.464619543060806  1.0000
  H   H20       1.0  0.3082702433107087  0.36302864633124443  0.4669942420057041  1.0000
  H   H21       1.0  0.34563154871739943  0.3029638649907014  0.4690823442699141  1.0000
  H   H22       1.0  0.28796698400174153  0.5353344491474986  0.664013692892908  1.0000
  H   H23       1.0  0.6921441088059765  0.5330069497235712  0.6369710011578249  1.0000
  H   H24       1.0  0.6546639684623868  0.5308946699172806  0.6970134761201904  1.0000
  H   H25       1.0  0.28809149558200176  0.03798115821717821  0.8686923299458725  1.0000
  H   H26       1.0  0.6921043193200588  0.06272101711702752  0.8663235560552492  1.0000
  H   H27       1.0  0.6549313280589217  0.0005505305565875095  0.8641813261183839  1.0000
  H   H28       1.0  0.7107447905857213  0.03795664449692986  0.6692936103853383  1.0000
  H   H29       1.0  0.3066647968223464  0.06270687561161023  0.6963245477582873  1.0000
  H   H30       1.0  0.34405645536380547  0.0005333822517244338  0.6362907469571796  1.0000
  H   H31       1.0  0.7123381910734424  0.6286655545918549  0.6640358304983565  1.0000
  H   H32       1.0  0.3082909503061658  0.6039541067876114  0.6369692910370263  1.0000
  H   H33       1.0  0.3456419006088255  0.6661180252950203  0.6970256983847136  1.0000
  H   H34       1.0  0.28790347965446716  0.6286678088657282  0.46465207243279844  1.0000
  H   H35       1.0  0.6921193029615366  0.6039550790051891  0.46698092868134466  1.0000
  H   H36       1.0  0.6546460158718688  0.6661119849199508  0.4690968628892307  1.0000
  H   H37       1.0  0.28802710840093937  0.33073042128218316  0.9620404235314837  1.0000
  H   H38       1.0  0.6920230824503834  0.30363043758330116  0.9372963860944169  1.0000
  H   H39       1.0  0.6548795179691566  0.3636604661172313  0.9994666153832482  1.0000
  H   H40       1.0  0.7108339210620755  0.13135558949498702  0.9620525769100965  1.0000
  H   H41       1.0  0.3067062372527475  0.133621931445809  0.9372977914738454  1.0000
  H   H42       1.0  0.34416633154516774  0.13576112804436485  0.9994662688763326  1.0000
  H   H43       1.0  0.712213567298093  0.5353720203794338  0.371331819713241  1.0000
  H   H44       1.0  0.30811514615957253  0.5330027663422712  0.3960467676197722  1.0000
  H   H45       1.0  0.3455218798143563  0.5308958124430845  0.3338886834837779  1.0000
  H   H46       1.0  0.2880008203762614  0.3359645053466879  0.3713316630261119  1.0000
  H   H47       1.0  0.6921802549216238  0.36302162869446153  0.3960396880347474  1.0000
  H   H48       1.0  0.6547079557593632  0.30297428218045036  0.3338874961905773  1.0000
  C   C1        1.0  0.5002671296967023  0.458767948003036  0.4175452522555503  1.0000
  C   C2        1.0  0.5003787238793578  0.4587554728338715  0.5412213040339964  1.0000
  C   C3        1.0  0.5003755246549986  0.5824449472689609  0.5412227490410046  1.0000
  C   C4        1.0  0.4993174276609266  0.20790139713889733  0.7921081008108785  1.0000
  C   C5        1.0  0.4992242942572034  0.0842221108262746  0.7921239953498825  1.0000
  C   C6        1.0  0.4991653785536059  0.20791350283131024  0.915798802679461  1.0000
  C   C7        1.0  0.4990686135593805  0.2375598287047538  0.7624737248358217  1.0000
  C   C8        1.0  0.5191822620160522  0.20905740227370728  0.7064722586636449  1.0000
  C   C9        1.0  0.523709059589237  0.2374072843618292  0.6794870027584706  1.0000
  C   C10       1.0  0.4996731412124191  0.2931805012246826  0.7068556707997188  1.0000
  C   C11       1.0  0.4757544113606542  0.3205595464858816  0.7626300449766176  1.0000
  C   C12       1.0  0.4793319626704432  0.29357171301132473  0.7909820619338745  1.0000
  C   C13       1.0  0.5003138702035059  0.32122701505602436  0.6787919805299154  1.0000
  C   C14       1.0  0.5005940229672704  0.3454393125687574  0.6545341625764678  1.0000
  C   C15       1.0  0.5004590338442725  0.3734866153241754  0.6264800054439164  1.0000
  C   C16       1.0  0.4767928500201677  0.34611112080124684  0.5707138038143355  1.0000
  C   C17       1.0  0.4808229016622435  0.3730940197808509  0.5423639631558146  1.0000
  C   C18       1.0  0.500336008747432  0.4291055083521798  0.5708712995647858  1.0000
  C   C19       1.0  0.5197864602309394  0.45760903310151957  0.6268792165947232  1.0000
  C   C20       1.0  0.5239421163308863  0.42925717461891827  0.6538588746801679  1.0000
  C   C21       1.0  0.49897992063567637  0.02492461177403982  0.7624556154268874  1.0000
  C   C22       1.0  0.5190681709111544  0.9974188307124692  0.7909490683606606  1.0000
  C   C23       1.0  0.5235161046223029  0.9420759728450888  0.7625921794833416  1.0000
  C   C24       1.0  0.4995532872145673  0.913678731750018  0.7068220680586209  1.0000
  C   C25       1.0  0.47568534355782083  0.9420780261884687  0.6794509576408172  1.0000
  C   C26       1.0  0.47925331878559524  0.9974251160482411  0.7064473861853884  1.0000
  C   C27       1.0  0.5001453864291676  0.8575621626742419  0.6787693103699296  1.0000
  C   C28       1.0  0.5004102706838367  0.8090916668255019  0.6545467051567612  1.0000
  C   C29       1.0  0.5002925632326836  0.7529839651296727  0.6264988457457009  1.0000
  C   C30       1.0  0.47674544077130326  0.7245926070677768  0.6538709923501925  1.0000
  C   C31       1.0  0.4808078830574587  0.6692535812162745  0.6268857655923626  1.0000
  C   C32       1.0  0.500259927351351  0.6417522625637844  0.5708751239557442  1.0000
  C   C33       1.0  0.5197105595522729  0.6692598456655219  0.5423764950147856  1.0000
  C   C34       1.0  0.5238842382821288  0.7245985272291832  0.5707327375081803  1.0000
  C   C35       1.0  0.4990045314104776  0.2375397832799778  0.9750895696692155  1.0000
  C   C36       1.0  0.5191016859481933  0.2935458179768276  0.002589977670417939  1.0000
  C   C37       1.0  0.5235448305302699  0.3205328161527916  0.057928457573240194  1.0000
  C   C38       1.0  0.4996148302623169  0.29316389880037264  0.08632701067345751  1.0000
  C   C39       1.0  0.4756603579986916  0.23738639137797432  0.05793052067468101  1.0000
  C   C40       1.0  0.4792582575480608  0.20903463899545474  0.0025883304294965054  1.0000
  C   C41       1.0  0.5001691927759992  0.32121948728099886  0.14244209271279126  1.0000
  C   C42       1.0  0.5004936689306163  0.34543887279525626  0.19090833003423305  1.0000
  C   C43       1.0  0.5004117415223774  0.373493111888223  0.24701650417280518  1.0000
  C   C44       1.0  0.4766799003725879  0.4292634633134753  0.27540847422453407  1.0000
  C   C45       1.0  0.48077072607820526  0.45762130092932557  0.33074320151514053  1.0000
  C   C46       1.0  0.5002530605152486  0.4291197710204742  0.358246097302036  1.0000
  C   C47       1.0  0.5197284807760454  0.3731068405639276  0.3307434178560129  1.0000
  C   C48       1.0  0.5239475087663407  0.34612059026918734  0.2754076263842293  1.0000
  C   C49       1.0  0.541266505296335  0.14933791857625064  0.6755701407516241  1.0000
  C   C50       1.0  0.45755750538428686  0.32450661354424437  0.8507007865366276  1.0000
  C   C51       1.0  0.45919016502186594  0.34218398792594945  0.4826417326741606  1.0000
  C   C52       1.0  0.5411778564959916  0.5173383338124327  0.6577948941739891  1.0000
  C   C53       1.0  0.5411899617186293  0.026223066366746595  0.8506623669245528  1.0000
  C   C54       1.0  0.457507508390293  0.026207453032327414  0.675511567478594  1.0000
  C   C55       1.0  0.4592046737113192  0.6404526922644322  0.6578056606289877  1.0000
  C   C56       1.0  0.54111751478748  0.6404486500622042  0.4826528431155027  1.0000
  C   C57       1.0  0.5411271901647368  0.32446132718922627  0.973793753093652  1.0000
  C   C58       1.0  0.457556459678699  0.14931022211393238  0.9737941690701106  1.0000
  C   C59       1.0  0.45907713297818015  0.5173486801600974  0.3595532014022568  1.0000
  C   C60       1.0  0.5411802820390506  0.34219491299651134  0.3595520650858361  1.0000
  O   O1        1.0  0.7356641034999853  0.5586341700565214  0.5514087949170445  1.0000
  O   O2        1.0  0.7356220081892532  0.4927564871391609  0.4413571625281349  1.0000
  O   O3        1.0  0.7357061575818733  0.4485711602879618  0.5072281584325893  1.0000
  O   O4        1.0  0.26498676475348765  0.5586356957568698  0.5072410611746889  1.0000
  O   O5        1.0  0.2650398467511508  0.4927451083425113  0.5513978507600755  1.0000
  O   O6        1.0  0.264914868810152  0.4485825806310544  0.4413495433708263  1.0000
  O   O7        1.0  0.7344628321826646  0.17391831945055714  0.8919781551708539  1.0000
  O   O8        1.0  0.7345586682024248  0.21809175458520258  0.8261135414896615  1.0000
  O   O9        1.0  0.7345272052039177  0.10804003287555006  0.7819477688553819  1.0000
  O   O10       1.0  0.2640275519185166  0.2181029827704321  0.8919768796075758  1.0000
  O   O11       1.0  0.26403170129476916  0.10805220763274534  0.8261298128350915  1.0000
  O   O12       1.0  0.2641129788971027  0.17389705281293263  0.781932048043913  1.0000
