data_image0
_chemical_formula_structural       H44Pb2C40S2N4O14
_chemical_formula_sum              "H44 Pb2 C40 S2 N4 O14"
_cell_length_a       8.191608297936641
_cell_length_b       10.359115370945455
_cell_length_c       14.129
_cell_angle_alpha    108.5062550534085
_cell_angle_beta     105.06182523101779
_cell_angle_gamma    95.19309927043479

_space_group_name_H-M_alt    "P 1"
_space_group_IT_number       1

loop_
  _space_group_symop_operation_xyz
  'x, y, z'

loop_
  _atom_site_type_symbol
  _atom_site_label
  _atom_site_symmetry_multiplicity
  _atom_site_fract_x
  _atom_site_fract_y
  _atom_site_fract_z
  _atom_site_occupancy
  H   H1        1.0  0.5778948849175549  0.8371040559526577  0.7696771831388884  1.0000
  H   H2        1.0  0.4220342613684095  0.1628884101564481  0.23032588877700277  1.0000
  H   H3        1.0  0.2544130863798485  0.8102084096351945  0.3424102659905514  1.0000
  H   H4        1.0  0.7456233717406844  0.1897996060863534  0.6575545555782795  1.0000
  H   H5        1.0  0.3686611228712806  0.2246981196063942  0.710975626331141  1.0000
  H   H6        1.0  0.6313403736907757  0.7752901999393984  0.2890225178811504  1.0000
  H   H7        1.0  0.5140025156441651  0.1721601257341518  0.8030321742024497  1.0000
  H   H8        1.0  0.48596756872557717  0.8278074609950536  0.19694508831633328  1.0000
  H   H9        1.0  0.4209332682539325  0.1556630235758902  0.9408736115084719  1.0000
  H   H10       1.0  0.5790824282356721  0.8443481020681459  0.05911003876354923  1.0000
  H   H11       1.0  0.18978820234132598  0.1174524426060799  0.018540601486520803  1.0000
  H   H12       1.0  0.8102068794275823  0.8825731960095666  0.9814383660388939  1.0000
  H   H13       1.0  0.8821960439050469  0.0431190752967723  0.905110227801593  1.0000
  H   H14       1.0  0.11778780458726598  0.956891013706432  0.09489669356021575  1.0000
  H   H15       1.0  0.811918962172001  0.0080806152647739  0.7156328176649253  1.0000
  H   H16       1.0  0.18806649248145382  0.9919470966325292  0.28437773907652536  1.0000
  H   H17       1.0  0.04123293925950829  0.0544827320681023  0.6400873878010882  1.0000
  H   H18       1.0  0.9587296587220349  0.945501440914377  0.3598876523803866  1.0000
  H   H19       1.0  0.1989742331911444  0.3768749200731776  0.08072921186062128  1.0000
  H   H20       1.0  0.8009801463138758  0.6230957765785163  0.9192428694697837  1.0000
  H   H21       1.0  0.18451955792542657  0.5539984820982511  0.10118748376531529  1.0000
  H   H22       1.0  0.8154262154472106  0.4459732511942676  0.8987920353763312  1.0000
  H   H23       1.0  0.9215837227676856  0.634205456346649  0.11483958008377465  1.0000
  H   H24       1.0  0.07841344665362018  0.365785973121632  0.8852095949540766  1.0000
  H   H25       1.0  0.6141945198114342  0.5803975774584558  0.10346740083129895  1.0000
  H   H26       1.0  0.38578529043486737  0.4195845222423599  0.8965458460406663  1.0000
  H   H27       1.0  0.4939179783071238  0.3537650860644987  0.10933169190931118  1.0000
  H   H28       1.0  0.5060457851048594  0.6462025006647067  0.8906601891031513  1.0000
  H   H29       1.0  0.6811505839043546  0.1797866923156732  0.12197701011572797  1.0000
  H   H30       1.0  0.3188358386573212  0.8201912608218294  0.8780426378694057  1.0000
  H   H31       1.0  0.9873323730993206  0.2323817014335248  0.1292867506242885  1.0000
  H   H32       1.0  0.012652154406460158  0.7676097280347562  0.8707258393328556  1.0000
  H   H33       1.0  0.9340206188390283  0.615829961005609  0.3273892514087819  1.0000
  H   H34       1.0  0.06603703671742517  0.3841552486176951  0.6726293697620916  1.0000
  H   H35       1.0  0.7856923769791564  0.6906940884195407  0.3919327315904723  1.0000
  H   H36       1.0  0.21438273897627613  0.3093439898860595  0.6080710975527949  1.0000
  H   H37       1.0  0.836236919668714  0.5249497327782322  0.39574082103149516  1.0000
  H   H38       1.0  0.16377882743287833  0.47508316232322295  0.6042875377968996  1.0000
  H   H39       1.0  0.06660139751751606  0.7432911708190559  0.68253769148005  1.0000
  H   H40       1.0  0.9334784332345265  0.2567292845924456  0.3174783176493321  1.0000
  H   H41       1.0  0.9045342282844188  0.5961659211136805  0.5872651223372571  1.0000
  H   H42       1.0  0.09553514942846417  0.4038638640652792  0.4127663461823161  1.0000
  H   H43       1.0  0.8694008902905351  0.77340144034833  0.6108601941898043  1.0000
  H   H44       1.0  0.13067680219712224  0.2266314547531252  0.3891796206486617  1.0000
  Pb  Pb1       1.0  0.48524702268162656  0.7058943529002875  0.5069123611466536  1.0000
  Pb  Pb2       1.0  0.5147818502895942  0.2941136628212675  0.4930831670282173  1.0000
  C   C1        1.0  0.3315309050505846  0.0050671003738572  0.540260068588438  1.0000
  C   C2        1.0  0.6684844976185501  0.9949212191719353  0.45973380084615906  1.0000
  C   C3        1.0  0.3985183956063806  0.0159539023636839  0.6534486554402219  1.0000
  C   C4        1.0  0.6014972527340986  0.9840624064845045  0.34654610249925333  1.0000
  C   C5        1.0  0.389353173054097  0.1401579866913139  0.7411110264529766  1.0000
  C   C6        1.0  0.6106255705228774  0.8598572855160427  0.2588998708442459  1.0000
  C   C7        1.0  0.2472976122912485  0.110259191891231  0.7861750618722566  1.0000
  C   C8        1.0  0.7526509808221106  0.8897083948379744  0.2138117025200329  1.0000
  C   C9        1.0  0.2866503437027602  0.1252054793687805  0.8920816243485489  1.0000
  C   C10       1.0  0.7133072456617027  0.8747735104095468  0.10791056464206142  1.0000
  C   C11       1.0  0.15648682759044158  0.1021060117683987  0.9353034217952679  1.0000
  C   C12       1.0  0.8434654642621805  0.8978988940306607  0.06468479925180039  1.0000
  C   C13       1.0  0.9848929640898232  0.060449636681830995  0.8720734273959108  1.0000
  C   C14       1.0  0.015064093171403663  0.9395594156805416  0.1279242619940604  1.0000
  C   C15       1.0  0.9452090819754202  0.0419849902294658  0.7657787611778841  1.0000
  C   C16       1.0  0.054769952959162475  0.9580261354145706  0.23422767621596552  1.0000
  C   C17       1.0  0.07491197812254308  0.0678232629009941  0.7231135398755908  1.0000
  C   C18       1.0  0.925039143373915  0.9321443238282113  0.2768728976797731  1.0000
  C   C19       1.0  0.3589598787721542  0.4047263492352968  0.28106297907721967  1.0000
  C   C20       1.0  0.6410475029426763  0.595281666486251  0.7189314345085761  1.0000
  C   C21       1.0  0.2752174394770961  0.508928448760642  0.24043396425388144  1.0000
  C   C22       1.0  0.7248041878515465  0.49107023719344056  0.7595512234459745  1.0000
  C   C23       1.0  0.16288619121274905  0.4684818335219276  0.12927616008080625  1.0000
  C   C24       1.0  0.8370795178671171  0.5314940463339113  0.8707193595522679  1.0000
  C   C25       1.0  0.974434186694225  0.43639468993108477  0.12200615431373756  1.0000
  C   C26       1.0  0.025539545802807564  0.5635884464105629  0.8780021715416024  1.0000
  C   C27       1.0  0.8684333640364486  0.5341478468570457  0.11541170955552352  1.0000
  C   C28       1.0  0.1315615202102336  0.46584461925206  0.8846154217522508  1.0000
  C   C29       1.0  0.6957402025231545  0.5040769696792893  0.10994892091348156  1.0000
  C   C30       1.0  0.3042480694081532  0.4959196429931366  0.8900767636303326  1.0000
  C   C31       1.0  0.6280502064496429  0.3771465199704664  0.11269034929164681  1.0000
  C   C32       1.0  0.371934174145899  0.6228335064486856  0.8873181493125344  1.0000
  C   C33       1.0  0.7330864867877765  0.2792534165325478  0.11971770815862469  1.0000
  C   C34       1.0  0.2668965814670868  0.7207317930907564  0.8802988765927037  1.0000
  C   C35       1.0  0.9051181207271739  0.3086276710729834  0.12395898616443188  1.0000
  C   C36       1.0  0.09487355366007925  0.691356501909496  0.876050160775655  1.0000
  C   C37       1.0  0.8845936082341197  0.6260533128646486  0.39396655608278036  1.0000
  C   C38       1.0  0.11545135972054506  0.3739640326243645  0.6060512622750662  1.0000
  C   C39       1.0  0.9635559622514975  0.7045560495895984  0.6075116052192938  1.0000
  C   C40       1.0  0.03650689944426229  0.2954675157443916  0.39251035648485544  1.0000
  S   S1        1.0  0.058982624975996586  0.7217342247727387  0.5103854768275581  1.0000
  S   S2        1.0  0.9410651627193828  0.2782789741529541  0.4896254314974724  1.0000
  N   N1        1.0  0.46371644562913156  0.9125186396469757  0.6693762987914906  1.0000
  N   N2        1.0  0.5362403659607438  0.0874624234130152  0.3305921915266835  1.0000
  N   N3        1.0  0.3023387616987064  0.6317227015603564  0.30953075075841946  1.0000
  N   N4        1.0  0.6977011976388778  0.3682894607245117  0.6904433486896904  1.0000
  O   O1        1.0  0.3357770961172689  0.892255421355685  0.46898498290934737  1.0000
  O   O2        1.0  0.6642085511326954  0.107751557725031  0.5309839742189479  1.0000
  O   O3        1.0  0.2759402196427629  0.1066858909524626  0.5217842145078676  1.0000
  O   O4        1.0  0.7241158803645361  0.8933034652341618  0.4781919636673349  1.0000
  O   O5        1.0  0.5244135053363904  0.9238480872709331  0.771826342810513  1.0000
  O   O6        1.0  0.4755476864690848  0.0761785879855452  0.2281590843103628  1.0000
  O   O7        1.0  0.4543716904633968  0.4474867468051187  0.37652128508891985  1.0000
  O   O8        1.0  0.545701236615656  0.5525420017330163  0.6234673033204456  1.0000
  O   O9        1.0  0.32684670865858567  0.2814759744706663  0.21692013044517464  1.0000
  O   O10       1.0  0.6731041720922517  0.7185175282792713  0.7830899960597077  1.0000
  O   O11       1.0  0.22301747524485893  0.7266955877820038  0.2753568950491143  1.0000
  O   O12       1.0  0.7770032780109588  0.2733155378620324  0.7246126540297694  1.0000
  O   O13       1.0  0.19661140675967195  0.6290533514247869  0.5121093609643379  1.0000
  O   O14       1.0  0.8034303513355567  0.3709557009375928  0.48790321278093524  1.0000
