data_image0
_chemical_formula_structural       Hg4H44C64I8Br4N8
_chemical_formula_sum              "Hg4 H44 C64 I8 Br4 N8"
_cell_length_a       7.284459148003153
_cell_length_b       8.757508384016539
_cell_length_c       27.923575979045825
_cell_angle_alpha    90.00020257997247
_cell_angle_beta     89.99995185311072
_cell_angle_gamma    90.00009301990934

_space_group_name_H-M_alt    "P 1"
_space_group_IT_number       1

loop_
  _space_group_symop_operation_xyz
  'x, y, z'

loop_
  _atom_site_type_symbol
  _atom_site_label
  _atom_site_symmetry_multiplicity
  _atom_site_fract_x
  _atom_site_fract_y
  _atom_site_fract_z
  _atom_site_occupancy
  Hg  Hg1       1.0  0.7016543010734184  0.6640035432061849  0.2520586150861206  1.0000
  Hg  Hg2       1.0  0.701656561828017  0.16400399862278187  0.2479417454170232  1.0000
  Hg  Hg3       1.0  0.2016559490478826  0.3359937625996919  0.7479416148304524  1.0000
  Hg  Hg4       1.0  0.20165506108320835  0.835996732811857  0.7520577682606344  1.0000
  H   H1        1.0  0.5216269547483704  0.7274770492195373  0.4707262238564311  1.0000
  H   H2        1.0  0.5216257296274875  0.2274704662232877  0.029273534116114795  1.0000
  H   H3        1.0  0.0216263650442343  0.27252800801188926  0.5292729751961787  1.0000
  H   H4        1.0  0.021626217369593796  0.7725254559928912  0.9707263811722485  1.0000
  H   H5        1.0  0.5451417047125348  0.962399750709835  0.417969497719092  1.0000
  H   H6        1.0  0.5451430725657147  0.4623937638586779  0.0820308725891365  1.0000
  H   H7        1.0  0.0451446195943674  0.03760419621797689  0.5820296956515989  1.0000
  H   H8        1.0  0.0451432517355812  0.5376044736826484  0.9179683207783925  1.0000
  H   H9        1.0  0.627281044178943  0.9286134553884294  0.3321262375033598  1.0000
  H   H10       1.0  0.6272862820921007  0.4286084385482808  0.1678737174627898  1.0000
  H   H11       1.0  0.1272865226580109  0.07138945994555707  0.6678729360225758  1.0000
  H   H12       1.0  0.127285403099151  0.5713921930338797  0.8321254560613838  1.0000
  H   H13       1.0  0.6693536914212287  0.4585883267451931  0.34724115682451645  1.0000
  H   H14       1.0  0.6693572090264227  0.9585844655092399  0.1527581048989433  1.0000
  H   H15       1.0  0.16935464517442972  0.5414135031979725  0.6527583646574371  1.0000
  H   H16       1.0  0.16935387313810682  0.04141622256252477  0.8472421328226858  1.0000
  H   H17       1.0  0.6187882740717328  0.3285334583220631  0.4219532267720966  1.0000
  H   H18       1.0  0.6187892622085087  0.8285298947282838  0.07804554516712159  1.0000
  H   H19       1.0  0.11878420809414081  0.6714705874863398  0.5780470231683239  1.0000
  H   H20       1.0  0.11878871109494331  0.17146958357461264  0.9219547047701154  1.0000
  H   H21       1.0  0.3650067071256586  0.17046681463478555  0.4529696128953944  1.0000
  H   H22       1.0  0.3650036666199341  0.670464042438354  0.04702940360567711  1.0000
  H   H23       1.0  0.865010022047784  0.8295352779972233  0.5470298613190039  1.0000
  H   H24       1.0  0.8650034530500721  0.32953576644272425  0.95297186121023  1.0000
  H   H25       1.0  0.33895191621967774  0.9324589179915036  0.5012095610533933  1.0000
  H   H26       1.0  0.3389507058293759  0.43245421479903706  0.9987895374640274  1.0000
  H   H27       1.0  0.838955247606421  0.06754313965483048  0.4987892032148694  1.0000
  H   H28       1.0  0.8389523396316321  0.5675444172328808  0.0012128080060450001  1.0000
  H   H29       1.0  0.6016457003683868  0.05970373369828507  0.6550525228784849  1.0000
  H   H30       1.0  0.6016472892939647  0.5597031860278248  0.844946457916528  1.0000
  H   H31       1.0  0.1016524458500285  0.9402934378295666  0.3449462987169909  1.0000
  H   H32       1.0  0.1016549752796081  0.4402962692715491  0.1550548705219583  1.0000
  H   H33       1.0  0.7170490954253523  0.2973012764333091  0.6913116066519008  1.0000
  H   H34       1.0  0.7170439253001035  0.7973014609230018  0.8086886834806394  1.0000
  H   H35       1.0  0.21704724264661476  0.7026949081561751  0.3086875451843127  1.0000
  H   H36       1.0  0.21704829441384987  0.20269586555113503  0.1913122589583054  1.0000
  H   H37       1.0  0.7291189306465499  0.5377609619375221  0.6436319567541773  1.0000
  H   H38       1.0  0.729115386637858  0.037760358796042205  0.8563687595716303  1.0000
  H   H39       1.0  0.2291178406989971  0.46223523885966933  0.3563675502863505  1.0000
  H   H40       1.0  0.22911452077916292  0.962236983881929  0.1436321799516449  1.0000
  H   H41       1.0  0.6287862783748467  0.5369827940768841  0.5583087275449472  1.0000
  H   H42       1.0  0.6287824875708806  0.03698087131529349  0.9416920121584269  1.0000
  H   H43       1.0  0.128784943164753  0.4630178395229334  0.4416911618575412  1.0000
  H   H44       1.0  0.1287832428256337  0.9630197622848866  0.05830859348537131  1.0000
  C   C1        1.0  0.5581499605725212  0.7199633078869635  0.4329842727523925  1.0000
  C   C2        1.0  0.5581513718566669  0.21995829324780658  0.0670158262050151  1.0000
  C   C3        1.0  0.05815202201976889  0.2800395146301184  0.567015275595466  1.0000
  C   C4        1.0  0.058150610728979805  0.7800388198868404  0.9329844383803234  1.0000
  C   C5        1.0  0.5707797550464307  0.8482713373973282  0.4040815254337319  1.0000
  C   C6        1.0  0.5707824555150796  0.3482655074774782  0.09591871241971722  1.0000
  C   C7        1.0  0.0707828538020152  0.15173264395069447  0.5959173036227908  1.0000
  C   C8        1.0  0.0707828988983579  0.6517339063692658  0.9040811909949087  1.0000
  C   C9        1.0  0.6176988703896028  0.8303687447430049  0.3559580173346149  1.0000
  C   C10       1.0  0.6177028044507084  0.3303646004845858  0.1440418312584626  1.0000
  C   C11       1.0  0.11770323787701639  0.16963301584774365  0.6440411585057505  1.0000
  C   C12       1.0  0.11770204938366649  0.669634876357456  0.855958060820953  1.0000
  C   C13       1.0  0.6415191749344444  0.5682029167678166  0.3645165869970555  1.0000
  C   C14       1.0  0.6415203881801617  0.0681986757958697  0.1354829658061547  1.0000
  C   C15       1.0  0.14151996347298726  0.43179887580613746  0.6354832993297066  1.0000
  C   C16       1.0  0.14151737743950582  0.9318008330225707  0.864516920519506  1.0000
  C   C17       1.0  0.5933549325266512  0.5757680952011127  0.4129555935314286  1.0000
  C   C18       1.0  0.5933576586629244  0.07576102312512485  0.0870439792753359  1.0000
  C   C19       1.0  0.09335721911016039  0.4242359164602475  0.5870439463119653  1.0000
  C   C20       1.0  0.0933558657532814  0.9242372791526916  0.91295591868505  1.0000
  C   C21       1.0  0.5767948426964224  0.43455798274124646  0.44031232876119475  1.0000
  C   C22       1.0  0.5767931383641313  0.9345530698130768  0.059686212497887  1.0000
  C   C23       1.0  0.0767933672582046  0.5654448648043909  0.5596868569624007  1.0000
  C   C24       1.0  0.07679095322421152  0.065444068359497  0.9403158381856187  1.0000
  C   C25       1.0  0.4986240846134607  0.2985710080619342  0.5087999094583537  1.0000
  C   C26       1.0  0.4986225049367619  0.7985698292621349  0.9911997186059195  1.0000
  C   C27       1.0  0.9986314278977559  0.7014289802152759  0.4911995324740417  1.0000
  C   C28       1.0  0.9986261436470584  0.20143244277315375  0.0088011558098557  1.0000
  C   C29       1.0  0.42004436869316913  0.16769001132100667  0.4893109386708119  1.0000
  C   C30       1.0  0.42004006051735143  0.6676868284743094  0.0106880614617566  1.0000
  C   C31       1.0  0.920049166967793  0.8323121552065443  0.5106885222470154  1.0000
  C   C32       1.0  0.9200452384256935  0.33231305430324193  0.989313190057409  1.0000
  C   C33       1.0  0.404777449078452  0.032802474107043594  0.516629716487671  1.0000
  C   C34       1.0  0.404774519263853  0.5328000649482901  0.9833689239865322  1.0000
  C   C35       1.0  0.9047839639523974  0.9671985300426795  0.48336903187696834  1.0000
  C   C36       1.0  0.9047814026213176  0.4672009392119134  0.0166323312210181  1.0000
  C   C37       1.0  0.4711035104256567  0.028895276092320895  0.5629260689642948  1.0000
  C   C38       1.0  0.4711062056646611  0.5288946275548198  0.9370729092843888  1.0000
  C   C39       1.0  0.9711156580211124  0.9711046752344501  0.4370726633755027  1.0000
  C   C40       1.0  0.9711143355662414  0.47110760754163294  0.0629283298987531  1.0000
  C   C41       1.0  0.5463610814479055  0.16045913128688483  0.5856116225183214  1.0000
  C   C42       1.0  0.5463597239463597  0.6604570845260864  0.9143871249782264  1.0000
  C   C43       1.0  0.0463701738560047  0.8395402497730372  0.4143875705545099  1.0000
  C   C44       1.0  0.046367413000055514  0.33954343841647017  0.08561350057702552  1.0000
  C   C45       1.0  0.6076215686517726  0.16379258436422356  0.6337759352076519  1.0000
  C   C46       1.0  0.6076189776775821  0.6637911352372824  0.8662235174180354  1.0000
  C   C47       1.0  0.1076253026868557  0.8362068789435638  0.36622360118639824  1.0000
  C   C48       1.0  0.10762926644613201  0.3362094699547881  0.1337770933374429  1.0000
  C   C49       1.0  0.6718721506141422  0.2971080583602585  0.6540574293436308  1.0000
  C   C50       1.0  0.6718668727347393  0.7971098056895654  0.84594251336992  1.0000
  C   C51       1.0  0.17187156324455802  0.7028892074540138  0.3459420915275544  1.0000
  C   C52       1.0  0.17187272276646579  0.2028886020073343  0.154058439983686  1.0000
  C   C53       1.0  0.6784301195825648  0.433151171411616  0.6270677657931999  1.0000
  C   C54       1.0  0.6784247636339985  0.9331509399666513  0.872932683960471  1.0000
  C   C55       1.0  0.1784264415109931  0.5668461032074531  0.37293211161436096  1.0000
  C   C56       1.0  0.17842767910370583  0.0668486184103116  0.1270682678098112  1.0000
  C   C57       1.0  0.6230218192522302  0.4334911469208719  0.5798582032053758  1.0000
  C   C58       1.0  0.6230176995384723  0.9334914489329048  0.920141902190224  1.0000
  C   C59       1.0  0.12302074953246493  0.5665060533077692  0.4201416875878082  1.0000
  C   C60       1.0  0.12301937810486412  0.06650803505271338  0.079859062965852  1.0000
  C   C61       1.0  0.5560050754469401  0.2987757203484377  0.5579565722958151  1.0000
  C   C62       1.0  0.5560036379538645  0.7987739860867008  0.9420426840117314  1.0000
  C   C63       1.0  0.056009697980435605  0.7012236736566918  0.4420426184476867  1.0000
  C   C64       1.0  0.05600838990100951  0.20122654980399798  0.057958297334344905  1.0000
  I   I1        1.0  0.3923754387034109  0.6921320402608799  0.1988448532295735  1.0000
  I   I2        1.0  0.3923761727564496  0.1921342388546066  0.301154896870834  1.0000
  I   I3        1.0  0.8923756217167949  0.3078655216096351  0.8011553306113868  1.0000
  I   I4        1.0  0.8923762604542631  0.8078678905239939  0.6988449288521678  1.0000
  I   I5        1.0  0.9487911336482852  0.4201136140502726  0.2611074346024154  1.0000
  I   I6        1.0  0.9487916565421912  0.9201107261167463  0.23889386577037186  1.0000
  I   I7        1.0  0.44879054100196913  0.5798874492084707  0.7388948843331491  1.0000
  I   I8        1.0  0.4487913908970286  0.0798880533660764  0.7611045138402305  1.0000
  Br  Br1       1.0  0.45493284406783374  0.8413274563835528  0.5977974122372132  1.0000
  Br  Br2       1.0  0.4549593687687832  0.3413250874104036  0.9022001249580498  1.0000
  Br  Br3       1.0  0.9549572255101352  0.15867018947771777  0.40219989152518565  1.0000
  Br  Br4       1.0  0.954963647660236  0.6586759841230857  0.09780040188515222  1.0000
  N   N1        1.0  0.6518934774668566  0.6927907151312879  0.3367820263809023  1.0000
  N   N2        1.0  0.6518959832754804  0.19278564568039505  0.16321801986785542  1.0000
  N   N3        1.0  0.15189531399413883  0.30721109137007113  0.6632174993191101  1.0000
  N   N4        1.0  0.1518941809688741  0.8072150189486392  0.8367822220720029  1.0000
  N   N5        1.0  0.5179173823739803  0.4348744881651853  0.4836649496573457  1.0000
  N   N6        1.0  0.51791580343712  0.9348725110057287  0.016335754899508004  1.0000
  N   N7        1.0  0.017922895634910698  0.5651271384639784  0.5163353246497806  1.0000
  N   N8        1.0  0.0179203562135086  0.06512683186405611  0.9836641612865265  1.0000
