data_image0
_chemical_formula_structural       Ag4H44C52Se4N16O12
_chemical_formula_sum              "Ag4 H44 C52 Se4 N16 O12"
_cell_length_a       9.116018032
_cell_length_b       10.660110153476888
_cell_length_c       14.795
_cell_angle_alpha    91.26324623493814
_cell_angle_beta     90.0
_cell_angle_gamma    90.0

_space_group_name_H-M_alt    "P 1"
_space_group_IT_number       1

loop_
  _space_group_symop_operation_xyz
  'x, y, z'

loop_
  _atom_site_type_symbol
  _atom_site_label
  _atom_site_symmetry_multiplicity
  _atom_site_fract_x
  _atom_site_fract_y
  _atom_site_fract_z
  _atom_site_occupancy
  Ag  Ag1       1.0  0.1275216872015079  0.8629672395109439  0.7736984467630422  1.0000
  Ag  Ag2       1.0  0.6275228921135607  0.6370347373093139  0.7263029026508435  1.0000
  Ag  Ag3       1.0  0.8724785286822225  0.1370337656010037  0.2263031237820314  1.0000
  Ag  Ag4       1.0  0.3724773237701697  0.3629606379746875  0.27369722665849144  1.0000
  H   H1        1.0  0.2949171437093128  0.9780249716963995  0.9184439731445269  1.0000
  H   H2        1.0  0.7949150577108028  0.5219760668191995  0.5815560095566994  1.0000
  H   H3        1.0  0.7050830721744248  0.0219760334155552  0.0815569214965279  1.0000
  H   H4        1.0  0.2050851581729276  0.47802306168343023  0.4184435034670742  1.0000
  H   H5        1.0  0.1526850863078693  0.9546274067226436  0.24236970941102243  1.0000
  H   H6        1.0  0.6526797093988037  0.5453755084022731  0.25763097900345855  1.0000
  H   H7        1.0  0.8473151295758683  0.0453782899125983  0.7576319356571306  1.0000
  H   H8        1.0  0.3473161186041835  0.4546254967096814  0.742368563829551  1.0000
  H   H9        1.0  0.366124769420594  0.0829620830239151  0.1985682438673706  1.0000
  H   H10       1.0  0.866120489481716  0.4170398269890542  0.301431549906063  1.0000
  H   H11       1.0  0.6338776404035116  0.9170398603926982  0.8014326656782985  1.0000
  H   H12       1.0  0.1338753385212712  0.5829583632089239  0.6985665964050582  1.0000
  H   H13       1.0  0.1222726848594746  0.616402356165267  0.020572664206113696  1.0000
  H   H14       1.0  0.6222738897715274  0.8835939908270305  0.4794265680680142  1.0000
  H   H15       1.0  0.8777253370838877  0.3835920808140685  0.9794274501986067  1.0000
  H   H16       1.0  0.3777285200525781  0.1164041993709404  0.5205742818591901  1.0000
  H   H17       1.0  0.0933631325664734  0.570023833486303  0.9032107476295437  1.0000
  H   H18       1.0  0.5933665314189013  0.929975328419971  0.5967878534544087  1.0000
  H   H19       1.0  0.9066337924066943  0.4299724801023501  0.09678872068038662  1.0000
  H   H20       1.0  0.4066369753753918  0.0700247383873176  0.4032123503780056  1.0000
  H   H21       1.0  0.0098837013796711  0.8351924833035298  0.1256175120701997  1.0000
  H   H22       1.0  0.5098816153811683  0.6648094935167279  0.374385189151731  1.0000
  H   H23       1.0  0.9901132235935036  0.1648113367223942  0.8743854549967625  1.0000
  H   H24       1.0  0.4901175035323817  0.3351924498998855  0.6256163962979571  1.0000
  H   H25       1.0  0.437589086155505  0.09433902701279351  0.03596964499867281  1.0000
  H   H26       1.0  0.9375859031868146  0.4056628830001685  0.4640301487747536  1.0000
  H   H27       1.0  0.5624122266984131  0.9056610397944952  0.9640312347377673  1.0000
  H   H28       1.0  0.0624110217863603  0.5943362455024612  0.535968012440975  1.0000
  H   H29       1.0  0.3139056976362937  0.6964632011839313  0.1309866783575444  1.0000
  H   H30       1.0  0.8139090964887215  0.8035331458083661  0.36901322982060253  1.0000
  H   H31       1.0  0.6860934212772491  0.3035302974907452  0.8690134211425615  1.0000
  H   H32       1.0  0.1860955072757591  0.1964706742175579  0.6309863577262504  1.0000
  H   H33       1.0  0.7762007463304244  0.6547715102760634  0.9432659558597152  1.0000
  H   H34       1.0  0.2762050262693023  0.8452285899348767  0.5567346878409154  1.0000
  H   H35       1.0  0.2237939847023753  0.3452323097498677  0.05673227987909971  1.0000
  H   H36       1.0  0.7237973835548033  0.1547686619584354  0.4432674989897124  1.0000
  H   H37       1.0  0.5601052983963655  0.7237791264131559  0.2002330181707137  1.0000
  H   H38       1.0  0.0601095783352434  0.7762162822744899  0.2997675510068377  1.0000
  H   H39       1.0  0.43989382051718445  0.276212495652203  0.7997663756161373  1.0000
  H   H40       1.0  0.9398961223994177  0.2237875377514413  0.7002340642520865  1.0000
  H   H41       1.0  0.7867492116430697  0.6948708981778182  0.1111864612635003  1.0000
  H   H42       1.0  0.2867523946117601  0.8051263871191381  0.3888141377232871  1.0000
  H   H43       1.0  0.2132488103002927  0.3051226004968584  0.8888116105245418  1.0000
  H   H44       1.0  0.7132522091527136  0.1948736796881505  0.6111880938211911  1.0000
  C   C1        1.0  0.4093486856762283  0.6628259174678561  0.9968403316892137  1.0000
  C   C2        1.0  0.909349890588281  0.8371713678291003  0.5031582395855096  1.0000
  C   C3        1.0  0.5906482392969465  0.3371750876440913  0.003158535239776898  1.0000
  C   C4        1.0  0.0906525192358245  0.1628286989781884  0.4968426401509234  1.0000
  C   C5        1.0  0.265060906145429  0.9717261325213543  0.9896484132194843  1.0000
  C   C6        1.0  0.7650577231767386  0.528278659212873  0.5103516291002066  1.0000
  C   C7        1.0  0.7349393097383013  0.028279564113887504  0.0103525559446496  1.0000
  C   C8        1.0  0.2349435896771794  0.4717214075944156  0.4896472229241625  1.0000
  C   C9        1.0  0.1458553499271957  0.8986181250249672  0.015374582049105398  1.0000
  C   C10       1.0  0.6458598457498113  0.6013810368813068  0.48462875036300096  1.0000
  C   C11       1.0  0.8541360901950412  0.1013828800869803  0.9846290162080322  1.0000
  C   C12       1.0  0.35414256407429423  0.3986199682306406  0.5153721442780538  1.0000
  C   C13       1.0  0.18410121547684344  0.9584660110821089  0.17159526682409174  1.0000
  C   C14       1.0  0.6841002264485212  0.5415378423474664  0.32840611239902984  1.0000
  C   C15       1.0  0.8158957094963313  0.0415415621624504  0.8284064080532971  1.0000
  C   C16       1.0  0.3158988924650288  0.458464101069147  0.6715934453386012  1.0000
  C   C17       1.0  0.30464617229269914  0.0309556090010048  0.14678235691369682  1.0000
  C   C18       1.0  0.8046429893240016  0.4690481776212749  0.3532167907649395  1.0000
  C   C19       1.0  0.6953518496506632  0.9690500876342368  0.8532179363464112  1.0000
  C   C20       1.0  0.19535283867898556  0.5309518891860137  0.6467827371634486  1.0000
  C   C21       1.0  0.1434310458152055  0.6392116041179037  0.9498859774733719  1.0000
  C   C22       1.0  0.6434344446676263  0.8607875577883703  0.5501139754186256  1.0000
  C   C23       1.0  0.8565658791579693  0.3607847094707495  0.0501148426445965  1.0000
  C   C24       1.0  0.3565679651564793  0.1392106324096005  0.4498861986045598  1.0000
  C   C25       1.0  0.1035485007474151  0.8921222418715615  0.1061068147636988  1.0000
  C   C26       1.0  0.6035453177787247  0.6078797349486891  0.3938911551300778  1.0000
  C   C27       1.0  0.8964484242257598  0.1078806398497036  0.8938927578785397  1.0000
  C   C28       1.0  0.39645380113482526  0.3921212701632584  0.6061070358948869  1.0000
  C   C29       1.0  0.3444343779244505  0.0376710554445836  0.05602319619825381  1.0000
  C   C30       1.0  0.8444344858663155  0.4623299162637196  0.4439759067665321  1.0000
  C   C31       1.0  0.6555625470487243  0.9623299496673638  0.9439756707307296  1.0000
  C   C32       1.0  0.1555657300174147  0.5376701505435761  0.556023621161856  1.0000
  C   C33       1.0  0.4127953660019728  0.6867517479645571  0.09025248993203411  1.0000
  C   C34       1.0  0.9127987648543935  0.8132464756370581  0.4097481239593677  1.0000
  C   C35       1.0  0.5872037529115772  0.3132473805380727  0.9097463471877276  1.0000
  C   C36       1.0  0.0872069358802676  0.1867564060842071  0.5902521245868897  1.0000
  C   C37       1.0  0.6774065143709648  0.6623680247943255  0.9843464073410574  1.0000
  C   C38       1.0  0.1774096973396624  0.8376311371119557  0.515652193742895  1.0000
  C   C39       1.0  0.3225904106022099  0.3376376718409162  0.0156505063989414  1.0000
  C   C40       1.0  0.8225938094546308  0.1623670530860224  0.4843486561843094  1.0000
  C   C41       1.0  0.5383139856430716  0.6536202104596214  0.9441912299101533  1.0000
  C   C42       1.0  0.0383182655819496  0.8463798897513186  0.5558094137904774  1.0000
  C   C43       1.0  0.4616851332704782  0.3463864244802863  0.05580840235055012  1.0000
  C   C44       1.0  0.9616852412123436  0.1536192387513111  0.4441928028493863  1.0000
  C   C45       1.0  0.5511178216589981  0.6997829230670405  0.1284892250151231  1.0000
  C   C46       1.0  0.0511199076575082  0.8002134239252641  0.3715106831630237  1.0000
  C   C47       1.0  0.44888020028435693  0.3002124522169538  0.8715095524861668  1.0000
  C   C48       1.0  0.9488846961069726  0.1997885194913493  0.6284902263826454  1.0000
  C   C49       1.0  0.6813325706681751  0.685708353183891  0.07687329349150221  1.0000
  C   C50       1.0  0.1813368506070532  0.8142879938084135  0.42312729059066356  1.0000
  C   C51       1.0  0.31866545127518714  0.314289837014087  0.923126204627657  1.0000
  C   C52       1.0  0.8186677531574205  0.185712072998875  0.5768742650497957  1.0000
  Se  Se1       1.0  0.0373353802949126  0.7995312764382589  0.9268786917113587  1.0000
  Se  Se2       1.0  0.5373354882367777  0.7004697620773399  0.5731233187019313  1.0000
  Se  Se3       1.0  0.9626659325590053  0.20046879036903684  0.0731235398331194  1.0000
  Se  Se4       1.0  0.4626669215873278  0.2995303047299558  0.4268775610345017  1.0000
  N   N1        1.0  0.2982025694176471  0.6459805339270446  0.935031687949966  1.0000
  N   N2        1.0  0.7982037743296999  0.8540176896745777  0.5649689259414359  1.0000
  N   N3        1.0  0.7017943555555277  0.3540167179662745  0.0649677952645789  1.0000
  N   N4        1.0  0.2017986354944057  0.1459814388280591  0.4350319388903899  1.0000
  N   N5        1.0  0.3708680685066881  0.0167815788240091  0.7089641020063625  1.0000
  N   N6        1.0  0.8708681764485533  0.4832175162749763  0.7910349711491947  1.0000
  N   N7        1.0  0.62913324434723  0.9832156730693029  0.29103538120818234  1.0000
  N   N8        1.0  0.12913423337555227  0.5167806739230016  0.2089658787780095  1.0000
  N   N9        1.0  0.3526506846207624  0.6324867746277363  0.8504192371994321  1.0000
  N   N10       1.0  0.8526507925626275  0.8675123872785447  0.649581391596584  1.0000
  N   N11       1.0  0.6473451433822248  0.3675132921795594  0.149579614824944  1.0000
  N   N12       1.0  0.1473516172614779  0.1324848646147743  0.3504194434260057  1.0000
  N   N13       1.0  0.496143160766401  0.6368677190800298  0.8552309694669945  1.0000
  N   N14       1.0  0.9961443656784538  0.8631305045215855  0.6447682926163623  1.0000
  N   N15       1.0  0.5038537642067737  0.3631351626412354  0.1447665754631871  1.0000
  N   N16       1.0  0.0038569471754641  0.1368658090670678  0.35523252750160594  1.0000
  O   O1        1.0  0.2721703699236357  0.0704488520931292  0.7563546060207501  1.0000
  O   O2        1.0  0.7721704778655081  0.42954930470119734  0.7436424245181287  1.0000
  O   O3        1.0  0.7278298459600946  0.9295483998001829  0.2436428494817307  1.0000
  O   O4        1.0  0.22782864104804193  0.5704479471921147  0.2563597623124991  1.0000
  O   O5        1.0  0.4635763098718684  0.0795569754168497  0.6657557907038625  1.0000
  O   O6        1.0  0.9635764178137407  0.420440243072818  0.8342432526424659  1.0000
  O   O7        1.0  0.5364250029820496  0.9204393381718105  0.334243677606068  1.0000
  O   O8        1.0  0.0364292829209276  0.5795588854298117  0.1657555844772887  1.0000
  O   O9        1.0  0.3740427002261981  0.8962507823706218  0.7046313339045156  1.0000
  O   O10       1.0  0.8740439051382509  0.6037465029263416  0.7953692650822717  1.0000
  O   O11       1.0  0.6259586126277199  0.1037464695226902  0.2953688252140552  1.0000
  O   O12       1.0  0.1259574077156671  0.3962507489669775  0.20463089403629206  1.0000
