data_image0
_chemical_formula_structural       Ba4H36C16O34
_chemical_formula_sum              "Ba4 H36 C16 O34"
_cell_length_a       5.100570341477399
_cell_length_b       9.645981879419324
_cell_length_c       18.496315964530535
_cell_angle_alpha    102.89913311857127
_cell_angle_beta     89.99175104011428
_cell_angle_gamma    105.34142537610013

_space_group_name_H-M_alt    "P 1"
_space_group_IT_number       1

loop_
  _space_group_symop_operation_xyz
  'x, y, z'

loop_
  _atom_site_type_symbol
  _atom_site_label
  _atom_site_symmetry_multiplicity
  _atom_site_fract_x
  _atom_site_fract_y
  _atom_site_fract_z
  _atom_site_occupancy
  Ba  Ba1       1.0  0.8242652619315366  0.1542009046628152  0.8588747712429379  1.0000
  Ba  Ba2       1.0  0.6699643884904561  0.8454589382865905  0.641141344037102  1.0000
  Ba  Ba3       1.0  0.175740855697029  0.8457944749189963  0.1411263188713079  1.0000
  Ba  Ba4       1.0  0.3300335362213147  0.1545475002133543  0.35886054151294633  1.0000
  H   H1        1.0  0.7063765909243571  0.6640697289592126  0.8586068360040497  1.0000
  H   H2        1.0  0.04160399033987975  0.3354780612807532  0.6413991234582213  1.0000
  H   H3        1.0  0.2936203495022767  0.3359190602212793  0.14139129548521367  1.0000
  H   H4        1.0  0.9583933868442716  0.6645272821729052  0.35860208914939307  1.0000
  H   H5        1.0  0.34814167039584026  0.6065172359336162  0.9351281900492265  1.0000
  H   H6        1.0  0.7413543785106568  0.3933299413455914  0.5649653377504862  1.0000
  H   H7        1.0  0.651866418044044  0.3934781635824722  0.0648718210927939  1.0000
  H   H8        1.0  0.2586401725038885  0.606677592011309  0.435037220799387  1.0000
  H   H9        1.0  0.0032743316259316053  0.8745894930870791  0.9130934182683744  1.0000
  H   H10       1.0  0.12790116890581524  0.12507674949718253  0.5868097151505153  1.0000
  H   H11       1.0  0.9967338249476403  0.12539820161509851  0.0869040401062762  1.0000
  H   H12       1.0  0.8720942374670034  0.8749285740221922  0.41319257642932417  1.0000
  H   H13       1.0  0.10164924894758817  0.7440469998722963  0.9774078279224907  1.0000
  H   H14       1.0  0.35725880092515183  0.2560241773470652  0.5225883369267874  1.0000
  H   H15       1.0  0.8983588394923032  0.2559483996437919  0.022592183219529702  1.0000
  H   H16       1.0  0.6427385660600964  0.7439811462669682  0.4774139546243531  1.0000
  H   H17       1.0  0.33624716632156293  0.35475395471607396  0.7615022887536183  1.0000
  H   H18       1.0  0.9814444580052283  0.6448452837440332  0.7385182290271713  1.0000
  H   H19       1.0  0.6637491737421116  0.6452414739914759  0.2384961041452911  1.0000
  H   H20       1.0  0.018556037880820556  0.35515453516313045  0.26148231614101286  1.0000
  H   H21       1.0  0.18682282487810675  0.9348080664912788  0.7689933412099491  1.0000
  H   H22       1.0  0.25209707636773976  0.06489820784672422  0.7310418743350695  1.0000
  H   H23       1.0  0.8131796316203719  0.06519175251054322  0.23100720392953625  1.0000
  H   H24       1.0  0.747906480285444  0.9351038111674871  0.2689594772175141  1.0000
  H   H25       1.0  0.18801774150509235  0.4659164234994507  0.809050775126664  1.0000
  H   H26       1.0  0.7217843195250992  0.5337497172324462  0.6910240206349413  1.0000
  H   H27       1.0  0.8119808364049632  0.5340756409000845  0.19094991466166528  1.0000
  H   H28       1.0  0.2782105597178914  0.4662545509198852  0.30897544011541095  1.0000
  H   H29       1.0  0.7462548985721826  0.5062468440780992  0.9312464592419829  1.0000
  H   H30       1.0  0.2394355661421059  0.49358943176155634  0.5687473118392247  1.0000
  H   H31       1.0  0.25374535761689304  0.49374857489896595  0.0687524730712923  1.0000
  H   H32       1.0  0.7605637767539194  0.5064159217065767  0.4312533612679274  1.0000
  H   H33       1.0  0.5259831915468212  0.41049729646837113  0.8652587794085134  1.0000
  H   H34       1.0  0.11504617709143626  0.5892848538565048  0.6347911971448639  1.0000
  H   H35       1.0  0.4740159593881118  0.5894959125765098  0.13473988596342676  1.0000
  H   H36       1.0  0.8849537184316604  0.41072160457772366  0.3652096094329593  1.0000
  C   C1        1.0  0.41425923290597694  0.7596931902908042  0.8209254931127815  1.0000
  C   C2        1.0  0.6537794612490019  0.2398619870867834  0.6790326351459937  1.0000
  C   C3        1.0  0.5857413260143077  0.24029891388263291  0.17907303875979608  1.0000
  C   C4        1.0  0.34621541289454444  0.760142271145732  0.32096736507612167  1.0000
  C   C5        1.0  0.6197239363546531  0.7569867673579441  0.881082342392993  1.0000
  C   C6        1.0  0.8619891553164224  0.2425861829339625  0.6188689246251966  1.0000
  C   C7        1.0  0.3802811117159025  0.24300647173035375  0.11891470447756797  1.0000
  C   C8        1.0  0.13801128773429394  0.7574213705465384  0.38113255489506054  1.0000
  C   C9        1.0  0.4614018880513201  0.7245446431260377  0.9496222397501268  1.0000
  C   C10       1.0  0.7364029943736697  0.27528554784103687  0.5503529377109471  1.0000
  C   C11       1.0  0.538602841989686  0.27545188100643975  0.05037682597642859  1.0000
  C   C12       1.0  0.2635968960499755  0.7247209006733757  0.44964840833863917  1.0000
  C   C13       1.0  0.6627022727419959  0.7457190416411169  0.015276572647309231  1.0000
  C   C14       1.0  0.9167417736606396  0.25430053868238645  0.48469099629964757  1.0000
  C   C15       1.0  0.33730472574209364  0.2542741777022144  0.9847215531380867  1.0000
  C   C16       1.0  0.08325892438540468  0.745711444487654  0.5153104776602149  1.0000
  O   O1        1.0  0.46288358052722606  0.8706031018336021  0.7911809429240079  1.0000
  O   O2        1.0  0.5916728055327738  0.12903148999951952  0.7088194949213786  1.0000
  O   O3        1.0  0.5371233396242802  0.12939780248402144  0.20882081457228446  1.0000
  O   O4        1.0  0.4083273398861851  0.8709793882044253  0.29118184556782  1.0000
  O   O5        1.0  0.2055843847395381  0.6503321837975734  0.8048607678520979  1.0000
  O   O6        1.0  0.5544414899112553  0.34921865192852425  0.6950712411646405  1.0000
  O   O7        1.0  0.7944198079727441  0.34966326512824963  0.1951365459884968  1.0000
  O   O8        1.0  0.4455396956414433  0.6507856750800373  0.3049249829560096  1.0000
  O   O9        1.0  0.8321718175659213  0.8918759886217063  0.8976075159400309  1.0000
  O   O10       1.0  0.9395094239908418  0.10772161054848792  0.6023024057319117  1.0000
  O   O11       1.0  0.16783547854991812  0.1081139059981879  0.10239074887642369  1.0000
  O   O12       1.0  0.060491008860978634  0.892285923092395  0.397700152731872  1.0000
  O   O13       1.0  0.27580783309034035  0.812631166103195  0.9678077805770111  1.0000
  O   O14       1.0  0.46262398597774285  0.18731086673120254  0.5321124540989002  1.0000
  O   O15       1.0  0.7242002553495439  0.18736423341289316  0.0321922305650162  1.0000
  O   O16       1.0  0.5373753467193796  0.8126944668972985  0.4678892979517854  1.0000
  O   O17       1.0  0.8207677626930946  0.6591612190309988  0.005724774468589514  1.0000
  O   O18       1.0  0.16127824654089562  0.3409678535995156  0.4942563548576543  1.0000
  O   O19       1.0  0.17923725988021752  0.34083197045823976  0.9942749697607948  1.0000
  O   O20       1.0  0.8387216336838537  0.659038575075279  0.5057460701354657  1.0000
  O   O21       1.0  0.6726104115147892  0.8439246884906597  0.0735536119208362  1.0000
  O   O22       1.0  0.8285603595632979  0.15611905358304062  0.42640117656029014  1.0000
  O   O23       1.0  0.3273954613173586  0.1560662812412374  0.9264464048102709  1.0000
  O   O24       1.0  0.1714405934780602  0.8438973592765252  0.5736002918391847  1.0000
  O   O25       1.0  0.0951119787955224  0.9998612283813703  0.750000846865859  1.0000
  O   O26       1.0  0.9048918856883079  0.0001374857490218979  0.24999956477426372  1.0000
  O   O27       1.0  0.2221557877716905  0.3679389638155258  0.8055697291528927  1.0000
  O   O28       1.0  0.8539236995405304  0.6317349074743606  0.6945188170132892  1.0000
  O   O29       1.0  0.777843660794993  0.6320509205059113  0.19442907525011316  1.0000
  O   O30       1.0  0.14607453810134532  0.3682682360615743  0.3054815891525279  1.0000
  O   O31       1.0  0.7107288592085155  0.4222006807829929  0.8869763535090056  1.0000
  O   O32       1.0  0.28805481540893413  0.5776171159025055  0.6130327593582194  1.0000
  O   O33       1.0  0.28926888884051755  0.5777936430531271  0.11302190589054108  1.0000
  O   O34       1.0  0.7119436925266032  0.4223904870823959  0.38696602283191334  1.0000
