data_image0
_chemical_formula_structural       Mn2H12C24N4O8
_chemical_formula_sum              "Mn2 H12 C24 N4 O8"
_cell_length_a       6.506406640000654
_cell_length_b       8.925121099024693
_cell_length_c       8.789336209013644
_cell_angle_alpha    90.00017420575035
_cell_angle_beta     89.99999012351273
_cell_angle_gamma    90.00012402824004

_space_group_name_H-M_alt    "P 1"
_space_group_IT_number       1

loop_
  _space_group_symop_operation_xyz
  'x, y, z'

loop_
  _atom_site_type_symbol
  _atom_site_label
  _atom_site_symmetry_multiplicity
  _atom_site_fract_x
  _atom_site_fract_y
  _atom_site_fract_z
  _atom_site_occupancy
  Mn  Mn1       1.0  0.9999907377670567  0.49999302454335043  0.45312506254049373  1.0000
  Mn  Mn2       1.0  0.4999960128275164  4.3543606409e-06  0.5468696497377721  1.0000
  H   H1        1.0  0.36620006384303144  0.4405490567347314  0.2097082433205273  1.0000
  H   H2        1.0  0.6337889388155414  0.559446091485654  0.2097062065601634  1.0000
  H   H3        1.0  0.13377157934215228  0.9405487904722064  0.7902874140132141  1.0000
  H   H4        1.0  0.8662073459099487  0.0594505144723527  0.7902898082706713  1.0000
  H   H5        1.0  0.29662095670295935  0.9843856692249069  0.0560523230937306  1.0000
  H   H6        1.0  0.7033821049554447  0.015613453700986199  0.0560624700561476  1.0000
  H   H7        1.0  0.20340932086757144  0.4843916605776145  0.9439411803050533  1.0000
  H   H8        1.0  0.7966170232812432  0.5156137535618729  0.9439311477712166  1.0000
  H   H9        1.0  0.4974963528377714  0.2239388763716975  0.0532695444838112  1.0000
  H   H10       1.0  0.5024928804129517  0.7760635986635124  0.0532771376245762  1.0000
  H   H11       1.0  0.0025033538694146005  0.7239289947683148  0.9467152726715184  1.0000
  H   H12       1.0  0.9975045428070358  0.2760685854978106  0.9467092380382739  1.0000
  C   C1        1.0  0.2819612834241312  0.3352339298967096  0.2012796787709021  1.0000
  C   C2        1.0  0.718038490290226  0.6647623109382367  0.2012734295435479  1.0000
  C   C3        1.0  0.21803593431278764  0.8352269994680768  0.7987361659658844  1.0000
  C   C4        1.0  0.7819537371071021  0.16477009249291547  0.7987388056437154  1.0000
  C   C5        1.0  0.354443432362025  0.21412956427894164  0.1166553929612135  1.0000
  C   C6        1.0  0.6455610769214174  0.7858697586253245  0.11666195458806068  1.0000
  C   C7        1.0  0.1455439272435797  0.7141340910905714  0.8833441876675749  1.0000
  C   C8        1.0  0.8544594520008033  0.28586440048755435  0.8833369634174986  1.0000
  C   C9        1.0  0.24200928749225878  0.08199016289022153  0.11820364607521582  1.0000
  C   C10       1.0  0.7579906086495142  0.9180024425288879  0.11821291161453472  1.0000
  C   C11       1.0  0.25801272738544156  0.5819947254387332  0.8818103588938087  1.0000
  C   C12       1.0  0.7420060236037996  0.4180104836790619  0.8818034388394551  1.0000
  C   C13       1.0  0.0587436782303357  0.07165427314543392  0.2016785993211343  1.0000
  C   C14       1.0  0.9412637796094004  0.9283352464146124  0.2016754795978457  1.0000
  C   C15       1.0  0.44127059753394343  0.571637338538018  0.7983365147049072  1.0000
  C   C16       1.0  0.5587405917779479  0.42837879946967666  0.7983397618099985  1.0000
  C   C17       1.0  0.9924867094688137  0.20172227132374596  0.2778827444146685  1.0000
  C   C18       1.0  0.007509877413227199  0.7982630179688499  0.27787988596583807  1.0000
  C   C19       1.0  0.5075349142239033  0.7017452633391844  0.7221068384161172  1.0000
  C   C20       1.0  0.49247331352640344  0.29826165965700824  0.7221119636939122  1.0000
  C   C21       1.0  0.7940822321747588  0.21450988384311392  0.3669576933583372  1.0000
  C   C22       1.0  0.2059096126011539  0.7854846628509125  0.3669549090869424  1.0000
  C   C23       1.0  0.705910256752567  0.7145416174261572  0.6330455778347854  1.0000
  C   C24       1.0  0.29408273280945707  0.28546837297277966  0.6330505580383415  1.0000
  N   N1        1.0  0.1048926593887884  0.32909068972778494  0.2776346479376386  1.0000
  N   N2        1.0  0.8951008539936679  0.6709046826388205  0.2776296513083594  1.0000
  N   N3        1.0  0.3951029891372073  0.8290880533202626  0.7223652513813904  1.0000
  N   N4        1.0  0.6048960165364434  0.17091214792490217  0.7223678102572677  1.0000
  O   O1        1.0  0.6827224486648974  0.09848904649192751  0.37762156078903797  1.0000
  O   O2        1.0  0.31727399122630123  0.9015055354082693  0.37762826161826984  1.0000
  O   O3        1.0  0.8172894106956504  0.5984815701486852  0.622374562265385  1.0000
  O   O4        1.0  0.18271896408550958  0.4015373485021386  0.6223786649519383  1.0000
  O   O5        1.0  0.7509865431504749  0.3423805006037171  0.4219221914414533  1.0000
  O   O6        1.0  0.24901905311372727  0.6576075048735819  0.4219202142311076  1.0000
  O   O7        1.0  0.7490265981370285  0.8424075867020876  0.578066643586304  1.0000
  O   O8        1.0  0.2509756941555707  0.1576078244359778  0.5780701077633665  1.0000
