data_image0
_chemical_formula_structural       Zn8H72C108O44
_chemical_formula_sum              "Zn8 H72 C108 O44"
_cell_length_a       7.3709793052819315
_cell_length_b       22.128835547980515
_cell_length_c       28.276563488106234
_cell_angle_alpha    89.9993025933777
_cell_angle_beta     90.00084095382367
_cell_angle_gamma    99.36554494085021

_space_group_name_H-M_alt    "P 1"
_space_group_IT_number       1

loop_
  _space_group_symop_operation_xyz
  'x, y, z'

loop_
  _atom_site_type_symbol
  _atom_site_label
  _atom_site_symmetry_multiplicity
  _atom_site_fract_x
  _atom_site_fract_y
  _atom_site_fract_z
  _atom_site_occupancy
  Zn  Zn1       1.0  0.8693090902171433  0.8245893352377963  0.9593006420250487  1.0000
  Zn  Zn2       1.0  0.1307070139731508  0.6754040346145018  0.4593010657535075  1.0000
  Zn  Zn3       1.0  0.1306831407181122  0.17541213899875172  0.040702023375949595  1.0000
  Zn  Zn4       1.0  0.869296560265866  0.32459286372570517  0.540698770492952  1.0000
  Zn  Zn5       1.0  0.4529751277384194  0.7573655062264776  0.9532223425790389  1.0000
  Zn  Zn6       1.0  0.5470467454558373  0.7426320645496599  0.4532244228065352  1.0000
  Zn  Zn7       1.0  0.5470139443981665  0.24263505117252043  0.0467810301198313  1.0000
  Zn  Zn8       1.0  0.4529599659832186  0.2573684982236202  0.5467771816772212  1.0000
  H   H1        1.0  0.12795121760191097  0.6839449526154336  0.8376631217051198  1.0000
  H   H2        1.0  0.8720664680356478  0.8160518054465415  0.33766397444904317  1.0000
  H   H3        1.0  0.8720515807101137  0.31606430977402766  0.162336007181203  1.0000
  H   H4        1.0  0.12793712780199934  0.183942345298142  0.6623333862622545  1.0000
  H   H5        1.0  0.5551217369977479  0.6430146666637383  0.7999424357771758  1.0000
  H   H6        1.0  0.44489383669010596  0.8569821153193256  0.29994692194394895  1.0000
  H   H7        1.0  0.444877034034782  0.3569890992609216  0.2000574004272622  1.0000
  H   H8        1.0  0.555115875985308  0.14301066345576874  0.7000536216334723  1.0000
  H   H9        1.0  0.4731479193740497  0.691089990896394  0.8731167827479565  1.0000
  H   H10       1.0  0.5268670266213036  0.8089053969110865  0.37312168850873917  1.0000
  H   H11       1.0  0.52684137521819  0.308911024526914  0.12688340710128188  1.0000
  H   H12       1.0  0.4731406399234075  0.191088755048618  0.6268792087079689  1.0000
  H   H13       1.0  0.1519767175066278  0.6940466088499375  0.7564782185984311  1.0000
  H   H14       1.0  0.848023957024978  0.8059580515879929  0.2564811979012021  1.0000
  H   H15       1.0  0.8480188296744656  0.30596448308926216  0.24351949566622716  1.0000
  H   H16       1.0  0.1519717201465127  0.19403655467640854  0.7435175773918274  1.0000
  H   H17       1.0  0.9814244955624927  0.570953922007476  0.6411909237610303  1.0000
  H   H18       1.0  0.01858172567156661  0.9290503831355748  0.14119238321066518  1.0000
  H   H19       1.0  0.018579458791919023  0.4290521351679146  0.35880997339165077  1.0000
  H   H20       1.0  0.9814120846718807  0.07095154951748839  0.8588102821911646  1.0000
  H   H21       1.0  0.6436022639950565  0.567316982359678  0.7651820243297324  1.0000
  H   H22       1.0  0.3564217774044139  0.9326761254530922  0.2651822653982805  1.0000
  H   H23       1.0  0.35639715299178926  0.4326909051859999  0.23481816550599888  1.0000
  H   H24       1.0  0.6435897804826853  0.06731207453339039  0.7348161563059816  1.0000
  H   H25       1.0  0.4396718293616217  0.6713514532708871  0.730718321105975  1.0000
  H   H26       1.0  0.5603373836226028  0.8286402591634852  0.23071609312605548  1.0000
  H   H27       1.0  0.5603319457344113  0.3286486506891463  0.2692808078260143  1.0000
  H   H28       1.0  0.4396657672151818  0.1713529755551733  0.7692840967868761  1.0000
  H   H29       1.0  0.724181482551309  0.7020860976488945  0.6842562121606477  1.0000
  H   H30       1.0  0.27582933778437985  0.7978947612074376  0.1842542511233205  1.0000
  H   H31       1.0  0.27582331260571646  0.297899352670342  0.3157411485945403  1.0000
  H   H32       1.0  0.7241672513132116  0.20209892942990848  0.8157494752725184  1.0000
  H   H33       1.0  0.12273554351883575  0.6529137354667326  0.6019733749887735  1.0000
  H   H34       1.0  0.8772700484101962  0.8470938187814382  0.10197359718952008  1.0000
  H   H35       1.0  0.8772674989980443  0.3470932373131176  0.39802610755873497  1.0000
  H   H36       1.0  0.12271969121734828  0.15290811265886353  0.8980251780571321  1.0000
  H   H37       1.0  0.834941281939443  0.4664939399509007  0.643030829246598  1.0000
  H   H38       1.0  0.1650659226637927  0.0335111359063305  0.143035216965913  1.0000
  H   H39       1.0  0.16507145949109503  0.5335162413500993  0.3569658241059983  1.0000
  H   H40       1.0  0.8349290436777536  0.9664875915439523  0.8569674484534529  1.0000
  H   H41       1.0  0.18070085408166384  0.48943302541242406  0.6665878476427521  1.0000
  H   H42       1.0  0.8193010335046366  0.0105639626177805  0.16658470079441653  1.0000
  H   H43       1.0  0.8193004297863594  0.5105675357310417  0.3334105739827535  1.0000
  H   H44       1.0  0.18069506708580013  0.9894343072636572  0.8334144281316609  1.0000
  H   H45       1.0  0.42694765581877187  0.5603242858930314  0.706247678615064  1.0000
  H   H46       1.0  0.5730630234323255  0.9396704876420895  0.2062440838350099  1.0000
  H   H47       1.0  0.5730488899132523  0.4396748999782858  0.293754279505599  1.0000
  H   H48       1.0  0.42693919392500845  0.060326410287835606  0.793755398759096  1.0000
  H   H49       1.0  0.711604076318828  0.7113947498543638  0.5593268889684281  1.0000
  H   H50       1.0  0.28841196523702445  0.7885945777509987  0.0593215285223607  1.0000
  H   H51       1.0  0.28840565799950457  0.2885952813139169  0.4406729473226534  1.0000
  H   H52       1.0  0.7115753266077929  0.21140231561842168  0.9406814905408609  1.0000
  H   H53       1.0  0.2952081498086656  0.3670248216413157  0.5957324461666715  1.0000
  H   H54       1.0  0.7047966854977545  0.13298085854261635  0.0957358247030342  1.0000
  H   H55       1.0  0.7048077937772419  0.6329807812655301  0.40426491451346896  1.0000
  H   H56       1.0  0.29520368674532443  0.8670206181510806  0.9042696699116277  1.0000
  H   H57       1.0  0.35430326477886337  0.6688544178599469  0.0234929085445543  1.0000
  H   H58       1.0  0.6457074922616853  0.831147730772656  0.5234929816751617  1.0000
  H   H59       1.0  0.6456873867127725  0.33114659796911633  0.9765083422565581  1.0000
  H   H60       1.0  0.3542973739125372  0.16885741080279357  0.4765086227831716  1.0000
  H   H61       1.0  0.28850706009099275  0.6434595776398453  0.9740200080860432  1.0000
  H   H62       1.0  0.711500685003138  0.8565400125044107  0.47401809139159207  1.0000
  H   H63       1.0  0.7114856592362742  0.356537317381985  0.0259826573377921  1.0000
  H   H64       1.0  0.28849179002183684  0.14345917215188558  0.5259803302236534  1.0000
  H   H65       1.0  0.9723850830779168  0.9397471586026284  0.9718269167465222  1.0000
  H   H66       1.0  0.027609026811447345  0.5602469601992438  0.47182734025837186  1.0000
  H   H67       1.0  0.027608059624007808  0.0602534000475359  0.0281743340615392  1.0000
  H   H68       1.0  0.9723888757048298  0.43975222610720965  0.5281710813672476  1.0000
  H   H69       1.0  0.12695989430706328  0.9159372621865456  0.943430874568655  1.0000
  H   H70       1.0  0.8730501665288555  0.584062262039282  0.443426169415403  1.0000
  H   H71       1.0  0.8730431916373859  0.08406421534351688  0.05657285180237889  1.0000
  H   H72       1.0  0.12695518791336008  0.4159383003530903  0.556570483969068  1.0000
  C   C1        1.0  0.09227962762792442  0.7391350655274992  0.9185647705273468  1.0000
  C   C2        1.0  0.9077369056238993  0.7608611152160593  0.41856734843728566  1.0000
  C   C3        1.0  0.9077089777507293  0.2608673234816478  0.08143754121257979  1.0000
  C   C4        1.0  0.09226711370356361  0.2391366991275845  0.58143319510517  1.0000
  C   C5        1.0  0.9398763446984971  0.7142069301522298  0.8865442315492302  1.0000
  C   C6        1.0  0.06013451391850579  0.7857896584835088  0.3865450980151123  1.0000
  C   C7        1.0  0.06011088211126041  0.2857982060647614  0.1134566655758746  1.0000
  C   C8        1.0  0.9398688377320069  0.2142067818662737  0.613452616334527  1.0000
  C   C9        1.0  0.9833304548481081  0.6857120432107563  0.8444636654873962  1.0000
  C   C10       1.0  0.016681698940608766  0.8142837102888193  0.3444669224777002  1.0000
  C   C11       1.0  0.016663312085498216  0.3142953846875685  0.1555354633904358  1.0000
  C   C12       1.0  0.9833273244060691  0.1857104421015023  0.6555311455434847  1.0000
  C   C13       1.0  0.8491928503554648  0.6602225719727314  0.8121806121993912  1.0000
  C   C14       1.0  0.15082289126372941  0.8397731376464891  0.31218378473476344  1.0000
  C   C15       1.0  0.15080454211702948  0.3397839411575135  0.187818163039978  1.0000
  C   C16       1.0  0.8491807262611317  0.1602182654800828  0.6878146369390025  1.0000
  C   C17       1.0  0.6644900854582756  0.6622742199239366  0.8241774638186854  1.0000
  C   C18       1.0  0.33552263156902024  0.8377222511823134  0.32418100863478116  1.0000
  C   C19       1.0  0.335507996289806  0.3377309196046454  0.17582166507833819  1.0000
  C   C20       1.0  0.6644843672987336  0.16227052678352286  0.6758170593891109  1.0000
  C   C21       1.0  0.6172237594708605  0.6895993001131941  0.8653533920891048  1.0000
  C   C22       1.0  0.38278628194606057  0.8103952696410701  0.36535808627976957  1.0000
  C   C23       1.0  0.3827707184166798  0.310404006567623  0.1346467977590819  1.0000
  C   C24       1.0  0.6172152894835321  0.189597506661066  0.6346421036323378  1.0000
  C   C25       1.0  0.7527574484883104  0.7173143107679607  0.8972647515028029  1.0000
  C   C26       1.0  0.24726480218675556  0.7826821441784658  0.397268131515716  1.0000
  C   C27       1.0  0.24723476072431078  0.282689911095737  0.10273543833667277  1.0000
  C   C28       1.0  0.7527441995169966  0.21731475581866277  0.6027306437918156  1.0000
  C   C29       1.0  0.8936308915513677  0.6334988465669652  0.7665610663627476  1.0000
  C   C30       1.0  0.10638614708187791  0.8665020263842248  0.2665627524221534  1.0000
  C   C31       1.0  0.10636897046191508  0.366509956997966  0.2334373552206301  1.0000
  C   C32       1.0  0.8936269468832804  0.13349212724370568  0.7334353156068117  1.0000
  C   C33       1.0  0.0558415298029615  0.6559702932877299  0.7417533016353843  1.0000
  C   C34       1.0  0.9441613650341196  0.8440322665137074  0.24175486984366046  1.0000
  C   C35       1.0  0.9441537948693367  0.3440403406407028  0.258245473580331  1.0000
  C   C36       1.0  0.055838382746990996  0.1559623409905626  0.7582435518073822  1.0000
  C   C37       1.0  0.09031454206887439  0.6332527662077252  0.6968272247756815  1.0000
  C   C38       1.0  0.9096897279047127  0.8667494528264186  0.19682985850278806  1.0000
  C   C39       1.0  0.9096848749002573  0.36675512134247157  0.3031722577605223  1.0000
  C   C40       1.0  0.09030681775644919  0.13324973306297486  0.8031692704197653  1.0000
  C   C41       1.0  0.9581872700296186  0.5876237554711919  0.6766045796739348  1.0000
  C   C42       1.0  0.041823438906724957  0.912380098021188  0.1766066410654474  1.0000
  C   C43       1.0  0.0418171077083116  0.41238596533027305  0.3233952565127467  1.0000
  C   C44       1.0  0.9581726617191391  0.0876181718512115  0.8233939024596921  1.0000
  C   C45       1.0  0.7948773647541285  0.564510446431967  0.7004000559504818  1.0000
  C   C46       1.0  0.20513411272798265  0.9354894394138851  0.2004018135322241  1.0000
  C   C47       1.0  0.20512545523624937  0.4354960683416421  0.29959978024855616  1.0000
  C   C48       1.0  0.7948665252565873  0.06450700009048659  0.7995990836601052  1.0000
  C   C49       1.0  0.7667430799414914  0.5869606319552003  0.7456698937789241  1.0000
  C   C50       1.0  0.23327384565675383  0.9130368447150655  0.24567091272125907  1.0000
  C   C51       1.0  0.23325611448341727  0.4130467975932746  0.2543292351092745  1.0000
  C   C52       1.0  0.7667324856049049  0.0869545592388405  0.7543271553079266  1.0000
  C   C53       1.0  0.25861725639146005  0.6573943063981457  0.6699157450595193  1.0000
  C   C54       1.0  0.7413856871289111  0.8426055088824709  0.1699158441681448  1.0000
  C   C55       1.0  0.7413790234130672  0.34260991670994656  0.330083383838442  1.0000
  C   C56       1.0  0.25860656544041655  0.1573932177495223  0.8300857602967466  1.0000
  C   C57       1.0  0.430820426003052  0.6741616529773322  0.6922617081223307  1.0000
  C   C58       1.0  0.5691900194562293  0.8258314676339534  0.1922606018109008  1.0000
  C   C59       1.0  0.5691862853651417  0.3258389098140171  0.3077370671633162  1.0000
  C   C60       1.0  0.4308074597296779  0.1741640550328682  0.8077410026793002  1.0000
  C   C61       1.0  0.5912228419991408  0.6917239014206229  0.666654858739534  1.0000
  C   C62       1.0  0.40879134646545595  0.8082631367924615  0.16665224607724127  1.0000
  C   C63       1.0  0.40878484617077493  0.3082675029367791  0.33334462389129976  1.0000
  C   C64       1.0  0.5912036415455901  0.1917328430442282  0.8333507730050727  1.0000
  C   C65       1.0  0.5854394811490379  0.694681186688612  0.6170848070894407  1.0000
  C   C66       1.0  0.41457491635554083  0.8053092333008679  0.1170829521086603  1.0000
  C   C67       1.0  0.4145729452188789  0.30531159292512194  0.3829136145945853  1.0000
  C   C68       1.0  0.5854150891906399  0.19468766090492554  0.8829182987109263  1.0000
  C   C69       1.0  0.4125729684177201  0.680901678445238  0.5938748620982395  1.0000
  C   C70       1.0  0.5874386220504134  0.8190968225131028  0.0938724754015965  1.0000
  C   C71       1.0  0.5874355665812344  0.31909705314848935  0.4061249741489448  1.0000
  C   C72       1.0  0.41254931567785746  0.18090419249540446  0.9061280680948087  1.0000
  C   C73       1.0  0.25334327671958334  0.6621761620448011  0.620782089467447  1.0000
  C   C74       1.0  0.7466614770738785  0.8378274878619293  0.12078154716059687  1.0000
  C   C75       1.0  0.7466575187918705  0.337828978304337  0.379217746734291  1.0000
  C   C76       1.0  0.2533291744089041  0.1621735279693937  0.8792193499907552  1.0000
  C   C77       1.0  0.3944966197246557  0.6878292108485764  0.5422327339924351  1.0000
  C   C78       1.0  0.6055228155051752  0.8121662895978687  0.0422322509502067  1.0000
  C   C79       1.0  0.6055128487104682  0.3121658575451817  0.45776604132475274  1.0000
  C   C80       1.0  0.3944606065693108  0.18783380815603576  0.9577697071410043  1.0000
  C   C81       1.0  0.6508348792088299  0.5195620204161173  0.6776291944693681  1.0000
  C   C82       1.0  0.34917094195751014  0.9804372391190409  0.1776314266642132  1.0000
  C   C83       1.0  0.349163870109919  0.48044449313344  0.322368519823307  1.0000
  C   C84       1.0  0.6508333215659547  0.019558285617243595  0.8223691168896605  1.0000
  C   C85       1.0  0.6928584072879006  0.4729185999511643  0.6484010521712805  1.0000
  C   C86       1.0  0.30714773109703947  0.027083659271042396  0.14840498373138186  1.0000
  C   C87       1.0  0.3071482390363798  0.5270902056900153  0.3515952475264825  1.0000
  C   C88       1.0  0.6928506382303252  0.9729136954116908  0.8515966207517633  1.0000
  C   C89       1.0  0.5546776185696557  0.4316157524997805  0.6260835634631974  1.0000
  C   C90       1.0  0.44532535574212057  0.06838816505597119  0.1260872747792021  1.0000
  C   C91       1.0  0.4453358121010424  0.5683930552086025  0.3739120289479984  1.0000
  C   C92       1.0  0.5546725468804466  0.9316110212233678  0.8739153906435817  1.0000
  C   C93       1.0  0.36813595816724387  0.4382233443305452  0.6323608121503526  1.0000
  C   C94       1.0  0.6318650835366171  0.0617786606024211  0.1323631781155328  1.0000
  C   C95       1.0  0.6318756921851048  0.5617817993550388  0.36763336567589994  1.0000
  C   C96       1.0  0.3681316846953422  0.9382209832819084  0.8676373654043132  1.0000
  C   C97       1.0  0.32434937768556443  0.4847256422852624  0.6615935491991463  1.0000
  C   C98       1.0  0.6756590224945711  0.0152741592133978  0.1615929908548566  1.0000
  C   C99       1.0  0.6756606933205943  0.5152790429679895  0.338403104174624  1.0000
  C   C100      1.0  0.3243413712585692  0.9847245699073708  0.8384064917269995  1.0000
  C   C101      1.0  0.46365209396294194  0.5239900973199525  0.6840712531424132  1.0000
  C   C102      1.0  0.5363563184867528  0.976008164745934  0.1840699997002702  1.0000
  C   C103      1.0  0.5363471221225993  0.47601458461718954  0.3159278757589661  1.0000
  C   C104      1.0  0.4636440969270268  0.023987816763494197  0.8159294828947663  1.0000
  C   C105      1.0  0.6032745014799162  0.3813039719721587  0.5966973698301886  1.0000
  C   C106      1.0  0.39671999388414747  0.11869986098614757  0.09669970684068828  1.0000
  C   C107      1.0  0.3967357921324676  0.6187011712669985  0.4033021127399365  1.0000
  C   C108      1.0  0.6032731488975005  0.8813006976436812  0.9033047268152573  1.0000
  O   O1        1.0  0.7051565495946192  0.7444172017371853  0.9366243350087514  1.0000
  O   O2        1.0  0.2948606658107523  0.7555782902471507  0.4366288635417916  1.0000
  O   O3        1.0  0.2948331900772061  0.2555847296918187  0.0633762084867158  1.0000
  O   O4        1.0  0.7051431309990617  0.2444190660879925  0.5633723873019605  1.0000
  O   O5        1.0  0.08325194577508188  0.7822216482810089  0.9483591861945796  1.0000
  O   O6        1.0  0.9167638329006705  0.71777231936408  0.4483607960913218  1.0000
  O   O7        1.0  0.9167321656635748  0.2177770758486445  0.05164666205192249  1.0000
  O   O8        1.0  0.0832431226900994  0.28222595381313187  0.5516390401550311  1.0000
  O   O9        1.0  0.2413550066871722  0.7160134110930727  0.915469316093791  1.0000
  O   O10       1.0  0.7586645303213685  0.783983726033945  0.41547181010584927  1.0000
  O   O11       1.0  0.7586369800343674  0.28399035275534595  0.08453264199626889  1.0000
  O   O12       1.0  0.2413401566033357  0.2160154623238952  0.5845283797815525  1.0000
  O   O13       1.0  0.7456127219104616  0.710654771382721  0.5935068535602426  1.0000
  O   O14       1.0  0.2544007603542155  0.7893309126454537  0.0935038315463714  1.0000
  O   O15       1.0  0.25439523207180764  0.2893315957672868  0.40649086084636815  1.0000
  O   O16       1.0  0.745586754034825  0.2106664387256814  0.906499541164848  1.0000
  O   O17       1.0  0.5426855772791725  0.7100165505739965  0.5190833513502682  1.0000
  O   O18       1.0  0.4573261364782439  0.7899797015992219  0.019081099189705197  1.0000
  O   O19       1.0  0.4573222901048339  0.2899808070100605  0.4809161312524424  1.0000
  O   O20       1.0  0.5426579748452625  0.21001902255979832  0.9809201516098653  1.0000
  O   O21       1.0  0.2371443189118523  0.6726686757973894  0.5234590079066024  1.0000
  O   O22       1.0  0.7628692585123247  0.8273197360283574  0.023460396228585992  1.0000
  O   O23       1.0  0.7628640584805098  0.32732135497191445  0.4765387064832964  1.0000
  O   O24       1.0  0.23711347428657345  0.17268173532720246  0.9765412082049777  1.0000
  O   O25       1.0  0.7715147388948365  0.3799795393005637  0.5877811263495119  1.0000
  O   O26       1.0  0.2284781971787524  0.12002211755373081  0.087784221935344  1.0000
  O   O27       1.0  0.22850078131640564  0.6200223999779481  0.41221764894639523  1.0000
  O   O28       1.0  0.7715135887212056  0.8799784406658162  0.9122198580682408  1.0000
  O   O29       1.0  0.46853592441249947  0.34128022618548925  0.5814404991229762  1.0000
  O   O30       1.0  0.5314532693841372  0.15872563206438173  0.08144402955183948  1.0000
  O   O31       1.0  0.5314861577338093  0.6587212571246183  0.41856251998481747  1.0000
  O   O32       1.0  0.46853260071222974  0.8412795036993966  0.9185632332664182  1.0000
  O   O33       1.0  0.2299068103376385  0.3999007288216276  0.610500931893668  1.0000
  O   O34       1.0  0.7700908676986629  0.10010247058944796  0.11050381360218609  1.0000
  O   O35       1.0  0.7701037056772505  0.6001048724553968  0.38949324592822165  1.0000
  O   O36       1.0  0.2299009181658676  0.8998980876391441  0.8894988518023437  1.0000
  O   O37       1.0  0.3972091565428784  0.6618983485061634  0.9916796287188987  1.0000
  O   O38       1.0  0.6028012967555155  0.8380991848159949  0.4916774726906254  1.0000
  O   O39       1.0  0.6027826292950778  0.3381022097292074  0.0083219757363366  1.0000
  O   O40       1.0  0.3971990970064851  0.16189954430251416  0.5083223635409979  1.0000
  O   O41       1.0  0.058549333944974184  0.9107887549202331  0.9739263411709088  1.0000
  O   O42       1.0  0.9414511986361588  0.5892071707507396  0.4739225556867978  1.0000
  O   O43       1.0  0.9414451656829285  0.08921180412890808  0.0260770315383354  1.0000
  O   O44       1.0  0.058548060699806066  0.41079201598179776  0.5260737440428329  1.0000
