data_image0
_chemical_formula_structural       Zn4H42C88N16O28
_chemical_formula_sum              "Zn4 H42 C88 N16 O28"
_cell_length_a       16.457881236774515
_cell_length_b       17.657291321968227
_cell_length_c       30.298404686543154
_cell_angle_alpha    90.68433920829376
_cell_angle_beta     86.1876657916056
_cell_angle_gamma    92.11291563556343

_space_group_name_H-M_alt    "P 1"
_space_group_IT_number       1

loop_
  _space_group_symop_operation_xyz
  'x, y, z'

loop_
  _atom_site_type_symbol
  _atom_site_label
  _atom_site_symmetry_multiplicity
  _atom_site_fract_x
  _atom_site_fract_y
  _atom_site_fract_z
  _atom_site_occupancy
  Zn  Zn1       1.0  0.5829298983757171  0.5094563512212176  0.49896420113844886  1.0000
  Zn  Zn2       1.0  0.4148111099681202  0.4938170424033075  0.5031534933489679  1.0000
  Zn  Zn3       1.0  0.9054889689400272  0.4990610491904945  0.02332074161528649  1.0000
  Zn  Zn4       1.0  0.09633344554875835  0.5020751142423094  0.977245934071092  1.0000
  H   H1        1.0  0.2972948729433185  0.5822125380536889  0.46687134611362757  1.0000
  H   H2        1.0  0.1473116314800649  0.5878814689093373  0.45939904118755226  1.0000
  H   H3        1.0  0.11824915907379115  0.38075212723747853  0.5355169155443702  1.0000
  H   H4        1.0  0.8821712059274065  0.5651035605894278  0.43555485690373513  1.0000
  H   H5        1.0  0.6958984707428826  0.4394326266837041  0.5482552838750293  1.0000
  H   H6        1.0  0.8455044207162672  0.41760884488968486  0.54929098477573  1.0000
  H   H7        1.0  0.6122694229819103  0.7353739392462657  0.5049882088241799  1.0000
  H   H8        1.0  0.6206621443537017  0.8776862466762267  0.5010109332285493  1.0000
  H   H9        1.0  0.3588688718296424  0.8782646287155415  0.4959096561103563  1.0000
  H   H10       1.0  0.638800746127444  0.1238144359781543  0.5007062310682924  1.0000
  H   H11       1.0  0.382590116571663  0.26360223826328877  0.4953513636904176  1.0000
  H   H12       1.0  0.3776416280211948  0.1218215109593217  0.49186778786970087  1.0000
  H   H13       1.0  0.6403442118570482  0.5045389864317328  0.3593506048532474  1.0000
  H   H14       1.0  0.648787885709133  0.4976478662830034  0.2765753240317394  1.0000
  H   H15       1.0  0.7407210481476767  0.4601825907851805  0.021698633420967887  1.0000
  H   H16       1.0  0.6101064220312652  0.45556464932916907  0.06992045031371667  1.0000
  H   H17       1.0  0.1713788737061321  0.4996789101247357  0.15731706214008764  1.0000
  H   H18       1.0  0.30003819821883576  0.4936759193357716  0.19729038786793746  1.0000
  H   H19       1.0  0.31152124373524975  0.4852572409567981  0.03327225671385749  1.0000
  H   H20       1.0  0.439055698303342  0.4808219167755396  0.07244959470794747  1.0000
  H   H21       1.0  0.8774684664918695  0.5108698829660411  0.12865475352129607  1.0000
  H   H22       1.0  0.752364162152773  0.5067796454441263  0.18137674096587372  1.0000
  H   H23       1.0  0.37944041460554695  0.4819800665736124  0.3614981946603918  1.0000
  H   H24       1.0  0.38758218307538084  0.47876482008063453  0.2783949646878411  1.0000
  H   H25       1.0  0.36420476872012847  0.5094727494423451  0.6411377838378837  1.0000
  H   H26       1.0  0.3550335024497784  0.5057571796424866  0.7243190231562334  1.0000
  H   H27       1.0  0.2630727525584433  0.5151569280733739  0.9794886596703231  1.0000
  H   H28       1.0  0.39400315150836457  0.5114807809339794  0.9313819151929362  1.0000
  H   H29       1.0  0.8299197535611214  0.4765267709605467  0.8452980793473441  1.0000
  H   H30       1.0  0.7014874634935708  0.47686360324581056  0.8046606408209268  1.0000
  H   H31       1.0  0.6913439882874999  0.5206511298296661  0.9671100647419234  1.0000
  H   H32       1.0  0.5631894308523258  0.5174188931663509  0.9274442324095628  1.0000
  H   H33       1.0  0.1239058728433733  0.5004955073304769  0.8708831244519356  1.0000
  H   H34       1.0  0.24900777768312574  0.4974685511702504  0.8183263356321998  1.0000
  H   H35       1.0  0.622504814443282  0.48341693330857555  0.6392921758130041  1.0000
  H   H36       1.0  0.6139380273826944  0.48098879202009925  0.7224279573492606  1.0000
  H   H37       1.0  0.9287782275014536  0.7316663973746528  0.06027305747353037  1.0000
  H   H38       1.0  0.9268741489593213  0.8723217265290941  0.06019139793135506  1.0000
  H   H39       1.0  0.0692719720136807  0.8735056550113213  0.9351234695415794  1.0000
  H   H40       1.0  0.9123509753836956  0.12473008900289527  0.055689364896821275  1.0000
  H   H41       1.0  0.0808867481281368  0.26908496930051484  0.9412296387169898  1.0000
  H   H42       1.0  0.07998791429731261  0.1282726254447795  0.9397170106509303  1.0000
  C   C1        1.0  0.4835874610491189  0.6442308824572011  0.503131457911216  1.0000
  C   C2        1.0  0.5041389550797318  0.497983273171279  0.41476976030250495  1.0000
  C   C3        1.0  0.5102288581857763  0.3568200538115178  0.5005285355159115  1.0000
  C   C4        1.0  0.49903240704642143  0.5000761182802336  0.5862652359562188  1.0000
  C   C5        1.0  0.9996639709668147  0.636735541632781  0.0007247892451047961  1.0000
  C   C6        1.0  0.1549859934967799  0.49913592777841853  0.06884481879727386  1.0000
  C   C7        1.0  0.0007846204272113103  0.3629943161347455  0.9979332886100206  1.0000
  C   C8        1.0  0.8458015326325851  0.49556099746998683  0.9334008355533849  1.0000
  C   C9        1.0  0.2549639787583119  0.5394473959574384  0.4817293791642425  1.0000
  C   C10       1.0  0.17181801616850123  0.5418644958586826  0.47739814182111195  1.0000
  C   C11       1.0  0.12025315430261682  0.4846859955658688  0.49705992414130395  1.0000
  C   C12       1.0  0.1551290422128915  0.4268994658384814  0.5202246968430086  1.0000
  C   C13       1.0  0.23852474004062432  0.4313605415248176  0.5233119983356642  1.0000
  C   C14       1.0  0.03518095925702619  0.4850425072015554  0.49446770954983055  1.0000
  C   C15       1.0  0.9614460807270717  0.4856604889147817  0.4936278861792543  1.0000
  C   C16       1.0  0.8764163559110546  0.4916403094835787  0.4933224812642434  1.0000
  C   C17       1.0  0.8438408802784139  0.5370689283804778  0.461510000183878  1.0000
  C   C18       1.0  0.7606743396747646  0.5459594049604349  0.4649281705577833  1.0000
  C   C19       1.0  0.7400844755349498  0.466962526263174  0.5247229210270843  1.0000
  C   C20       1.0  0.8228293743993831  0.45485239634316327  0.5249165884950383  1.0000
  C   C21       1.0  0.4828745442047335  0.7282731683431721  0.503367995129018  1.0000
  C   C22       1.0  0.5579505536787863  0.7683215432056087  0.5034994078778039  1.0000
  C   C23       1.0  0.5623913785519079  0.8463899047245749  0.5010304816657365  1.0000
  C   C24       1.0  0.49054706590209923  0.8865467550725087  0.49818418991336677  1.0000
  C   C25       1.0  0.414508105603737  0.8473604644202338  0.49796586697838285  1.0000
  C   C26       1.0  0.4120983142915193  0.7691524639502063  0.5008140830474301  1.0000
  C   C27       1.0  0.4956642126432201  0.9658844752282292  0.4961060506740578  1.0000
  C   C28       1.0  0.5038533675680625  0.03458126695649359  0.49534409269777746  1.0000
  C   C29       1.0  0.5076715839218267  0.11406426376003513  0.4960142772779148  1.0000
  C   C30       1.0  0.5825941360508438  0.1541079350178265  0.499358669880216  1.0000
  C   C31       1.0  0.5830085090100283  0.23242977652132168  0.5017806859953848  1.0000
  C   C32       1.0  0.5115875506249238  0.2727037429324213  0.5002602265761309  1.0000
  C   C33       1.0  0.4377946078734141  0.23181455072179352  0.4964370993490587  1.0000
  C   C34       1.0  0.4351223564939417  0.1536118797209625  0.4944379747277876  1.0000
  C   C35       1.0  0.5093081916315755  0.49382925872551203  0.36525145953216037  1.0000
  C   C36       1.0  0.2329575351789686  0.49379357271081403  0.09277182181251217  1.0000
  C   C37       1.0  0.5853105717885256  0.498212318774449  0.34137814951976936  1.0000
  C   C38       1.0  0.5900262785556976  0.4948177278493374  0.29540296009724887  1.0000
  C   C39       1.0  0.7400422083444839  0.4699084304849491  0.057267265017848984  1.0000
  C   C40       1.0  0.6684040540417585  0.4676147991417564  0.08392916245181675  1.0000
  C   C41       1.0  0.23050373216196365  0.4954666760465045  0.13915678293063385  1.0000
  C   C42       1.0  0.30186108423368546  0.4921077905909711  0.16128413138373074  1.0000
  C   C43       1.0  0.30885900209820244  0.4877254009342665  0.06920910428770809  1.0000
  C   C44       1.0  0.38031454898828093  0.4847333283310319  0.09098146158803637  1.0000
  C   C45       1.0  0.8169166649945724  0.4989093953625102  0.11704886939837417  1.0000
  C   C46       1.0  0.7475270464322322  0.4966353653156261  0.14611538232725954  1.0000
  C   C47       1.0  0.4379701964319907  0.4859032765067753  0.34250141188405775  1.0000
  C   C48       1.0  0.4424094067275633  0.4838121555415924  0.29658754840081497  1.0000
  C   C49       1.0  0.5185032902423643  0.48832684816238014  0.2725538674152047  1.0000
  C   C50       1.0  0.5218479715775929  0.4869165203436906  0.22372930151724543  1.0000
  C   C51       1.0  0.6710463669127334  0.4824109600810403  0.12927967929735465  1.0000
  C   C52       1.0  0.5929915373228384  0.4837894784797642  0.15712110441253904  1.0000
  C   C53       1.0  0.3778562928663618  0.48710544790375115  0.13742327278563946  1.0000
  C   C54       1.0  0.4543582687064572  0.4852313152942926  0.1601835250937284  1.0000
  C   C55       1.0  0.49388433343624877  0.4972251489696972  0.6356770952322887  1.0000
  C   C56       1.0  0.7685376003109141  0.4974938077552764  0.908746589557367  1.0000
  C   C57       1.0  0.4182673472687953  0.5031985598045312  0.6594510244341617  1.0000
  C   C58       1.0  0.41328477211587256  0.5009919474031646  0.7054018009495518  1.0000
  C   C59       1.0  0.2636301964543506  0.5111731390431445  0.9436075165999536  1.0000
  C   C60       1.0  0.3351229256250079  0.5092051193090299  0.9170315045032633  1.0000
  C   C61       1.0  0.7710165335307906  0.4856417172533086  0.8628137790056625  1.0000
  C   C62       1.0  0.6998073505545436  0.4855864958845404  0.8403659324147054  1.0000
  C   C63       1.0  0.6930877317669443  0.5097081551402312  0.9316380300753546  1.0000
  C   C64       1.0  0.6217296184132977  0.5085327234711201  0.9095667955298761  1.0000
  C   C65       1.0  0.1849890033891768  0.5027247678291787  0.8829218961756236  1.0000
  C   C66       1.0  0.2544425767171958  0.5010372238320002  0.8539220407517616  1.0000
  C   C67       1.0  0.5644217549134469  0.4884717814648526  0.6583232158230528  1.0000
  C   C68       1.0  0.559732277894426  0.4868447100190708  0.7042016283953811  1.0000
  C   C69       1.0  0.4841603516855884  0.49334230441122157  0.7281729776838685  1.0000
  C   C70       1.0  0.4807092307284078  0.49389087706597234  0.776938706812295  1.0000
  C   C71       1.0  0.3315195459788854  0.5035647686706  0.8711406502496711  1.0000
  C   C72       1.0  0.4094247995238335  0.5001985120484206  0.843359825902048  1.0000
  C   C73       1.0  0.6241273118323677  0.4964473860410551  0.8635666907398584  1.0000
  C   C74       1.0  0.5478614500732135  0.49611113564873227  0.8405570791118036  1.0000
  C   C75       1.0  0.9988729294144253  0.7220062942213729  0.9985208017725848  1.0000
  C   C76       1.0  0.9591221174870342  0.7634784473773593  0.032923122344719495  1.0000
  C   C77       1.0  0.958232592104885  0.8422368035129111  0.03286647889991909  1.0000
  C   C78       1.0  0.997897252711646  0.884320080683011  0.9977346484137963  1.0000
  C   C79       1.0  0.038120023929579396  0.8434815261497731  0.9629163883480413  1.0000
  C   C80       1.0  0.0376145206548557  0.7646981974737982  0.9637930109391346  1.0000
  C   C81       1.0  0.9973693880633832  0.9650384759255529  0.997416950218344  1.0000
  C   C82       1.0  0.9965671150252505  0.0344192875951066  0.9976116009367425  1.0000
  C   C83       1.0  0.996513374680042  0.1151601284626835  0.9976674407559893  1.0000
  C   C84       1.0  0.9496384221609233  0.15535604394507624  0.030236439055457295  1.0000
  C   C85       1.0  0.9512030740833524  0.2341801775262269  0.03008398696017879  1.0000
  C   C86       1.0  0.9982476877734502  0.27753526553525626  0.9985165744744928  1.0000
  C   C87       1.0  0.04419846103610332  0.23668667910271782  0.9661741686731626  1.0000
  C   C88       1.0  0.04361677712233811  0.1578824143676911  0.9653656702067291  1.0000
  N   N1        1.0  0.28834224340864983  0.4851666400456551  0.5050434344217078  1.0000
  N   N2        1.0  0.7092852169863376  0.5136504644616408  0.4955804692822878  1.0000
  N   N3        1.0  0.8132934315536318  0.4870474978329611  0.07315207136259967  1.0000
  N   N4        1.0  0.595679684093426  0.4865656850061839  0.20124242094792769  1.0000
  N   N5        1.0  0.5250360659969573  0.4827751038320969  0.13501922617603404  1.0000
  N   N6        1.0  0.4503751999559782  0.48655262675551825  0.20462111782386921  1.0000
  N   N7        1.0  0.18927617587429782  0.5070752492527929  0.9272006295068418  1.0000
  N   N8        1.0  0.40691303414627816  0.49726414051971796  0.799267360070139  1.0000
  N   N9        1.0  0.47723467201350905  0.5004670015140604  0.8655342325251065  1.0000
  N   N10       1.0  0.5519736239635264  0.4921652712562548  0.7961598405486181  1.0000
  N   N11       1.0  0.27386331283338455  0.3724058976283828  0.5502730355141805  1.0000
  N   N12       1.0  0.7275047716137666  0.5984516114317769  0.43304208767978003  1.0000
  N   N13       1.0  0.3303725378016509  0.7308821118861033  0.5022486599275948  1.0000
  N   N14       1.0  0.6626440389931075  0.27116478859800003  0.5084369871801895  1.0000
  N   N15       1.0  0.07859572442370681  0.7276299940972777  0.9245319270046434  1.0000
  N   N16       1.0  0.9010814530704678  0.27034121798715927  0.06653123405811098  1.0000
  O   O1        1.0  0.5492691083990165  0.6158868581813266  0.5135176133495987  1.0000
  O   O2        1.0  0.42000905152601586  0.6080769597109281  0.49166709247471346  1.0000
  O   O3        1.0  0.436105487816107  0.47973548962637846  0.43510825233089867  1.0000
  O   O4        1.0  0.5687607234230966  0.5198686805162254  0.4330656768671656  1.0000
  O   O5        1.0  0.4412301491791624  0.3844939483356811  0.5109817739383258  1.0000
  O   O6        1.0  0.5762848174352869  0.393131499316155  0.4896348830113907  1.0000
  O   O7        1.0  0.5677608248910958  0.487384925114668  0.5659283413545636  1.0000
  O   O8        1.0  0.4341886460315578  0.5150919843611206  0.5679639143958253  1.0000
  O   O9        1.0  0.9507977612005261  0.6044698391149197  0.0295918917346754  1.0000
  O   O10       1.0  0.04955356053184091  0.603454257633075  0.9737334884603893  1.0000
  O   O11       1.0  0.1683095179311351  0.49993552925113943  0.02580749682175559  1.0000
  O   O12       1.0  0.087725135670965  0.5025845113793108  0.08957089767567787  1.0000
  O   O13       1.0  0.0548717298810217  0.3953278088419268  0.9719440813971327  1.0000
  O   O14       1.0  0.9486515710792885  0.3960709825748481  0.023598524712291197  1.0000
  O   O15       1.0  0.8329157471881745  0.5096182076043833  0.975724689931894  1.0000
  O   O16       1.0  0.9122149084938798  0.4809879114236466  0.9140211446431716  1.0000
  O   O17       1.0  0.30781460478197425  0.39416319985774356  0.583267270010772  1.0000
  O   O18       1.0  0.26202085451316753  0.306095985661294  0.5377828516775336  1.0000
  O   O19       1.0  0.6848646568108167  0.649277701939333  0.44866149727366156  1.0000
  O   O20       1.0  0.7493740475137542  0.5880914509459813  0.39367113523487507  1.0000
  O   O21       1.0  0.3021619890146852  0.7066620972967358  0.538347708343643  1.0000
  O   O22       1.0  0.29469714540859826  0.7290483593399912  0.4674397523466211  1.0000
  O   O23       1.0  0.6719912623990183  0.2988679281358415  0.545583680811667  1.0000
  O   O24       1.0  0.7153282588442309  0.2693993641789945  0.4774546665710486  1.0000
  O   O25       1.0  0.0341478819230119  0.7012422710494802  0.896479837687401  1.0000
  O   O26       1.0  0.15391866278187652  0.7293066534664803  0.9221623345706713  1.0000
  O   O27       1.0  0.8274293468752205  0.2743523319973491  0.061528389725403074  1.0000
  O   O28       1.0  0.93633189374642  0.2901066364301811  0.09968903454794284  1.0000
