data_image0
_chemical_formula_structural       Zn8H34C56S12O62
_chemical_formula_sum              "Zn8 H34 C56 S12 O62"
_cell_length_a       18.33154925035959
_cell_length_b       18.315011878956742
_cell_length_c       18.371502521244793
_cell_angle_alpha    60.62734870001691
_cell_angle_beta     60.33085455492301
_cell_angle_gamma    60.81156586338648

_space_group_name_H-M_alt    "P 1"
_space_group_IT_number       1

loop_
  _space_group_symop_operation_xyz
  'x, y, z'

loop_
  _atom_site_type_symbol
  _atom_site_label
  _atom_site_symmetry_multiplicity
  _atom_site_fract_x
  _atom_site_fract_y
  _atom_site_fract_z
  _atom_site_occupancy
  Zn  Zn1       1.0  0.5361270799475761  0.5505219448479292  0.8693063763116129  1.0000
  Zn  Zn2       1.0  0.5430441665605841  0.547502967138044  0.04464831925668015  1.0000
  Zn  Zn3       1.0  0.5463571871459082  0.3725501034937295  0.03742952778678442  1.0000
  Zn  Zn4       1.0  0.37172701348171694  0.5351220595902504  0.05409866080739792  1.0000
  Zn  Zn5       1.0  0.9510806728668937  0.9612946777072294  0.6369930006107228  1.0000
  Zn  Zn6       1.0  0.9641601216161318  0.1291590264299103  0.45775483387588867  1.0000
  Zn  Zn7       1.0  0.9563492887428849  0.9655872595823425  0.4508936840533481  1.0000
  Zn  Zn8       1.0  0.1277378979498991  0.949883000366114  0.4689058227156195  1.0000
  H   H1        1.0  0.301970659984626  0.7582969788855606  0.6141568343156224  1.0000
  H   H2        1.0  0.029364328588961427  0.8438735024703803  0.2522517408992897  1.0000
  H   H3        1.0  0.12579255839136033  0.650512573162217  0.25550870865650677  1.0000
  H   H4        1.0  0.6720020958885656  0.18424811907613758  0.24009464749099846  1.0000
  H   H5        1.0  0.7717888485466561  0.0986656200212437  0.32967451048881447  1.0000
  H   H6        1.0  0.6919312060661156  0.4863786954789049  0.19803380829105058  1.0000
  H   H7        1.0  0.7788441536340895  0.46096845806058434  0.1015360241157453  1.0000
  H   H8        1.0  0.3857540648953658  0.6914181348243887  0.7167588106478247  1.0000
  H   H9        1.0  0.6160353335301778  0.7890590991264828  0.9481672404762378  1.0000
  H   H10       1.0  0.7070148694889157  0.19664798614240206  0.9007625958066612  1.0000
  H   H11       1.0  0.8016205015671147  0.10192166588818449  0.8041311488357863  1.0000
  H   H12       1.0  0.4109639526993546  0.19292927889606656  0.125933248007236  1.0000
  H   H13       1.0  0.8442776871802026  0.39383428039506896  0.5280219321755127  1.0000
  H   H14       1.0  0.7619841265028953  0.3837199862282645  0.5122836540740964  1.0000
  H   H15       1.0  0.7246409065868136  0.49298989530105797  0.6190621287494904  1.0000
  H   H16       1.0  0.6161266431883233  0.4353190580682238  0.5226267108906981  1.0000
  H   H17       1.0  0.29637435222300473  0.9958700456950922  0.34068916614556605  1.0000
  H   H18       1.0  0.16088700092969072  0.5952489564772209  0.10392867568653233  1.0000
  H   H19       1.0  0.12102427564866497  0.8906518572240639  0.051743997857009824  1.0000
  H   H20       1.0  0.865209693246186  0.2933475245747417  0.36929104266190643  1.0000
  H   H21       1.0  0.9605303051205568  0.2709760474697305  0.10018017626854463  1.0000
  H   H22       1.0  0.8319968991702565  0.503184972275342  0.8098197620197708  1.0000
  H   H23       1.0  0.03451997429883142  0.3552891340029445  0.322256317347879  1.0000
  H   H24       1.0  0.7366380897866589  0.8615068856605034  0.48940561686617934  1.0000
  H   H25       1.0  0.7141479852244714  0.9043983989422556  0.9624606916427965  1.0000
  H   H26       1.0  0.5683981596650796  0.9512210159438793  0.7781361813078289  1.0000
  H   H27       1.0  0.7404087167485826  0.6940062918240099  0.08319762769717459  1.0000
  H   H28       1.0  0.198275689611215  0.5229499664946288  0.010410126586116186  1.0000
  H   H29       1.0  0.0874627633254121  0.31197260690690587  0.40185753575507016  1.0000
  H   H30       1.0  0.1725319749617072  0.42133915155797297  0.30132204701924786  1.0000
  H   H31       1.0  0.4115406589032062  0.7129223885097244  0.199098828887081  1.0000
  H   H32       1.0  0.3150349772914893  0.8089514045773214  0.2941367764556801  1.0000
  H   H33       1.0  0.030486859432194424  0.7491484086590958  0.3496575940384189  1.0000
  H   H34       1.0  0.1425804058464947  0.7938986620051691  0.7805477591898439  1.0000
  C   C1        1.0  0.36295767377491467  0.6401317568269249  0.1399518327948002  1.0000
  C   C2        1.0  0.7085827474296593  0.44043564680758607  0.6229309657899191  1.0000
  C   C3        1.0  0.22426101518056632  0.3279507134761346  0.22937377950985652  1.0000
  C   C4        1.0  0.6406237194293852  0.3739073783061499  0.8530792904055599  1.0000
  C   C5        1.0  0.3119614981216117  0.3010508212960801  0.17537766619561526  1.0000
  C   C6        1.0  0.3441831665324813  0.2157074924579945  0.17039324963457136  1.0000
  C   C7        1.0  0.29356690387224665  0.15894689456078478  0.22182717578709796  1.0000
  C   C8        1.0  0.20732901200300802  0.18335619558953198  0.2835290299704241  1.0000
  C   C9        1.0  0.17473718830700594  0.2700357226466039  0.2827778846822822  1.0000
  C   C10       1.0  0.09781231640976532  0.33324869480548347  0.3312046753049104  1.0000
  C   C11       1.0  0.15309404331819101  0.39994036781270387  0.2691502982658421  1.0000
  C   C12       1.0  0.29348570918550365  0.6386162867787916  0.8296233065985914  1.0000
  C   C13       1.0  0.21161803894218414  0.7248329795990287  0.2241705594087335  1.0000
  C   C14       1.0  0.3040076297254828  0.698866631015093  0.19511664236461715  1.0000
  C   C15       1.0  0.339622152530417  0.7313975698512536  0.2213504349242045  1.0000
  C   C16       1.0  0.636957269869292  0.640830150208373  0.860823796087935  1.0000
  C   C17       1.0  0.28554538557310843  0.7850573488221784  0.2747178822473373  1.0000
  C   C18       1.0  0.19234442790148162  0.8098511053459275  0.3045858842570582  1.0000
  C   C19       1.0  0.15743243816324778  0.779174921358937  0.2768351962944992  1.0000
  C   C20       1.0  0.07180347793052268  0.7795287840629257  0.28321120340702777  1.0000
  C   C21       1.0  0.13247567062825985  0.7167184919965592  0.2248356347329833  1.0000
  C   C22       1.0  0.7322963671621424  0.34765395433471  0.2069216220272665  1.0000
  C   C23       1.0  0.7164322047216344  0.3555977441273157  0.7011451549429351  1.0000
  C   C24       1.0  0.688670120942781  0.3089920661826469  0.19895336932307825  1.0000
  C   C25       1.0  0.7044582106502374  0.21752490361811277  0.24471104054598664  1.0000
  C   C26       1.0  0.760805830158219  0.16935422266988803  0.29479658065203296  1.0000
  C   C27       1.0  0.8055099391756925  0.2088512393656288  0.30224695907783433  1.0000
  C   C28       1.0  0.37176999204714894  0.3547201164626656  0.13069515336373175  1.0000
  C   C29       1.0  0.7893718501788526  0.299388924671426  0.2561616642953979  1.0000
  C   C30       1.0  0.8162881140880032  0.3790165147453379  0.22593508155365774  1.0000
  C   C31       1.0  0.7485221054646373  0.4335752457479032  0.1734648646641406  1.0000
  C   C32       1.0  0.7117439419663255  0.7422415928462412  0.8303733904539782  1.0000
  C   C33       1.0  0.7034090599724434  0.6896059919627291  0.8022737618246368  1.0000
  C   C34       1.0  0.6928077808093746  0.3197625154415107  0.7933193343671048  1.0000
  C   C35       1.0  0.7578175861216181  0.689941598654684  0.7144437435386096  1.0000
  C   C36       1.0  0.7998626624702543  0.7551759831073426  0.6538994098197359  1.0000
  C   C37       1.0  0.8047787858327241  0.8110144215410527  0.6830873416695125  1.0000
  C   C38       1.0  0.7627744979484278  0.7981575030765667  0.7738556013435908  1.0000
  C   C39       1.0  0.7364085205884832  0.8341776879853952  0.8454931403179416  1.0000
  C   C40       1.0  0.6313312418463469  0.36283281933918937  0.1424555101706844  1.0000
  C   C41       1.0  0.6864427533613477  0.7618731579584336  0.9124161471847358  1.0000
  C   C42       1.0  0.15131964582558768  0.1256909303318068  0.3510396395976656  1.0000
  C   C43       1.0  0.8574911991754063  0.8743353247705556  0.6273355356858232  1.0000
  C   C44       1.0  0.8664001446949712  0.15340741414772904  0.6259990873634249  1.0000
  C   C45       1.0  0.7251820503446851  0.22668393799925474  0.8289590223926876  1.0000
  C   C46       1.0  0.13527763185877004  0.8651641930876649  0.36318231908705906  1.0000
  C   C47       1.0  0.864773727726437  0.15269792837641916  0.3566791362402027  1.0000
  C   C48       1.0  0.13142483579438377  0.861279479102599  0.6488980951318623  1.0000
  C   C49       1.0  0.3523288290143682  0.6052691910789748  0.8809214425571167  1.0000
  C   C50       1.0  0.26640370797364443  0.7487280059635354  0.6849527117380345  1.0000
  C   C51       1.0  0.1805967022565512  0.7984896905385453  0.7112227737620741  1.0000
  C   C52       1.0  0.3175989298314121  0.6908698636635363  0.743867107939721  1.0000
  C   C53       1.0  0.7790430997435394  0.1737861267655134  0.7750335560766998  1.0000
  C   C54       1.0  0.8073465775447346  0.21115420432913368  0.6817919360333703  1.0000
  C   C55       1.0  0.7753761597336319  0.30311932537088637  0.6467457814635369  1.0000
  C   C56       1.0  0.7804842988444066  0.38153991143637705  0.5617421147911015  1.0000
  S   S1        1.0  0.6034439279924015  0.49782223996323427  0.6033332518769755  1.0000
  S   S2        1.0  0.6550698692576944  0.9484729958793566  0.8256199972244146  1.0000
  S   S3        1.0  0.7245779226345871  0.656255694781926  0.999892923289032  1.0000
  S   S4        1.0  0.18992983657106785  0.6163644326618537  0.883977125799653  1.0000
  S   S5        1.0  0.341442140157703  0.0549767441836124  0.2031706505889801  1.0000
  S   S6        1.0  0.09045125681763715  0.5008759762779462  0.2034118317389471  1.0000
  S   S7        1.0  0.11456230678928138  0.7597166768077697  0.12105128360911285  1.0000
  S   S8        1.0  0.7857911860123109  0.42199778863660947  0.31212452941847624  1.0000
  S   S9        1.0  0.9318374173453776  0.3681404967639778  0.15115976386223914  1.0000
  S   S10       1.0  0.7964751974325281  0.5864632511383335  0.6927285810314882  1.0000
  S   S11       1.0  0.8429064720429481  0.7693055668391438  0.5362549272644301  1.0000
  S   S12       1.0  0.8195791180027429  0.8402789736194689  0.8702691327246369  1.0000
  O   O1        1.0  0.5015728406556192  0.5027038376491006  0.9996439817154226  1.0000
  O   O2        1.0  0.05171688825389952  0.8932677204833157  0.37787056292610527  1.0000
  O   O3        1.0  0.8829728166009544  0.19036967890615838  0.38638595284169946  1.0000
  O   O4        1.0  0.3239423180399116  0.6102453391856528  0.12454039513740875  1.0000
  O   O5        1.0  0.17463782594226268  0.8770044874043633  0.5655054526489706  1.0000
  O   O6        1.0  0.8927826362073288  0.07013679887992909  0.3713093711037416  1.0000
  O   O7        1.0  0.04802525903913584  0.8954486154704708  0.6844944562090588  1.0000
  O   O8        1.0  0.8796921717860541  0.07071275284869927  0.6652826549195011  1.0000
  O   O9        1.0  0.17408425640463318  0.8792667260207878  0.39407243556733823  1.0000
  O   O10       1.0  0.06864098273958061  0.16601299581555645  0.3721345634497837  1.0000
  O   O11       1.0  0.85920075766164  0.9194895582919286  0.5482474531009769  1.0000
  O   O12       1.0  0.6004652935281314  0.6346077808858651  0.8217449856505751  1.0000
  O   O13       1.0  0.6155988576271555  0.4575607625565254  0.8162659285647105  1.0000
  O   O14       1.0  0.6201799319362207  0.6169290911400223  0.9433812442708315  1.0000
  O   O15       1.0  0.45170281961540587  0.3220387027053064  0.0852189593659602  1.0000
  O   O16       1.0  0.6158763279365046  0.4461458652121451  0.11494961739607143  1.0000
  O   O17       1.0  0.3195363928823129  0.5746885392500471  0.9652589982201575  1.0000
  O   O18       1.0  0.6042154450593175  0.3222011143466331  0.12589654314282228  1.0000
  O   O19       1.0  0.4291904741873081  0.6136580040774009  0.8369666078450706  1.0000
  O   O20       1.0  0.5323045872121667  0.5109993009033004  0.6832386137672444  1.0000
  O   O21       1.0  0.615434440130933  0.5705264883158279  0.5213760225778472  1.0000
  O   O22       1.0  0.591962777418665  0.4254220782161013  0.586714048149794  1.0000
  O   O23       1.0  0.33868667240967204  0.42833270560450376  0.14411143738026766  1.0000
  O   O24       1.0  0.274627168203061  0.0434317303818545  0.19357173656756999  1.0000
  O   O25       1.0  0.42772290735432256  0.0495612581846956  0.1366403393817207  1.0000
  O   O26       1.0  0.35741350505909936  0.9864006678977759  0.294435233904629  1.0000
  O   O27       1.0  0.042400723630507293  0.47774401332664934  0.1801630478924779  1.0000
  O   O28       1.0  0.04635242469561971  0.5644600514364128  0.24918070751435561  1.0000
  O   O29       1.0  0.16664139471898656  0.5333659735471697  0.11419345736208453  1.0000
  O   O30       1.0  0.16429182999898728  0.6922255159450613  0.07926891658899392  1.0000
  O   O31       1.0  0.02171524650917426  0.8056447248205743  0.13286410449451574  1.0000
  O   O32       1.0  0.16618448153694473  0.8321038355868782  0.06034002875532715  1.0000
  O   O33       1.0  0.7944784397032763  0.508095469406122  0.2718945465769946  1.0000
  O   O34       1.0  0.44633060832398985  0.6246071425476957  0.11320645748443078  1.0000
  O   O35       1.0  0.7018191333864648  0.4087940322839855  0.3756200121735419  1.0000
  O   O36       1.0  0.8612468754150555  0.35602925242753963  0.3543862240376612  1.0000
  O   O37       1.0  0.9400223528534398  0.454367896070643  0.10225855017133505  1.0000
  O   O38       1.0  0.990354427275811  0.29514943146333644  0.1983721841104187  1.0000
  O   O39       1.0  0.93363186387937  0.3354949603595117  0.08207973865626861  1.0000
  O   O40       1.0  0.74046698005327  0.5823676654103096  0.6629692478558269  1.0000
  O   O41       1.0  0.8909254404963606  0.5672906318152895  0.6498156738597772  1.0000
  O   O42       1.0  0.7814903343592191  0.5183355730936796  0.7936528406587725  1.0000
  O   O43       1.0  0.9322215766353846  0.7696159877394353  0.4986319363105239  1.0000
  O   O44       1.0  0.8178887368128895  0.7137224139213529  0.5244742181272173  1.0000
  O   O45       1.0  0.6276014867954983  0.33164208859570016  0.9358073423364173  1.0000
  O   O46       1.0  0.7796925565350462  0.8689450582529261  0.5000472271418134  1.0000
  O   O47       1.0  0.8894259010092255  0.757896190163997  0.8758316989228732  1.0000
  O   O48       1.0  0.8344682542816885  0.9240213953739058  0.8139124168148016  1.0000
  O   O49       1.0  0.7613084375845388  0.8458348864267646  0.9684524405231231  1.0000
  O   O50       1.0  0.627528938381836  0.9750721011716621  0.8996266803249356  1.0000
  O   O51       1.0  0.6879905156560396  0.0009706721048204001  0.7350231911410673  1.0000
  O   O52       1.0  0.5707032559199732  0.9314590596855296  0.8373425356418664  1.0000
  O   O53       1.0  0.6433754758459074  0.645353919549393  0.07137732335588956  1.0000
  O   O54       1.0  0.7874263750436158  0.5915586763196926  0.9564446077700809  1.0000
  O   O55       1.0  0.7796593389315589  0.6701638882505919  0.03401211081766328  1.0000
  O   O56       1.0  0.9987086185973412  0.001166650614351303  0.5039692711058307  1.0000
  O   O57       1.0  0.1266162764794601  0.6783283182894378  0.9315958763175658  1.0000
  O   O58       1.0  0.17294529698501285  0.6096296889886617  0.8196919932064473  1.0000
  O   O59       1.0  0.211986584395504  0.5193812287992472  0.952220456657798  1.0000
  O   O60       1.0  0.1881388602712306  0.04270369148482439  0.38689403208235257  1.0000
  O   O61       1.0  0.8957654654839045  0.8747512839920758  0.6686822856802337  1.0000
  O   O62       1.0  0.8985836339067602  0.19197805505029916  0.5425112474200804  1.0000
