data_image0
_chemical_formula_structural       Zn4H16C20N16O4
_chemical_formula_sum              "Zn4 H16 C20 N16 O4"
_cell_length_a       5.840942744224193
_cell_length_b       10.501748411203536
_cell_length_c       11.28954812014009
_cell_angle_alpha    102.95007026647158
_cell_angle_beta     89.99905159700123
_cell_angle_gamma    89.99985902871319

_space_group_name_H-M_alt    "P 1"
_space_group_IT_number       1

loop_
  _space_group_symop_operation_xyz
  'x, y, z'

loop_
  _atom_site_type_symbol
  _atom_site_label
  _atom_site_symmetry_multiplicity
  _atom_site_fract_x
  _atom_site_fract_y
  _atom_site_fract_z
  _atom_site_occupancy
  Zn  Zn1       1.0  0.7543990843182369  0.4844872458544315  0.4381559070623453  1.0000
  Zn  Zn2       1.0  0.2543722870448661  0.015511616844840098  0.06184513648018  1.0000
  Zn  Zn3       1.0  0.24561784789308658  0.5155155850748088  0.561842842529721  1.0000
  Zn  Zn4       1.0  0.7456001318252559  0.9844813245328509  0.9381538189172928  1.0000
  H   H1        1.0  0.8813886430915971  0.23521253871518163  0.2768526987048219  1.0000
  H   H2        1.0  0.3813896693632087  0.26479352532732736  0.2231526146014247  1.0000
  H   H3        1.0  0.1186265770071842  0.764784136141557  0.7231507295333729  1.0000
  H   H4        1.0  0.6186135665513817  0.7352146565619433  0.776837710110911  1.0000
  H   H5        1.0  0.8427116174001056  0.29133285192757086  0.9097473793763058  1.0000
  H   H6        1.0  0.3427514379025354  0.2086588541640921  0.5902522921066051  1.0000
  H   H7        1.0  0.15725395329684488  0.7086522376090442  0.09025051411169464  1.0000
  H   H8        1.0  0.6572791908272677  0.7913462710152147  0.40973993379090257  1.0000
  H   H9        1.0  0.7235080073105564  0.5213181046390145  0.9965394445025452  1.0000
  H   H10       1.0  0.22351847593277793  0.9786765439318896  0.5034648205364505  1.0000
  H   H11       1.0  0.2764712597866391  0.4786699132877176  0.0034591756557844763  1.0000
  H   H12       1.0  0.7764898958549793  0.021324797877433393  0.4965441990311703  1.0000
  H   H13       1.0  0.688931681310521  0.5999078096363347  0.22211979754203526  1.0000
  H   H14       1.0  0.1889200082887896  0.9000978862190436  0.2778828082795357  1.0000
  H   H15       1.0  0.31108011476112546  0.40009009786255934  0.7778786168662037  1.0000
  H   H16       1.0  0.8110832274145352  0.0999076593987738  0.722121048184519  1.0000
  C   C1        1.0  0.8507900276733338  0.29597020246391287  0.2118243442834569  1.0000
  C   C2        1.0  0.35078241180502795  0.20402820046774642  0.2881784375192638  1.0000
  C   C3        1.0  0.14922176840951806  0.7040237577336866  0.7881739771617615  1.0000
  C   C4        1.0  0.6492208238801281  0.7959713173238115  0.7118274695378873  1.0000
  C   C5        1.0  0.8750570955243615  0.24366815898353877  0.0862531323037032  1.0000
  C   C6        1.0  0.37507942213093765  0.2563361455194766  0.4137482507957344  1.0000
  C   C7        1.0  0.1249273076103918  0.7563184980489055  0.913753129721833  1.0000
  C   C8        1.0  0.6249323742176927  0.7436785344283549  0.5862303871184906  1.0000
  C   C9        1.0  0.8269717373724957  0.32726828793214924  0.007765552813289371  1.0000
  C   C10       1.0  0.32698338886642375  0.17272310741312674  0.4922410091239868  1.0000
  C   C11       1.0  0.1730058176835101  0.6727157826962367  0.9922329743899353  1.0000
  C   C12       1.0  0.6730215587885695  0.8272781489026211  0.5077697624895305  1.0000
  C   C13       1.0  0.7599386586078862  0.45529736056717945  0.05602422148754726  1.0000
  C   C14       1.0  0.259935372470423  0.04470729711885469  0.44397910029788784  1.0000
  C   C15       1.0  0.240069713326811  0.544694476361613  0.9439771195446269  1.0000
  C   C16       1.0  0.7400884080973497  0.9553059364234567  0.5560089314820259  1.0000
  C   C17       1.0  0.7406605337574135  0.5001305741021226  0.18134935024725243  1.0000
  C   C18       1.0  0.24065561808252053  0.9998699349090927  0.3186541949040844  1.0000
  C   C19       1.0  0.2593495503506986  0.4998646187346906  0.8186439573601021  1.0000
  C   C20       1.0  0.7593527535121394  0.00013479845504349403  0.6813663058221664  1.0000
  N   N1        1.0  0.9375375510077502  0.3884671631786603  0.5454126774881658  1.0000
  N   N2        1.0  0.43751989822182935  0.11153287390023074  0.9545909272545218  1.0000
  N   N3        1.0  0.06247938113779839  0.611541439078472  0.4545892776010944  1.0000
  N   N4        1.0  0.5624525206189189  0.8884579869524883  0.04541017169906061  1.0000
  N   N5        1.0  0.841074062984404  0.3611569666138407  0.6316203127229514  1.0000
  N   N6        1.0  0.34105562626054814  0.1388445493381241  0.8683809205736991  1.0000
  N   N7        1.0  0.1589411571304353  0.638852697283582  0.36838013258862656  1.0000
  N   N8        1.0  0.6589236407925583  0.8611503015538343  0.13161939529624778  1.0000
  N   N9        1.0  0.7508510676696288  0.333665108624146  0.7140191203227744  1.0000
  N   N10       1.0  0.2508351475798917  0.1663337036844226  0.7859839710245566  1.0000
  N   N11       1.0  0.24916072834533048  0.6663415841157557  0.28598147428610327  1.0000
  N   N12       1.0  0.7491526797162819  0.8336640756064921  0.2140170715394375  1.0000
  N   N13       1.0  0.7853201102035641  0.42047400182514844  0.2570509960231249  1.0000
  N   N14       1.0  0.2853145622359108  0.07953544926820652  0.24295330272241958  1.0000
  N   N15       1.0  0.21468483755845108  0.5795305676518365  0.7429526181885108  1.0000
  N   N16       1.0  0.7146749771517873  0.9204783757233131  0.7570428555954648  1.0000
  O   O1        1.0  0.9373425294769573  0.11933378226395057  0.0451062249894463  1.0000
  O   O2        1.0  0.4373749045710085  0.38065914301003545  0.454900678624675  1.0000
  O   O3        1.0  0.0626316012965589  0.880655717700371  0.9549025158471453  1.0000
  O   O4        1.0  0.5626386035586037  0.6193467445879576  0.545096169671602  1.0000
