data_image0
_chemical_formula_structural       Zn2H12C36N6Cl8O8F2
_chemical_formula_sum              "Zn2 H12 C36 N6 Cl8 O8 F2"
_cell_length_a       13.157629239211802
_cell_length_b       16.231337214245958
_cell_length_c       17.23185431135926
_cell_angle_alpha    97.2922438340327
_cell_angle_beta     91.98406251401336
_cell_angle_gamma    95.19214413261588

_space_group_name_H-M_alt    "P 1"
_space_group_IT_number       1

loop_
  _space_group_symop_operation_xyz
  'x, y, z'

loop_
  _atom_site_type_symbol
  _atom_site_label
  _atom_site_symmetry_multiplicity
  _atom_site_fract_x
  _atom_site_fract_y
  _atom_site_fract_z
  _atom_site_occupancy
  Zn  Zn1       1.0  0.5028594027857521  0.41109741722889487  0.5012133815947806  1.0000
  Zn  Zn2       1.0  0.506195150593129  0.5917427601180664  0.506346790479661  1.0000
  H   H1        1.0  0.37333343732306196  0.7072213911133077  0.4537942338721166  1.0000
  H   H2        1.0  0.36325533284877304  0.8617099038655598  0.4487693251974107  1.0000
  H   H3        1.0  0.35797526905020766  0.10479434074497364  0.3850476888019614  1.0000
  H   H4        1.0  0.5936675376077928  0.1188692464404753  0.5682988169233738  1.0000
  H   H5        1.0  0.4300168483152617  0.6051811736637449  0.259526902249732  1.0000
  H   H6        1.0  0.42511585327616785  0.5928066936456348  0.1123058568653761  1.0000
  H   H7        1.0  0.5757054268950981  0.6517216091029568  0.9147282379932662  1.0000
  H   H8        1.0  0.4140760576734835  0.40633477343593694  0.8819695997367416  1.0000
  H   H9        1.0  0.8307991764820102  0.37754779013403095  0.5040474071047925  1.0000
  H   H10       1.0  0.8147182978922629  0.6360430651397238  0.47567916608266353  1.0000
  H   H11       1.0  0.1745624937543937  0.6034911661920577  0.4868094366991826  1.0000
  H   H12       1.0  0.19124454760547138  0.34676405926627757  0.5208812551159312  1.0000
  C   C1        1.0  0.49757859149661227  0.5041965595350677  0.3526684634577677  1.0000
  C   C2        1.0  0.30810545786282256  0.48926388452890995  0.5050361285914917  1.0000
  C   C3        1.0  0.5084424786214966  0.5228974013972734  0.654793681256173  1.0000
  C   C4        1.0  0.6980923527262418  0.4937894171282124  0.4929694447719654  1.0000
  C   C5        1.0  0.4338950015876791  0.7541259297505364  0.4792363209117312  1.0000
  C   C6        1.0  0.4287140364486319  0.8385613590801599  0.4763824356924146  1.0000
  C   C7        1.0  0.5093817327628685  0.8948786215012349  0.5115999429611549  1.0000
  C   C8        1.0  0.5927466106584943  0.863863788282217  0.5479103964373238  1.0000
  C   C9        1.0  0.5918206394802539  0.7768800233182774  0.5470884222225223  1.0000
  C   C10       1.0  0.41173286702566964  0.14038391519493135  0.42884032580866455  1.0000
  C   C11       1.0  0.47394668366624154  0.10065132064028862  0.47643244008416724  1.0000
  C   C12       1.0  0.5434410106210947  0.14837939744658263  0.5312273640480143  1.0000
  C   C13       1.0  0.5469392081930237  0.23470556096946646  0.5365245956864085  1.0000
  C   C14       1.0  0.42038013436967253  0.22759585875784444  0.4391332267209903  1.0000
  C   C15       1.0  0.49939065002722327  0.491659841658148  0.2646288673321493  1.0000
  C   C16       1.0  0.459070729545857  0.5524179371135252  0.2246159115712345  1.0000
  C   C17       1.0  0.4565812335312672  0.5460331659592867  0.14373240398386858  1.0000
  C   C18       1.0  0.494824125546856  0.4776566489749286  0.0999598137440216  1.0000
  C   C19       1.0  0.5352420589755907  0.41555382052743556  0.1387535335744445  1.0000
  C   C20       1.0  0.5386240334572391  0.4229771519350933  0.22118637624781456  1.0000
  C   C21       1.0  0.5414619957570609  0.5978432422345608  0.8753728615759114  1.0000
  C   C22       1.0  0.4967205248662054  0.5287700420204047  0.906713007096144  1.0000
  C   C23       1.0  0.45070289052697626  0.4592462166451057  0.8572418254740483  1.0000
  C   C24       1.0  0.4521627283124089  0.459403311319477  0.776608180127667  1.0000
  C   C25       1.0  0.5010579475063821  0.5265592514066955  0.7424755708996073  1.0000
  C   C26       1.0  0.5448303361386806  0.5957522438353849  0.7945324159026298  1.0000
  C   C27       1.0  0.8692892668898152  0.438456047142239  0.49805259002963  1.0000
  C   C28       1.0  0.8606538103960019  0.584599542484682  0.48203015770941704  1.0000
  C   C29       1.0  0.9650593327726185  0.5953571711241638  0.48236483313607437  1.0000
  C   C30       1.0  0.028385307016954214  0.5307156697332049  0.4915176453201582  1.0000
  C   C31       1.0  0.13615177548673071  0.5426463962064645  0.49321610810677896  1.0000
  C   C32       1.0  0.1451448059256251  0.3975290460254756  0.5123479253690062  1.0000
  C   C33       1.0  0.040612118593252  0.3861365778324598  0.5099399649091936  1.0000
  C   C34       1.0  0.9771016819810114  0.45040839718234355  0.49964834970187877  1.0000
  C   C35       1.0  0.8121576688385872  0.5046867958128376  0.49018384178602753  1.0000
  C   C36       1.0  0.1936563865693159  0.47721296091770443  0.50347545230224  1.0000
  N   N1        1.0  0.5139521683361037  0.7239459248602175  0.5137313200176408  1.0000
  N   N2        1.0  0.5114000900853526  0.982212502479513  0.5184313592050742  1.0000
  N   N3        1.0  0.4656949669443051  0.0116123492965983  0.46420430418560693  1.0000
  N   N4        1.0  0.4867467080079635  0.2750921243871502  0.49156950915680403  1.0000
  N   N5        1.0  0.49291909809658563  0.46760599641125833  0.017356923036160803  1.0000
  N   N6        1.0  0.502241348426338  0.5361680397499315  0.9893380536947163  1.0000
  Cl  Cl1       1.0  0.6920439444098747  0.737361717160809  0.5895480364638175  1.0000
  Cl  Cl2       1.0  0.6937241173591459  0.9299101366879019  0.5895990559278488  1.0000
  Cl  Cl3       1.0  0.34291362874490966  0.2761540083499981  0.3816317844105441  1.0000
  Cl  Cl4       1.0  0.6312461006120386  0.2925257690753967  0.6040810045183277  1.0000
  Cl  Cl5       1.0  0.5966894531176195  0.3496758102316663  0.2663015201989083  1.0000
  Cl  Cl6       1.0  0.585321434035535  0.3338692614680881  0.08459327334010419  1.0000
  Cl  Cl7       1.0  0.6085937274061238  0.6813584890175409  0.7611978451696189  1.0000
  Cl  Cl8       1.0  0.3876153860425974  0.3742837624293571  0.7187211134707425  1.0000
  O   O1        1.0  0.4827519765221382  0.43996806996755583  0.38708428264341427  1.0000
  O   O2        1.0  0.5086325445331569  0.5797172896021933  0.3852112752640551  1.0000
  O   O3        1.0  0.34983615768123855  0.5596349472886998  0.4917446541915353  1.0000
  O   O4        1.0  0.35439409424824936  0.426725529205939  0.5196244047660201  1.0000
  O   O5        1.0  0.4880256738198483  0.5869043716558338  0.623992935075371  1.0000
  O   O6        1.0  0.5356625912119168  0.45575746552292173  0.619486932107371  1.0000
  O   O7        1.0  0.6548285953927645  0.41960967591996484  0.48395206574074473  1.0000
  O   O8        1.0  0.6536652797928824  0.5604400368213407  0.505293383844304  1.0000
  F   F1        1.0  0.9937042062959874  0.30927320130313524  0.5180003785483649  1.0000
  F   F2        1.0  0.012157791683733927  0.67214387509317  0.47418991419055345  1.0000
