data_image0
_chemical_formula_structural       Al2H18C42Br6O12
_chemical_formula_sum              "Al2 H18 C42 Br6 O12"
_cell_length_a       3.991001656148435
_cell_length_b       24.610754865104443
_cell_length_c       24.608909178155056
_cell_angle_alpha    119.99180718389552
_cell_angle_beta     90.00464993424328
_cell_angle_gamma    89.99572185821323

_space_group_name_H-M_alt    "P 1"
_space_group_IT_number       1

loop_
  _space_group_symop_operation_xyz
  'x, y, z'

loop_
  _atom_site_type_symbol
  _atom_site_label
  _atom_site_symmetry_multiplicity
  _atom_site_fract_x
  _atom_site_fract_y
  _atom_site_fract_z
  _atom_site_occupancy
  Al  Al1       1.0  0.9901556109429349  0.500011165077197  0.5000079804732492  1.0000
  Al  Al2       1.0  0.9903401803526108  0.16666435842474675  0.8333336444387881  1.0000
  H   H1        1.0  0.3265081762659676  0.4360200343704079  0.7308533179333523  1.0000
  H   H2        1.0  0.3265639603228934  0.23061685652052688  0.6024511039628065  1.0000
  H   H3        1.0  0.7047624546288345  0.3256560277603242  0.8231229970415797  1.0000
  H   H4        1.0  0.7079818594083135  0.3898966974776313  0.7707232007641166  1.0000
  H   H5        1.0  0.7046786924530364  0.34102036393374385  0.5101897929283012  1.0000
  H   H6        1.0  0.7079113074356655  0.2767631270658129  0.562595597441664  1.0000
  H   H7        1.0  0.32638753586286373  0.7948398207510792  0.5639825413544132  1.0000
  H   H8        1.0  0.32658632201781046  0.8718558634039933  0.7693850575939435  1.0000
  H   H9        1.0  0.7047994874513749  0.9974662270070597  0.6743334108140147  1.0000
  H   H10       1.0  0.7079439480302837  0.8808361321623935  0.6100978661959361  1.0000
  H   H11       1.0  0.7047463432253522  0.669184039530606  0.6589820135812303  1.0000
  H   H12       1.0  0.7080538969409887  0.7858326282559746  0.7232356438311813  1.0000
  H   H13       1.0  0.32648450147265606  0.26914829712181637  0.20517686264164328  1.0000
  H   H14       1.0  0.32651807810192685  0.39751956165639507  0.1281550549315114  1.0000
  H   H15       1.0  0.7048340891661553  0.1768710848492034  0.0025449958934516126  1.0000
  H   H16       1.0  0.7079841272885969  0.2292496017994239  0.11917419830841422  1.0000
  H   H17       1.0  0.7047454875811141  0.4897801895679306  0.3308180298554006  1.0000
  H   H18       1.0  0.708067505756567  0.4373854750767024  0.21415953844054772  1.0000
  C   C1        1.0  0.49245533288483034  0.44797346875233757  0.4037421672249265  1.0000
  C   C2        1.0  0.49250909799800974  0.455764771211541  0.5520253279385016  1.0000
  C   C3        1.0  0.49244363971290983  0.5962728620786704  0.5442481664552687  1.0000
  C   C4        1.0  0.4925548858754993  0.21090460711112513  0.781322848427834  1.0000
  C   C5        1.0  0.4926303595323985  0.07041884892500855  0.7890923150130007  1.0000
  C   C6        1.0  0.49262117902718217  0.21867339590024665  0.9295830183831056  1.0000
  C   C7        1.0  0.4994012853114497  0.4228876001340894  0.5890180157275253  1.0000
  C   C8        1.0  0.4994812815512048  0.24378343073544773  0.744318790123195  1.0000
  C   C9        1.0  0.39415828082219656  0.44913820526129905  0.6516663339734022  1.0000
  C   C10       1.0  0.4076517177192826  0.41434541198989183  0.6821572095168448  1.0000
  C   C11       1.0  0.3941430659379889  0.2175157186998432  0.6816562708060231  1.0000
  C   C12       1.0  0.4076628959939013  0.2523097430631368  0.6511593464066437  1.0000
  C   C13       1.0  0.6162690386214464  0.30602935435213385  0.7750249080000271  1.0000
  C   C14       1.0  0.6175664500293649  0.34163633158719614  0.7456569599285315  1.0000
  C   C15       1.0  0.6161739399211753  0.3606412330062482  0.5582998199367708  1.0000
  C   C16       1.0  0.617552549997633  0.32500821305681876  0.5876483090662531  1.0000
  C   C17       1.0  0.5143791356437006  0.35166799822617634  0.6504295478833555  1.0000
  C   C18       1.0  0.5144282536440556  0.31496141198979183  0.6828823015077318  1.0000
  C   C19       1.0  0.49934540379574327  0.6661400779430408  0.5771239992396885  1.0000
  C   C20       1.0  0.49947452104066054  0.0005422369635183596  0.7562194010272235  1.0000
  C   C21       1.0  0.39402352163816085  0.7025356376646312  0.550861903241845  1.0000
  C   C22       1.0  0.4075417212093199  0.7678240436002995  0.5856642848039755  1.0000
  C   C23       1.0  0.3941820476197718  0.9641496730077462  0.7824781595769678  1.0000
  C   C24       1.0  0.40768714318606664  0.8988678244174011  0.7476985225902695  1.0000
  C   C25       1.0  0.6162642974723836  0.9689982360512062  0.6939682645954831  1.0000
  C   C26       1.0  0.6175516346287466  0.9040237678681391  0.6583518479409206  1.0000
  C   C27       1.0  0.616238259517857  0.6976661579748721  0.6393635491445976  1.0000
  C   C28       1.0  0.6175893579853806  0.7626429918251889  0.6749832932218425  1.0000
  C   C29       1.0  0.5143521361932952  0.7987653557976698  0.648327312105046  1.0000
  C   C30       1.0  0.5143870365144563  0.8679270358848755  0.6850289083406054  1.0000
  C   C31       1.0  0.49938299783557477  0.4109767135083048  0.3338722714675981  1.0000
  C   C32       1.0  0.49946198850275175  0.25567449414539567  0.9994615988657216  1.0000
  C   C33       1.0  0.39407229601268773  0.34832333973720603  0.29748367479177057  1.0000
  C   C34       1.0  0.40761939870670005  0.31783894380019717  0.23219634975824724  1.0000
  C   C35       1.0  0.39413444317280266  0.3183270057231837  0.03585627079399253  1.0000
  C   C36       1.0  0.40765823853779176  0.34881201879802853  0.10114303424875708  1.0000
  C   C37       1.0  0.6162702205784639  0.22497694741476687  0.03101437092301042  1.0000
  C   C38       1.0  0.6175842464409056  0.2543210096990051  0.09599128810707921  1.0000
  C   C39       1.0  0.6162761006335842  0.44168582734360484  0.30234411331084493  1.0000
  C   C40       1.0  0.6176305792553336  0.4123313934345134  0.23736294439791553  1.0000
  C   C41       1.0  0.5144222003189539  0.34955376850661674  0.20124147078501411  1.0000
  C   C42       1.0  0.5144108461264381  0.3170919853649394  0.1320832457318559  1.0000
  Br  Br1       1.0  0.24262650345341538  0.5333943924332942  0.700390153753247  1.0000
  Br  Br2       1.0  0.24263563100036828  0.13328165557948773  0.6329576512108303  1.0000
  Br  Br3       1.0  0.24236564598179905  0.6670009762792688  0.4666203453230152  1.0000
  Br  Br4       1.0  0.24265287625843968  0.9996999502604991  0.8667294891789082  1.0000
  Br  Br5       1.0  0.2425214722249365  0.2996113450747657  0.333016956341865  1.0000
  Br  Br6       1.0  0.24257840050083962  0.3670265236260093  0.00030559774251767897  1.0000
  O   O1        1.0  0.7250841451573534  0.569740558675434  0.5582170228743449  1.0000
  O   O2        1.0  0.7250703303291672  0.4884729076347156  0.43027108330768016  1.0000
  O   O3        1.0  0.7251285252105076  0.44179972687766167  0.5115285107617494  1.0000
  O   O4        1.0  0.25428055495751056  0.5677159984261734  0.5061763333890709  1.0000
  O   O5        1.0  0.25435656685748836  0.4938339816782785  0.5615341357056067  1.0000
  O   O6        1.0  0.25429617304684615  0.4384637329366185  0.4322970679664877  1.0000
  O   O7        1.0  0.7253154376505506  0.17818200404021653  0.9030721889465381  1.0000
  O   O8        1.0  0.7252597438225408  0.22487861894288122  0.8218189623856631  1.0000
  O   O9        1.0  0.725284074505211  0.0969389875969142  0.7751138174037564  1.0000
  O   O10       1.0  0.25440869800883087  0.22818885052262047  0.9010279318174098  1.0000
  O   O11       1.0  0.2544218052138517  0.09896792691270649  0.8271579619236461  1.0000
  O   O12       1.0  0.2543508077278318  0.17284134096544088  0.7718046944665389  1.0000
