data_image0
_chemical_formula_structural       Mn3H26C24O22
_chemical_formula_sum              "Mn3 H26 C24 O22"
_cell_length_a       4.668606766238497
_cell_length_b       12.477730049576415
_cell_length_c       14.376738356978846
_cell_angle_alpha    63.526399990837405
_cell_angle_beta     83.25250812149648
_cell_angle_gamma    79.85253120510187

_space_group_name_H-M_alt    "P 1"
_space_group_IT_number       1

loop_
  _space_group_symop_operation_xyz
  'x, y, z'

loop_
  _atom_site_type_symbol
  _atom_site_label
  _atom_site_symmetry_multiplicity
  _atom_site_fract_x
  _atom_site_fract_y
  _atom_site_fract_z
  _atom_site_occupancy
  Mn  Mn1       1.0  0.9999915273989403  1.9638406386003528e-06  0.49999974644150297  1.0000
  Mn  Mn2       1.0  0.32344005148962657  0.6190370859053472  0.8974579092155608  1.0000
  Mn  Mn3       1.0  0.6765662062938844  0.3809622757023731  0.102547219936227  1.0000
  H   H1        1.0  0.40814719651201153  0.7846579335624214  0.01678101494843531  1.0000
  H   H2        1.0  0.5918601363749972  0.21534512759039606  0.9832178176034032  1.0000
  H   H3        1.0  0.45816923635221923  0.6632675276536233  0.14111625211074855  1.0000
  H   H4        1.0  0.5418287981929097  0.3367373022161643  0.8588836218995508  1.0000
  H   H5        1.0  0.8130304833358862  0.5659546322358936  0.22568759501228902  1.0000
  H   H6        1.0  0.1869713247035065  0.4340457042395869  0.7743124486262545  1.0000
  H   H7        1.0  0.79863573816165  0.40252477187844693  0.35795592781789054  1.0000
  H   H8        1.0  0.201363790897247  0.597470199862478  0.6420420351195375  1.0000
  H   H9        1.0  0.08407407836202904  0.2871958026148675  0.42504926880694427  1.0000
  H   H10       1.0  0.9159287953299755  0.7128018783051926  0.5749482583722525  1.0000
  H   H11       1.0  0.38902572584069633  0.6104709789099942  0.4143021936071206  1.0000
  H   H12       1.0  0.6109726627805258  0.3895266144453728  0.5857003881305829  1.0000
  H   H13       1.0  0.991797026387701  0.9235908598094157  0.15224782072522905  1.0000
  H   H14       1.0  0.008207539350060212  0.0764076614544749  0.8477535074402665  1.0000
  H   H15       1.0  0.697027794609717  0.776525782949122  0.8063363459775984  1.0000
  H   H16       1.0  0.3029764574577598  0.22347364235600506  0.19366465304049998  1.0000
  H   H17       1.0  0.4372605320870875  0.8820733172775661  0.7846981004466896  1.0000
  H   H18       1.0  0.5627398477201239  0.11792525218552188  0.2152998729135831  1.0000
  H   H19       1.0  0.818505274959257  0.21445144043694597  0.3270067271206827  1.0000
  H   H20       1.0  0.18147256111887347  0.7855497766770937  0.6729924058396363  1.0000
  H   H21       1.0  0.58653679173036  0.11656269163471218  0.3782060975666184  1.0000
  H   H22       1.0  0.41344613183076023  0.8834367936478951  0.6217893399103148  1.0000
  H   H23       1.0  0.689979714287851  0.750724148638291  0.38554057601195524  1.0000
  H   H24       1.0  0.31002398522412017  0.24927711869027996  0.6144576623703981  1.0000
  H   H25       1.0  0.3659282550354702  0.7557210167374535  0.4644117241277783  1.0000
  H   H26       1.0  0.6340766493009227  0.24427661179885965  0.535589232404817  1.0000
  C   C1        1.0  0.7748461680333423  0.6559086771530926  0.021432747334550677  1.0000
  C   C2        1.0  0.22516355902504873  0.3440934502020596  0.978568442157453  1.0000
  C   C3        1.0  0.5740843479051988  0.7260175051213904  0.07271223467317621  1.0000
  C   C4        1.0  0.42591649419500033  0.2739855321641329  0.9272875223034587  1.0000
  C   C5        1.0  0.15955016331399458  0.3703050874760407  0.2607551770778826  1.0000
  C   C6        1.0  0.8404528091440114  0.6296979426803729  0.7392452061309027  1.0000
  C   C7        1.0  0.9239346486236856  0.6246055021959688  0.24197781679961855  1.0000
  C   C8        1.0  0.07606536765653972  0.37539394868104375  0.7580212289738668  1.0000
  C   C9        1.0  0.8843781462826426  0.7498734766707216  0.18008848246608275  1.0000
  C   C10       1.0  0.11562746963026875  0.25012873282460646  0.8199072498797688  1.0000
  C   C11       1.0  0.10836082011854131  0.5771731984914223  0.3249217339752449  1.0000
  C   C12       1.0  0.8916391463049818  0.4228262297582717  0.6750787133588645  1.0000
  C   C13       1.0  0.03728856549832933  0.37823633053748995  0.3609884726141956  1.0000
  C   C14       1.0  0.9627055873356484  0.6217612883897556  0.6390121558789019  1.0000
  C   C15       1.0  0.24566289525081694  0.6516918333180327  0.34946270878813834  1.0000
  C   C16       1.0  0.7543355432271139  0.34830578266464574  0.6505384713889483  1.0000
  C   C17       1.0  0.1986643214443759  0.7765830201770992  0.2869909183123697  1.0000
  C   C18       1.0  0.8013403190784414  0.22341553502776182  0.71300830751219  1.0000
  C   C19       1.0  0.020800747567186344  0.8266365154310406  0.20152818894884217  1.0000
  C   C20       1.0  0.9792084174848058  0.17336109884704598  0.7984740200480472  1.0000
  C   C21       1.0  0.5745610971259013  0.9111150111826942  0.40974468015320303  1.0000
  C   C22       1.0  0.425431223543093  0.0888880546192823  0.5902525718948439  1.0000
  C   C23       1.0  0.4919846619215986  0.8088897169598968  0.39350571818849284  1.0000
  C   C24       1.0  0.5080159816991952  0.1911079258346433  0.6064939858798083  1.0000
  O   O1        1.0  0.39242465647111396  0.41152539012838923  0.2182095130404349  1.0000
  O   O2        1.0  0.6075856729994839  0.5884749178306307  0.7817930355266967  1.0000
  O   O3        1.0  0.01834511762259439  0.3135117249683148  0.22818263983954523  1.0000
  O   O4        1.0  0.9816603736485447  0.6864904279587163  0.7718165964078593  1.0000
  O   O5        1.0  0.025486888621081588  0.6829710473295802  0.987651300492182  1.0000
  O   O6        1.0  0.9745163227221453  0.31703104484461875  0.01235151420493712  1.0000
  O   O7        1.0  0.4977933830512741  0.7977642361264045  0.8317726270507246  1.0000
  O   O8        1.0  0.50221118268648  0.20223428513747882  0.1682287011147707  1.0000
  O   O9        1.0  0.6674775971924589  0.5726898690275988  0.011294016192401666  1.0000
  O   O10       1.0  0.33253330976199175  0.4273086082216365  0.9887105922301557  1.0000
  O   O11       1.0  0.17008419239232359  0.4550092874677744  0.3866449537646517  1.0000
  O   O12       1.0  0.8299024538589348  0.5449909857749161  0.6133577140519719  1.0000
  O   O13       1.0  0.7131341088998512  0.8033739742200647  0.09561407008308019  1.0000
  O   O14       1.0  0.28686888848650227  0.1966290672500079  0.9043856123453935  1.0000
  O   O15       1.0  0.32084443574429855  0.8574890513466754  0.30438742077176084  1.0000
  O   O16       1.0  0.6791601798501645  0.1425094925445265  0.695612505833118  1.0000
  O   O17       1.0  0.39933031606985037  0.0107326753318873  0.3825689336094839  1.0000
  O   O18       1.0  0.6006647872258598  0.989268586572166  0.6174289021852104  1.0000
  O   O19       1.0  0.8120868061610693  0.8892266697571997  0.453679568013321  1.0000
  O   O20       1.0  0.18791439946611627  0.1107754861144059  0.5463191165501016  1.0000
  O   O21       1.0  0.7331244341529767  0.15598054658983068  0.3931839953043124  1.0000
  O   O22       1.0  0.26685282444129405  0.8440225012339935  0.6068130778005809  1.0000
