data_image0
_chemical_formula_structural       V4H16C24O16
_chemical_formula_sum              "V4 H16 C24 O16"
_cell_length_a       4.97390229613401
_cell_length_b       6.246581517820365
_cell_length_c       19.636641399573218
_cell_angle_alpha    89.99609115770706
_cell_angle_beta     94.41243684046967
_cell_angle_gamma    89.99479248057933

_space_group_name_H-M_alt    "P 1"
_space_group_IT_number       1

loop_
  _space_group_symop_operation_xyz
  'x, y, z'

loop_
  _atom_site_type_symbol
  _atom_site_label
  _atom_site_symmetry_multiplicity
  _atom_site_fract_x
  _atom_site_fract_y
  _atom_site_fract_z
  _atom_site_occupancy
  V   V1        1.0  0.14416797239727694  0.6254277037829538  0.22860331834755235  1.0000
  V   V2        1.0  0.35589831278140593  0.12540432818818908  0.27138779917499517  1.0000
  V   V3        1.0  0.8552704381347457  0.3748229350822855  0.7713592080980687  1.0000
  V   V4        1.0  0.6446832894503275  0.8748670722181798  0.7286505346698745  1.0000
  H   H1        1.0  0.5853279881635203  0.44014807323730293  0.21899557518776186  1.0000
  H   H2        1.0  0.9147725071142929  0.9401501259529109  0.281010221950332  1.0000
  H   H3        1.0  0.4143583097063654  0.560193818975776  0.7808495252296976  1.0000
  H   H4        1.0  0.0855610774625717  0.06017249941972119  0.7191419691935789  1.0000
  H   H5        1.0  0.6721252327791378  0.7200432241985625  0.387952346685516  1.0000
  H   H6        1.0  0.8278868254972662  0.21999817550031514  0.11205679085911406  1.0000
  H   H7        1.0  0.32800483452150087  0.2796918935966842  0.6121403084126056  1.0000
  H   H8        1.0  0.17193434341076144  0.7798058118554818  0.8878420864006031  1.0000
  H   H9        1.0  0.3304638056396385  0.9013272400549823  0.45204845983354847  1.0000
  H   H10       1.0  0.16957424153437733  0.40128819355520307  0.04796356437927329  1.0000
  H   H11       1.0  0.6698402206945319  0.09853273762671927  0.5480635016597047  1.0000
  H   H12       1.0  0.8301054789216878  0.5986006465588788  0.9519242059645162  1.0000
  H   H13       1.0  0.03977456468869891  0.905217508839513  0.5505408960674244  1.0000
  H   H14       1.0  0.4602455166516037  0.4051998326815747  0.9494762810852817  1.0000
  H   H15       1.0  0.9606899722860689  0.09467607727537342  0.44960949234660297  1.0000
  H   H16       1.0  0.5392777563061201  0.5947290390132665  0.050374150394986786  1.0000
  C   C1        1.0  0.0086244677199403  0.4073109877974517  0.356146593613026  1.0000
  C   C2        1.0  0.4914022359895044  0.907306212413985  0.14384931405910345  1.0000
  C   C3        1.0  0.9916285235892062  0.5925329850380762  0.6439461509221116  1.0000
  C   C4        1.0  0.5083731272416401  0.09253939767755529  0.8560655758199683  1.0000
  C   C5        1.0  0.8360169573316514  0.40977033494313286  0.41425066726937826  1.0000
  C   C6        1.0  0.6639720689098283  0.90976983690512  0.08574827069200097  1.0000
  C   C7        1.0  0.16421448078695283  0.5900560271368889  0.5858600381464425  1.0000
  C   C8        1.0  0.3357743685387505  0.09008538171821809  0.9141457475565244  1.0000
  C   C9        1.0  0.6714624558238143  0.585197749890888  0.4231497983899003  1.0000
  C   C10       1.0  0.8285595917391365  0.08518575792473371  0.07685689368968698  1.0000
  C   C11       1.0  0.3287348282031246  0.4145805868522885  0.5769638812717302  1.0000
  C   C12       1.0  0.1712308947097441  0.9146470477247349  0.9230287203851045  1.0000
  C   C13       1.0  0.499895824271441  0.589445399055563  0.47711859209690727  1.0000
  C   C14       1.0  0.00011868036345669984  0.0894320775510309  0.022882610697486393  1.0000
  C   C15       1.0  0.5004231684454937  0.41042418064978387  0.5230185826262355  1.0000
  C   C16       1.0  0.9995234233020157  0.9104551672501768  0.9769658039487437  1.0000
  C   C17       1.0  0.3289374154979541  0.7669332161748199  0.4875095292609187  1.0000
  C   C18       1.0  0.17107649794563431  0.26690480779979703  0.012505560352131797  1.0000
  C   C19       1.0  0.6714319857582111  0.23295877385424996  0.5126285177495189  1.0000
  C   C20       1.0  0.8284934823583542  0.7330272628237394  0.9873553557119973  1.0000
  C   C21       1.0  0.16712505594960456  0.7685423019500632  0.5411394483508188  1.0000
  C   C22       1.0  0.33290118600591984  0.2685367348499952  0.9588747485159669  1.0000
  C   C23       1.0  0.8332358827027662  0.2313000625062642  0.4589867394942073  1.0000
  C   C24       1.0  0.6667237091540417  0.7313521085608058  0.04100086887972049  1.0000
  O   O1        1.0  0.1282520623274834  0.23257084143301648  0.3429991208633182  1.0000
  O   O2        1.0  0.3716864051393359  0.7326040323603779  0.15698792191874836  1.0000
  O   O3        1.0  0.8728890297064497  0.7676012614231452  0.6572536253841077  1.0000
  O   O4        1.0  0.6272797545850254  0.26754258787750723  0.8427769825475548  1.0000
  O   O5        1.0  0.43973781476122303  0.4253627267679362  0.2507440146575064  1.0000
  O   O6        1.0  0.06032500967751989  0.9253654233591818  0.24925160942047592  1.0000
  O   O7        1.0  0.5594261089450754  0.574755075916805  0.7489698212819531  1.0000
  O   O8        1.0  0.9405452469496539  0.0747394488354729  0.7510366820152041  1.0000
  O   O9        1.0  0.022702572868496397  0.5802631635374026  0.32143250975409626  1.0000
  O   O10       1.0  0.4774079304987069  0.08023145431775451  0.17857412300141814  1.0000
  O   O11       1.0  0.9765920994625436  0.41941276839614255  0.6785097105613928  1.0000
  O   O12       1.0  0.5232529034385182  0.9194460164599505  0.8214818855302253  1.0000
  O   O13       1.0  0.9047856062139772  0.5000448127983217  0.18471783384607215  1.0000
  O   O14       1.0  0.5953095096106226  8.55695800226e-05  0.3153011736224655  1.0000
  O   O15       1.0  0.0940629270059219  0.5007037180443348  0.8152624866471141  1.0000
  O   O16       1.0  0.40588510595696903  0.0006807230845069999  0.6847104492398299  1.0000
