data_image0
_chemical_formula_structural       Cu12H24C84N28
_chemical_formula_sum              "Cu12 H24 C84 N28"
_cell_length_a       31.12063595313668
_cell_length_b       31.779676729184416
_cell_length_c       32.21079698927113
_cell_angle_alpha    89.85784906759872
_cell_angle_beta     90.68564386550791
_cell_angle_gamma    89.59422900513643

_space_group_name_H-M_alt    "P 1"
_space_group_IT_number       1

loop_
  _space_group_symop_operation_xyz
  'x, y, z'

loop_
  _atom_site_type_symbol
  _atom_site_label
  _atom_site_symmetry_multiplicity
  _atom_site_fract_x
  _atom_site_fract_y
  _atom_site_fract_z
  _atom_site_occupancy
  Cu  Cu1       1.0  0.3344927435271643  0.5829670410802519  0.37579389009223957  1.0000
  Cu  Cu2       1.0  0.4066115965742653  0.6325971127941228  0.3272949436049401  1.0000
  Cu  Cu3       1.0  0.38253387780073916  0.660063797070002  0.4187954083152903  1.0000
  Cu  Cu4       1.0  0.8374254905550912  0.9129477406120114  0.6202124534081008  1.0000
  Cu  Cu5       1.0  0.9197449868069825  0.871935238618249  0.6642063955499609  1.0000
  Cu  Cu6       1.0  0.8851931407106973  0.8346684899900366  0.5787906734473225  1.0000
  Cu  Cu7       1.0  0.1527881582542818  0.4226409687410778  0.8857963565024534  1.0000
  Cu  Cu8       1.0  0.0755616245747746  0.37634668507506314  0.8398908571696635  1.0000
  Cu  Cu9       1.0  0.11683074765080187  0.33764978097989473  0.9231519629407714  1.0000
  Cu  Cu10      1.0  0.6665148051780251  0.08035421008617047  0.12138172799783578  1.0000
  Cu  Cu11      1.0  0.5830574107199026  0.12275538153375007  0.16009665855729344  1.0000
  Cu  Cu12      1.0  0.6301084238988537  0.16619798100677488  0.08389732218490308  1.0000
  H   H1        1.0  0.3219955743319288  0.5041942388013537  0.3154181378206005  1.0000
  H   H2        1.0  0.41380623602522354  0.5773293581327364  0.24584404555520217  1.0000
  H   H3        1.0  0.3288519887084931  0.668645097677917  0.5016638106080433  1.0000
  H   H4        1.0  0.260115904025767  0.5672470634175324  0.44101030955735604  1.0000
  H   H5        1.0  0.4782662493065715  0.6998495475100127  0.306428088064763  1.0000
  H   H6        1.0  0.4531228928030231  0.7308121530868232  0.4349764774392141  1.0000
  H   H7        1.0  0.8189847523245601  0.9892200164355172  0.681980308673623  1.0000
  H   H8        1.0  0.9295246672331245  0.9311967449817826  0.7428396183846075  1.0000
  H   H9        1.0  0.8266092481380269  0.8215456767419763  0.49847548582594914  1.0000
  H   H10       1.0  0.7595720658396202  0.9257291554160431  0.556270888773483  1.0000
  H   H11       1.0  0.9986681726389718  0.8102871262444039  0.6825410761614634  1.0000
  H   H12       1.0  0.9524986842592682  0.7600752189009509  0.5652821693521304  1.0000
  H   H13       1.0  0.1658338418699898  0.5006843768675322  0.82593931270209  1.0000
  H   H14       1.0  0.06499269431459  0.4346512247347433  0.759333758746024  1.0000
  H   H15       1.0  0.18287583763380158  0.32300439575379863  0.9985007600012282  1.0000
  H   H16       1.0  0.23073907795075138  0.4399612270292579  0.9477649859698187  1.0000
  H   H17       1.0  0.0015108978969066995  0.3099925406867499  0.8223592874497783  1.0000
  H   H18       1.0  0.0574901150927616  0.25778778178291617  0.9353167634356153  1.0000
  H   H19       1.0  0.6802031255410623  0.0029986539514439  0.1827788848413547  1.0000
  H   H20       1.0  0.5656591535898343  0.05944235190782619  0.2348703674238521  1.0000
  H   H21       1.0  0.6939696649552615  0.1794200188942696  0.008579746241913698  1.0000
  H   H22       1.0  0.7432105336934142  0.0618828721351719  0.05941772118239899  1.0000
  H   H23       1.0  0.5048690623233938  0.18664356706185004  0.17218353386402194  1.0000
  H   H24       1.0  0.5729629383808684  0.24880798606695004  0.07291964263113469  1.0000
  C   C1        1.0  0.3443392025069727  0.5273774519962728  0.3038728005695859  1.0000
  C   C2        1.0  0.36813223367011005  0.5269678882030816  0.2668331451324377  1.0000
  C   C3        1.0  0.391384914315033  0.5648974804644523  0.2682133893897927  1.0000
  C   C4        1.0  0.31722409898167564  0.6440687711398638  0.4811916322841724  1.0000
  C   C5        1.0  0.2813800419088465  0.6176024290888334  0.4859186521134333  1.0000
  C   C6        1.0  0.2819577060205702  0.5921268402407589  0.4500907409606327  1.0000
  C   C7        1.0  0.4665844053707104  0.7020591668386514  0.337946395497184  1.0000
  C   C8        1.0  0.48005603313139733  0.7289933271735974  0.3702490649485952  1.0000
  C   C9        1.0  0.45355526813456487  0.718047082452422  0.4037853329460503  1.0000
  C   C10       1.0  0.8462085402867742  0.9697826427467787  0.6913824758600953  1.0000
  C   C11       1.0  0.8736292998417383  0.9738820868764292  0.72634084014053  1.0000
  C   C12       1.0  0.9028301039861332  0.9399674399922656  0.7225756534017549  1.0000
  C   C13       1.0  0.8156299971522429  0.8470033154261144  0.5181523942840514  1.0000
  C   C14       1.0  0.7793178402661242  0.8734471095630238  0.513053169051517  1.0000
  C   C15       1.0  0.7812437260675152  0.9003645072375901  0.5478138140877035  1.0000
  C   C16       1.0  0.9817710064617842  0.8034203913148443  0.6537235323388086  1.0000
  C   C17       1.0  0.990077367834999  0.771481612124411  0.6244879275149131  1.0000
  C   C18       1.0  0.9580231171015753  0.7776134946909038  0.5936701238752988  1.0000
  C   C19       1.0  0.1409996351717311  0.47934697783794883  0.815303049770634  1.0000
  C   C20       1.0  0.11619626249228789  0.48100975114400046  0.7783677482829743  1.0000
  C   C21       1.0  0.08932992911729798  0.4455333600740231  0.7810929986572148  1.0000
  C   C22       1.0  0.18877654387687673  0.35150739213693066  0.9809433422773282  1.0000
  C   C23       1.0  0.22152874621316695  0.38153365019621077  0.9865124547585962  1.0000
  C   C24       1.0  0.2133610621717708  0.4114187895374285  0.9548765559258143  1.0000
  C   C25       1.0  0.020292162407621096  0.30304150810939484  0.8501541956133136  1.0000
  C   C26       1.0  0.016257477251492996  0.2691913863045059  0.8782524652827917  1.0000
  C   C27       1.0  0.0490673765843539  0.2762279618339533  0.9079906598044899  1.0000
  C   C28       1.0  0.6523293165586493  0.022173023409599996  0.1900437168167599  1.0000
  C   C29       1.0  0.6228801134154764  0.0173668673614884  0.22265480115752465  1.0000
  C   C30       1.0  0.5936914284362872  0.0511304648309547  0.2168662636184635  1.0000
  C   C31       1.0  0.700498076444852  0.15098536498088316  0.026320466733096706  1.0000
  C   C32       1.0  0.7324154142958719  0.11995360768214877  0.020084507618051393  1.0000
  C   C33       1.0  0.7258089858272924  0.09078998484655898  0.05244376267776829  1.0000
  C   C34       1.0  0.5267359626814851  0.19607575617990136  0.147952003116373  1.0000
  C   C35       1.0  0.5253731761054324  0.23239714750505405  0.12263104902121572  1.0000
  C   C36       1.0  0.5616391032711261  0.22795368179949088  0.097084027774244  1.0000
  C   C37       1.0  0.8729426965116287  0.004511922683434499  0.7575049075204277  1.0000
  C   C38       1.0  0.8736547671543987  0.0309719905871262  0.7852133026341335  1.0000
  C   C39       1.0  0.8746764173065527  0.0601523802220569  0.8155091351914406  1.0000
  C   C40       1.0  0.8758997945166912  0.08665586247283837  0.8429613600908111  1.0000
  C   C41       1.0  0.3696543241802813  0.49586738587412765  0.23618721490112185  1.0000
  C   C42       1.0  0.37232648636609866  0.468726535462963  0.2092735012072353  1.0000
  C   C43       1.0  0.37525130777765975  0.43879364280990524  0.17986788088354896  1.0000
  C   C44       1.0  0.3782513205311275  0.41137121744064586  0.15346071327775945  1.0000
  C   C45       1.0  0.6234593991589532  0.9864102807436692  0.2536626344866376  1.0000
  C   C46       1.0  0.6253032231722314  0.9590116877326478  0.2805774525819444  1.0000
  C   C47       1.0  0.6275084080791657  0.9289952721371507  0.3101885799325075  1.0000
  C   C48       1.0  0.6298570149485485  0.9018257766965047  0.33709690603833303  1.0000
  C   C49       1.0  0.11900303985535739  0.5107790581928171  0.7464314181485676  1.0000
  C   C50       1.0  0.12327707048681448  0.5372705653691979  0.7190081666119141  1.0000
  C   C51       1.0  0.12815750073581708  0.5662694698072244  0.6888706820029142  1.0000
  C   C52       1.0  0.1331422215391456  0.5924715012315075  0.6615030249541859  1.0000
  C   C53       1.0  0.7632661697600865  0.11834396999400099  0.9888647467893605  1.0000
  C   C54       1.0  0.7901406642078115  0.11699738835879708  0.9613055944916622  1.0000
  C   C55       1.0  0.8197311462929732  0.11596781516431778  0.9311105089156797  1.0000
  C   C56       1.0  0.8463744349137556  0.11525938587833909  0.9035197163530525  1.0000
  C   C57       1.0  0.2516103552306674  0.6174842654475438  0.5181744352676672  1.0000
  C   C58       1.0  0.225075366952332  0.6180552157291714  0.5460785375528304  1.0000
  C   C59       1.0  0.19528477298969446  0.61925091588661  0.5761122238619407  1.0000
  C   C60       1.0  0.1679516221343462  0.6202657568766268  0.6030726593093476  1.0000
  C   C61       1.0  0.2548927834956558  0.38154104826728735  0.0160339767448008  1.0000
  C   C62       1.0  0.2846592542489432  0.3816683975000074  0.04137434866729709  1.0000
  C   C63       1.0  0.3173357706242683  0.3816000341641795  0.0692036193694605  1.0000
  C   C64       1.0  0.3471104211958149  0.38118202914459676  0.0943256718895498  1.0000
  C   C65       1.0  0.7483503147019518  0.8728237747867168  0.4811531758706025  1.0000
  C   C66       1.0  0.7209667991339753  0.8721439984967532  0.4534046238227276  1.0000
  C   C67       1.0  0.6905779919937485  0.8715441367635249  0.4232206861668288  1.0000
  C   C68       1.0  0.6627031326112983  0.871338312465056  0.3961218093162699  1.0000
  C   C69       1.0  0.9866882780821484  0.23620316096086916  0.876966495620749  1.0000
  C   C70       1.0  0.9608753460417105  0.2071709821356436  0.8759311363906617  1.0000
  C   C71       1.0  0.9322761758185364  0.17551023449370007  0.8748531988459902  1.0000
  C   C72       1.0  0.9063223804061451  0.14680466466946737  0.873614190903325  1.0000
  C   C73       1.0  0.5123777191003072  0.7593704101976043  0.3692237891079984  1.0000
  C   C74       1.0  0.5408612238254803  0.7858602057413717  0.3682934011177891  1.0000
  C   C75       1.0  0.5721244258698162  0.814992427077172  0.36752065866868117  1.0000
  C   C76       1.0  0.6004652170852933  0.8414347541911623  0.3671099805323266  1.0000
  C   C77       1.0  0.0222641167513018  0.7405272245326697  0.6259804351518027  1.0000
  C   C78       1.0  0.050113048235076  0.713002222755378  0.6273526102887458  1.0000
  C   C79       1.0  0.080246377328919  0.6823607591501568  0.6289263842523738  1.0000
  C   C80       1.0  0.10731296491299248  0.6542894373385763  0.6300880963513293  1.0000
  C   C81       1.0  0.4949378299307766  0.2650775432779254  0.12264368290052367  1.0000
  C   C82       1.0  0.468010880022632  0.2935048796322873  0.12261368123159137  1.0000
  C   C83       1.0  0.4379870489359377  0.32431013439860823  0.1226169474477175  1.0000
  C   C84       1.0  0.4103995726031683  0.3519146125094039  0.1229616414625738  1.0000
  N   N1        1.0  0.38224782553406556  0.5857828882420079  0.3032465396353459  1.0000
  N   N2        1.0  0.35299180205007014  0.5625829046810367  0.3253418865416862  1.0000
  N   N3        1.0  0.3153341334899054  0.6027529591917683  0.4262338233552043  1.0000
  N   N4        1.0  0.3371328198438874  0.6350635501490558  0.4454780810162546  1.0000
  N   N5        1.0  0.42672491676867  0.6871503156994407  0.3921839670944181  1.0000
  N   N6        1.0  0.4347368235419324  0.6773389923604893  0.35135524030533816  1.0000
  N   N7        1.0  0.8934803150407475  0.9178448961339924  0.6882064230498627  1.0000
  N   N8        1.0  0.8582950301114494  0.9362375934689594  0.6688918734519261  1.0000
  N   N9        1.0  0.8158062850424911  0.8905776515553183  0.5714167049495984  1.0000
  N   N10       1.0  0.8370629695294269  0.8574039624779103  0.553060897558673  1.0000
  N   N11       1.0  0.9329032699136164  0.8104486220914566  0.6039297718281276  1.0000
  N   N12       1.0  0.9475531431787161  0.8263595959072204  0.6412126318069651  1.0000
  N   N13       1.0  0.09771676941377899  0.42466470294941416  0.816664334390957  1.0000
  N   N14       1.0  0.12983552782204552  0.4456081200343717  0.8377942610541494  1.0000
  N   N15       1.0  0.17868753932602027  0.3999217401317593  0.9325338714071805  1.0000
  N   N16       1.0  0.163509973816069  0.3627219555535603  0.9485892164917686  1.0000
  N   N17       1.0  0.0706030935639177  0.3113265212769106  0.8982391353251414  1.0000
  N   N18       1.0  0.0528428891111545  0.32790018212753574  0.8622986722470429  1.0000
  N   N19       1.0  0.6050652485757765  0.07394870128024417  0.183610140027298  1.0000
  N   N20       1.0  0.6414889181442901  0.05602637640638619  0.1670617688273381  1.0000
  N   N21       1.0  0.6926503078402744  0.10353886097727379  0.07572157426555039  1.0000
  N   N22       1.0  0.6770447457085851  0.14091870111950303  0.0596124975653609  1.0000
  N   N23       1.0  0.5825480329535822  0.19198716648459418  0.1065144991817064  1.0000
  N   N24       1.0  0.560977461064944  0.17226079545579148  0.1381520812694035  1.0000
  N   N25       1.0  0.8764442170489346  0.11596810534499717  0.8734360112637347  1.0000
  N   N26       1.0  0.37903244233732636  0.38170692325957833  0.1233169103632648  1.0000
  N   N27       1.0  0.6313221072255644  0.8713288175229579  0.3665786141494891  1.0000
  N   N28       1.0  0.13653317758716096  0.6224773664784421  0.6317821044012533  1.0000
