data_image0
_chemical_formula_structural       Cu2H24C12N4Cl2O2
_chemical_formula_sum              "Cu2 H24 C12 N4 Cl2 O2"
_cell_length_a       6.7081441690895875
_cell_length_b       7.209126720420507
_cell_length_c       9.583235175282073
_cell_angle_alpha    93.80680491062034
_cell_angle_beta     103.20961007809441
_cell_angle_gamma    103.85170753860915

_space_group_name_H-M_alt    "P 1"
_space_group_IT_number       1

loop_
  _space_group_symop_operation_xyz
  'x, y, z'

loop_
  _atom_site_type_symbol
  _atom_site_label
  _atom_site_symmetry_multiplicity
  _atom_site_fract_x
  _atom_site_fract_y
  _atom_site_fract_z
  _atom_site_occupancy
  Cu  Cu1       1.0  0.16909609109502102  0.20573972021776402  0.48478113480592083  1.0000
  Cu  Cu2       1.0  0.8308675267549573  0.7943135503039754  0.5152542220632907  1.0000
  H   H1        1.0  0.8693000567058818  0.09102921769020607  0.6690453032106518  1.0000
  H   H2        1.0  0.13062199616005193  0.9089245761570623  0.33089403632084197  1.0000
  H   H3        1.0  0.6214983439712897  0.9640239021698281  0.643503068355052  1.0000
  H   H4        1.0  0.3785292157040843  0.0359454913430852  0.35647447460924286  1.0000
  H   H5        1.0  0.7752708617555013  0.9901847987712173  0.8916009030244606  1.0000
  H   H6        1.0  0.2247413426787759  0.0098250565161138  0.10834750670877469  1.0000
  H   H7        1.0  0.0013857342499790743  0.9285531815126334  0.8544780382498798  1.0000
  H   H8        1.0  0.9985634699783289  0.0714554745983946  0.14547199807287103  1.0000
  H   H9        1.0  0.4037900733354078  0.727412936971014  0.7825195023013476  1.0000
  H   H10       1.0  0.5962146822415021  0.27255506590039863  0.2175097269931001  1.0000
  H   H11       1.0  0.4136623719497123  0.4823289453021076  0.761011514866311  1.0000
  H   H12       1.0  0.5863587144983384  0.5176939654008876  0.2390152545807708  1.0000
  H   H13       1.0  0.4677667113090677  0.6322069535172758  0.6282271760725562  1.0000
  H   H14       1.0  0.532190553630727  0.3677770677961689  0.37181966244453685  1.0000
  H   H15       1.0  0.6564658699713847  0.7459791554562898  0.03616985132180161  1.0000
  H   H16       1.0  0.343615819348706  0.25401904427965144  0.9638564675610579  1.0000
  H   H17       1.0  0.686276091663359  0.5108146710974353  0.9996214147383352  1.0000
  H   H18       1.0  0.31378953513981145  0.48922665245072483  0.00038625981250819843  1.0000
  H   H19       1.0  0.9123066422086765  0.711053290179855  0.04908425386960851  1.0000
  H   H20       1.0  0.08771679616467759  0.28894621396456444  0.9508913577218577  1.0000
  H   H21       1.0  0.9949970901279173  0.5673078790270836  0.8465118245332304  1.0000
  H   H22       1.0  0.004961709515583858  0.43265582537038955  0.1534713946810413  1.0000
  H   H23       1.0  0.7466164652301543  0.4020496313307618  0.7637913973167796  1.0000
  H   H24       1.0  0.2533921131903653  0.5979913666384105  0.23617713675873372  1.0000
  C   C1        1.0  0.9755429592827339  0.47337154067905374  0.5695631959088983  1.0000
  C   C2        1.0  0.02443525000077781  0.5266499779321309  0.43049544598579087  1.0000
  C   C3        1.0  0.8278228556907834  0.8989138783878872  0.8178855424028197  1.0000
  C   C4        1.0  0.1721490168493318  0.10107625424600293  0.18207940469563505  1.0000
  C   C5        1.0  0.7237510183957666  0.686882922655215  0.8266292313099509  1.0000
  C   C6        1.0  0.27624648036731264  0.3131328586540576  0.17337152522537735  1.0000
  C   C7        1.0  0.4890934651762891  0.6293297362000275  0.7452260986253305  1.0000
  C   C8        1.0  0.5109333539091593  0.3706686303799032  0.25481362843579797  1.0000
  C   C9        1.0  0.7458290877692803  0.6627653545556312  0.986770493084883  1.0000
  C   C10       1.0  0.25421484587521087  0.33724712324890044  0.013222659475466978  1.0000
  C   C11       1.0  0.8408388783702208  0.5518240199783834  0.7687899977641519  1.0000
  C   C12       1.0  0.159134924430731  0.4482112345150994  0.23122079309387533  1.0000
  N   N1        1.0  0.776619467993065  0.9551940450560465  0.6715920553621187  1.0000
  N   N2        1.0  0.22335355837362414  0.0447713352981651  0.32839243110521465  1.0000
  N   N3        1.0  0.878554309322304  0.5834057328110163  0.62750265434326  1.0000
  N   N4        1.0  0.12143327424695373  0.4165950059542709  0.37252486522208966  1.0000
  Cl  Cl1       1.0  0.3142667724066542  0.052220281191736724  0.6615136733630604  1.0000
  Cl  Cl2       1.0  0.6857637810794941  0.9477523491251889  0.33852401777055957  1.0000
  O   O1        1.0  0.030603497194995624  0.32722382930183613  0.6194848266991925  1.0000
  O   O2        1.0  0.9694217373127856  0.6727485132006805  0.3804862737938776  1.0000
