data_image0
_chemical_formula_structural       Gd2H26C30N8O16
_chemical_formula_sum              "Gd2 H26 C30 N8 O16"
_cell_length_a       8.900199661946965
_cell_length_b       9.685698574256362
_cell_length_c       12.929285912780664
_cell_angle_alpha    99.81198838820039
_cell_angle_beta     93.70066652296765
_cell_angle_gamma    107.23769355916228

_space_group_name_H-M_alt    "P 1"
_space_group_IT_number       1

loop_
  _space_group_symop_operation_xyz
  'x, y, z'

loop_
  _atom_site_type_symbol
  _atom_site_label
  _atom_site_symmetry_multiplicity
  _atom_site_fract_x
  _atom_site_fract_y
  _atom_site_fract_z
  _atom_site_occupancy
  Gd  Gd1       1.0  0.20668057520511238  0.44741553625387104  0.009362784406370398  1.0000
  Gd  Gd2       1.0  0.7933187174030112  0.5525819103146434  0.9906371787905784  1.0000
  H   H1        1.0  0.4488592506784386  0.5253198000779165  0.1999152674152782  1.0000
  H   H2        1.0  0.5511403199839578  0.47468875085786516  0.8000872876764475  1.0000
  H   H3        1.0  0.5059866205307912  0.6274442536979735  0.1125726831908977  1.0000
  H   H4        1.0  0.49402709167543435  0.3725658802362375  0.8874351335952042  1.0000
  H   H5        1.0  0.22192842799884005  0.460512440209591  0.7706002000700778  1.0000
  H   H6        1.0  0.7780639341391409  0.5394847051260429  0.2293964078178377  1.0000
  H   H7        1.0  0.041449187468785516  0.38163040184304015  0.7910206888074924  1.0000
  H   H8        1.0  0.9585420522550198  0.6183628213619486  0.208981714775156  1.0000
  H   H9        1.0  0.22458687744740763  0.35968160849823516  0.24231027070907632  1.0000
  H   H10       1.0  0.7754000208669966  0.6403191436405535  0.7576911409561831  1.0000
  H   H11       1.0  0.08901608960173492  0.25158490602625255  0.155367553117479  1.0000
  H   H12       1.0  0.9109769184771753  0.7484104089860467  0.8446335539907608  1.0000
  H   H13       1.0  0.24773739390744964  0.2838722490100736  0.5025688990199697  1.0000
  H   H14       1.0  0.752269326140592  0.7161239845744874  0.49742887200567043  1.0000
  H   H15       1.0  0.19434058309227  0.1476710111737418  0.6514144514358406  1.0000
  H   H16       1.0  0.8056493694382354  0.852336554228522  0.3485760742883244  1.0000
  H   H17       1.0  0.6476791334037912  0.07427668069097848  0.6423875120283924  1.0000
  H   H18       1.0  0.35231517440328736  0.9257200013000785  0.3576029192123685  1.0000
  H   H19       1.0  0.7039968473839411  0.21636925241088528  0.49950172826048345  1.0000
  H   H20       1.0  0.2960194960930238  0.7836431181672127  0.5004924386430645  1.0000
  H   H21       1.0  0.34014879464133685  0.7957143970291939  0.8190404627887915  1.0000
  H   H22       1.0  0.659857005491574  0.20427877415262694  0.1809600917757237  1.0000
  H   H23       1.0  0.7991270960692775  0.9520259788666156  0.0063609788492585044  1.0000
  H   H24       1.0  0.20088909527877524  0.0479923617431481  0.9936399362439161  1.0000
  H   H25       1.0  0.656543709909272  0.22686977135858646  0.8154325203568858  1.0000
  H   H26       1.0  0.34347300961449184  0.7731420878112945  0.18458330318016183  1.0000
  C   C1        1.0  0.5177136203691717  0.33987952390212683  0.4059940771173203  1.0000
  C   C2        1.0  0.48227603963140825  0.6601158217008631  0.5940076971846722  1.0000
  C   C3        1.0  0.4794869168502132  0.25847052621319483  0.4909571016478722  1.0000
  C   C4        1.0  0.5205363524083424  0.7415314640471848  0.5090432999825438  1.0000
  C   C5        1.0  0.3344836750407936  0.2367312168608748  0.5328472197172189  1.0000
  C   C6        1.0  0.6655245903667864  0.7632735154739124  0.46714751955515516  1.0000
  C   C7        1.0  0.3042808580896974  0.1615425577680227  0.615847570223103  1.0000
  C   C8        1.0  0.6957256178577682  0.8384628795208543  0.3841564721607682  1.0000
  C   C9        1.0  0.41796825316042435  0.10519937470798621  0.6561815819187089  1.0000
  C   C10       1.0  0.5820322333370316  0.8948060269893503  0.34380831498017267  1.0000
  C   C11       1.0  0.5619600677757718  0.12378096540594187  0.6142857881044392  1.0000
  C   C12       1.0  0.4380410369282615  0.876229314922874  0.38571078081634613  1.0000
  C   C13       1.0  0.592471022894472  0.20148791114997525  0.5331118868785722  1.0000
  C   C14       1.0  0.4075346184801846  0.7985151422569318  0.4668895820400536  1.0000
  C   C15       1.0  0.489958869732206  0.010159618753725393  0.8049954951714042  1.0000
  C   C16       1.0  0.5100423613071783  0.9898368067542124  0.1950052116146921  1.0000
  C   C17       1.0  0.4536809878015618  0.8809827844527974  0.8450990681204686  1.0000
  C   C18       1.0  0.5463134802945646  0.11902035078896489  0.1549043642386252  1.0000
  C   C19       1.0  0.564887158071052  0.8609900898745907  0.9181069329963094  1.0000
  C   C20       1.0  0.43510706847377634  0.1390121252368814  0.0818987299025622  1.0000
  C   C21       1.0  0.5223564688937473  0.7234913661314623  0.961931106870523  1.0000
  C   C22       1.0  0.4776354948754717  0.2765001475549554  0.0380773591646246  1.0000
  C   C23       1.0  0.7120631321587753  0.9695014379714739  0.9512102152255366  1.0000
  C   C24       1.0  0.2879284637237944  0.030503010405531904  0.0487963434840708  1.0000
  C   C25       1.0  0.7430660102714983  0.10183277319626433  0.9143251385358014  1.0000
  C   C26       1.0  0.2569373544603765  0.898162933262981  0.08568021991989379  1.0000
  C   C27       1.0  0.8937049297907934  0.22287365889720692  0.9520885514637526  1.0000
  C   C28       1.0  0.10628187441267303  0.7771095215290276  0.04791122196949261  1.0000
  C   C29       1.0  0.6325115736204411  0.12250408024438292  0.8416529099004607  1.0000
  C   C30       1.0  0.3674914159869545  0.8775040031894505  0.1583574614659966  1.0000
  N   N1        1.0  0.6679068978774582  0.3931158254200967  0.3827241557260948  1.0000
  N   N2        1.0  0.33210346471963703  0.6068780036290209  0.6172704127813233  1.0000
  N   N3        1.0  0.654786969968697  0.46068235129884266  0.3028351524913333  1.0000
  N   N4        1.0  0.3452213159353974  0.5393151143651238  0.6971643342157563  1.0000
  N   N5        1.0  0.5045633219602692  0.4492179346998741  0.2784226965701108  1.0000
  N   N6        1.0  0.49544394542768805  0.5507836144274093  0.7215732630089562  1.0000
  N   N7        1.0  0.4137800051117254  0.37367418687454557  0.3408954154867629  1.0000
  N   N8        1.0  0.5862123066561155  0.6263161287015182  0.659097456367391  1.0000
  O   O1        1.0  0.41030484958287167  0.5762684202347117  0.1423694152398625  1.0000
  O   O2        1.0  0.5896978692080809  0.42372911654786805  0.8576314439955084  1.0000
  O   O3        1.0  0.9026970107440565  0.3584562427101688  0.9471538197232903  1.0000
  O   O4        1.0  0.09729038708939439  0.64153287137718  0.052838003643166986  1.0000
  O   O5        1.0  0.015805581955703484  0.19618271957514824  0.9874198200136348  1.0000
  O   O6        1.0  0.9841755401171641  0.8038211561477768  0.012580142500247929  1.0000
  O   O7        1.0  0.1509706656707763  0.4058169517382737  0.8213800540760872  1.0000
  O   O8        1.0  0.8490246165016373  0.5941958340562792  0.1786212043135436  1.0000
  O   O9        1.0  0.6317521361688494  0.6982604811269939  0.01947542881297439  1.0000
  O   O10       1.0  0.3682416740599734  0.3017332451714836  0.9805333039799392  1.0000
  O   O11       1.0  0.1541863444374343  0.3544844492278969  0.17781064519488152  1.0000
  O   O12       1.0  0.8458158090663518  0.645504914848182  0.8221832372338866  1.0000
  O   O13       1.0  0.3809437927367157  0.6386869409625434  0.9434526045359347  1.0000
  O   O14       1.0  0.6190408890921618  0.3613037278695758  0.056545471645385696  1.0000
  O   O15       1.0  0.3751901132852993  0.024243230021930587  0.7345183259006021  1.0000
  O   O16       1.0  0.6248111779113329  0.975750459126985  0.26547515586448606  1.0000
