data_image0
_chemical_formula_structural       Zn2H24C28S4N4O8
_chemical_formula_sum              "Zn2 H24 C28 S4 N4 O8"
_cell_length_a       8.388046912835591
_cell_length_b       8.534547236598828
_cell_length_c       13.525133700116678
_cell_angle_alpha    75.24050694326982
_cell_angle_beta     71.9169534853074
_cell_angle_gamma    60.546778902366896

_space_group_name_H-M_alt    "P 1"
_space_group_IT_number       1

loop_
  _space_group_symop_operation_xyz
  'x, y, z'

loop_
  _atom_site_type_symbol
  _atom_site_label
  _atom_site_symmetry_multiplicity
  _atom_site_fract_x
  _atom_site_fract_y
  _atom_site_fract_z
  _atom_site_occupancy
  Zn  Zn1       1.0  0.9362240024686203  0.2500850721943664  0.7500205389596318  1.0000
  Zn  Zn2       1.0  0.06377618119251588  0.7499147104934424  0.2499801210242083  1.0000
  H   H1        1.0  0.5343142235244828  0.7674100839560866  0.7027720689085015  1.0000
  H   H2        1.0  0.9951099141466244  0.26755179669508067  0.202935677614434  1.0000
  H   H3        1.0  0.4656891355720204  0.23258562375193037  0.2972300994242758  1.0000
  H   H4        1.0  0.004891010094482422  0.732447989983413  0.7970642432861155  1.0000
  H   H5        1.0  0.5330469125083683  0.8173888598681812  0.5670182198521729  1.0000
  H   H6        1.0  0.0822745062134018  0.3173587069948455  0.06714135910050349  1.0000
  H   H7        1.0  0.46695390218902594  0.18260956684444815  0.4329825343925505  1.0000
  H   H8        1.0  0.9177274092269341  0.6826383732557774  0.9328577679970209  1.0000
  H   H9        1.0  0.31286586220291923  0.9281375455779682  0.4798263645296358  1.0000
  H   H10       1.0  0.27890145015204165  0.427817334452655  0.9799448206055529  1.0000
  H   H11       1.0  0.6871360734914657  0.0718622395687376  0.5201737996124081  1.0000
  H   H12       1.0  0.7210963301855173  0.5721810968553314  0.020055203914679992  1.0000
  H   H13       1.0  0.19599617821845786  0.9516366515125796  0.32805579710720423  1.0000
  H   H14       1.0  0.5240269815900762  0.4514840891099183  0.828133407913974  1.0000
  H   H15       1.0  0.8040053770589213  0.04836177919074199  0.6719442180542289  1.0000
  H   H16       1.0  0.4759707987474755  0.5485143421980678  0.171866616606259  1.0000
  H   H17       1.0  0.1357332778416378  0.48009051788848467  0.44184706710743177  1.0000
  H   H18       1.0  0.9425279943214168  0.9804003535981777  0.9419519055898178  1.0000
  H   H19       1.0  0.8642652633299479  0.5199106223062769  0.5581532553740232  1.0000
  H   H20       1.0  0.057470927267189637  0.019602141039975197  0.0580485658722552  1.0000
  H   H21       1.0  0.24180212106914917  0.43653017705636193  0.601888040447939  1.0000
  H   H22       1.0  0.720036431267211  0.9365979900334338  0.1020588261712802  1.0000
  H   H23       1.0  0.7582004456615011  0.5634682521151719  0.3981122179549885  1.0000
  H   H24       1.0  0.2799635017746666  0.06340450307293112  0.8979418885322873  1.0000
  C   C1        1.0  0.2858727500270462  0.0021428459462385003  0.6663212907214273  1.0000
  C   C2        1.0  0.04559998556541706  0.502050468921901  0.16635440669079318  1.0000
  C   C3        1.0  0.7141260417637839  0.9978555838299596  0.3336789770403072  1.0000
  C   C4        1.0  0.9543990253128458  0.49795068078602617  0.8336441943825789  1.0000
  C   C5        1.0  0.4451232286812257  0.8132157067934075  0.6461261185605167  1.0000
  C   C6        1.0  0.09527598791722616  0.3131626355380136  0.14623780484063786  1.0000
  C   C7        1.0  0.5548774764724556  0.1867813599533648  0.35387546902838096  1.0000
  C   C8        1.0  0.9047226627980722  0.6868398646226126  0.853761684296643  1.0000
  C   C9        1.0  0.28592263398126505  0.6803962738152052  0.5562960475481445  1.0000
  C   C10       1.0  0.47733906217249006  0.18017849928637736  0.056416050577041674  1.0000
  C   C11       1.0  0.7140769186436059  0.3196048648477756  0.4437045181748119  1.0000
  C   C12       1.0  0.5226604904523741  0.8198226393765965  0.9435845151459078  1.0000
  C   C13       1.0  0.27253405849291573  0.8265016731014398  0.47675928877581697  1.0000
  C   C14       1.0  0.42400945170413007  0.3262062667205114  0.976851412641885  1.0000
  C   C15       1.0  0.7274653845882352  0.17349810559567663  0.5232421102913135  1.0000
  C   C16       1.0  0.5759879684704643  0.6737935150401739  0.023149499942256558  1.0000
  C   C17       1.0  0.2079207469081722  0.8398404366202287  0.3908408103037502  1.0000
  C   C18       1.0  0.5612133463873266  0.33967404626928743  0.8909085618463948  1.0000
  C   C19       1.0  0.7920790765899923  0.16016069652027204  0.6091607377439914  1.0000
  C   C20       1.0  0.43878418333097347  0.6603270954572623  0.10909151739356554  1.0000
  C   C21       1.0  0.17207558962711997  0.5781681708574665  0.45508934204965357  1.0000
  C   C22       1.0  0.7947545619096273  0.07831231271173782  0.9552296892584805  1.0000
  C   C23       1.0  0.8279252250702739  0.42183025585516276  0.54491141219507  1.0000
  C   C24       1.0  0.20524499071523644  0.9216888259512431  0.04477087646447585  1.0000
  C   C25       1.0  0.23209674944421013  0.554819372980795  0.5444645033280224  1.0000
  C   C26       1.0  0.6687806795972123  0.0548406047621128  0.0446254384192599  1.0000
  C   C27       1.0  0.7679068287397258  0.44517905465895063  0.4555359983164067  1.0000
  C   C28       1.0  0.3312181324476742  0.9451605299101757  0.955375866386987  1.0000
  S   S1        1.0  0.36959657538810836  0.6402256204749078  0.6671915399922526  1.0000
  S   S2        1.0  0.32279961202575447  0.1400020019714461  0.16728569449568204  1.0000
  S   S3        1.0  0.6304043488529985  0.3597741662035858  0.33280838090828974  1.0000
  S   S4        1.0  0.6771992893087956  0.8599977877706168  0.8327137399218713  1.0000
  N   N1        1.0  0.15893407319629935  0.7186043503059878  0.3786759368013151  1.0000
  N   N2        1.0  0.7437277892350596  0.21864149043484818  0.8787705629705799  1.0000
  N   N3        1.0  0.8410654794285718  0.28139678835698595  0.6213246289216413  1.0000
  N   N4        1.0  0.25626974048324785  0.7813596512917014  0.12122951626938061  1.0000
  O   O1        1.0  0.15228909086719275  0.007577984365042299  0.7477758097570018  1.0000
  O   O2        1.0  0.0925865658871032  0.507415542799265  0.24769063686850495  1.0000
  O   O3        1.0  0.8477089603436598  0.9924204414204707  0.25222519708801633  1.0000
  O   O4        1.0  0.9074136755318707  0.4925883253086027  0.7523065407580205  1.0000
  O   O5        1.0  0.2936276547224709  0.1368562530728141  0.6056418124272865  1.0000
  O   O6        1.0  0.9635952509836085  0.6368245192542472  0.1057720108262145  1.0000
  O   O7        1.0  0.7063728891016225  0.8631421791622884  0.3943579594926446  1.0000
  O   O8        1.0  0.036404500474631556  0.363176634444372  0.894225851163867  1.0000
