data_image0
_chemical_formula_structural       Zn2H20C22N2O12
_chemical_formula_sum              "Zn2 H20 C22 N2 O12"
_cell_length_a       9.5595634712986
_cell_length_b       11.195731968489934
_cell_length_c       10.993887796312922
_cell_angle_alpha    87.07875495373312
_cell_angle_beta     91.26813957566547
_cell_angle_gamma    89.7543573904896

_space_group_name_H-M_alt    "P 1"
_space_group_IT_number       1

loop_
  _space_group_symop_operation_xyz
  'x, y, z'

loop_
  _atom_site_type_symbol
  _atom_site_label
  _atom_site_symmetry_multiplicity
  _atom_site_fract_x
  _atom_site_fract_y
  _atom_site_fract_z
  _atom_site_occupancy
  Zn  Zn1       1.0  0.6462913956876974  0.4966741772535245  0.5063563187623926  1.0000
  Zn  Zn2       1.0  0.36324523064417497  0.5066235543222176  0.49741125638681183  1.0000
  H   H1        1.0  0.28658478982968927  0.5316114578058233  0.8819457011433869  1.0000
  H   H2        1.0  0.2881723428220085  0.5376685806419205  0.1106231075824695  1.0000
  H   H3        1.0  0.728572601817703  0.4626141549098008  0.12298510717337048  1.0000
  H   H4        1.0  0.7289742325066799  0.46377268267751504  0.8941032793657087  1.0000
  H   H5        1.0  0.1365610270214077  0.38097535207278815  0.36245927743036777  1.0000
  H   H6        1.0  0.142973659281715  0.6108719142803665  0.6466003870504693  1.0000
  H   H7        1.0  0.8674230628501081  0.3788597888380282  0.36511330775812917  1.0000
  H   H8        1.0  0.8745558103828586  0.603700144474935  0.6535624396683701  1.0000
  H   H9        1.0  0.262404984277616  0.9998306972218458  0.21443002542574874  1.0000
  H   H10       1.0  0.4376402168795154  0.05095227030930259  0.19842266720034019  1.0000
  H   H11       1.0  0.35006108326656005  0.25286616847159143  0.12022172901781399  1.0000
  H   H12       1.0  0.2805347012334565  0.13868481947199032  0.029798104460532205  1.0000
  H   H13       1.0  0.17380147975563892  0.20473394050836186  0.1388804688933476  1.0000
  H   H14       1.0  0.11455408259647734  0.0298837683474957  0.402867757157658  1.0000
  H   H15       1.0  0.18610495367955338  0.010818932491943696  0.5535929981017631  1.0000
  H   H16       1.0  0.06314330970710101  0.8171629289959766  0.5851855794728777  1.0000
  H   H17       1.0  0.9384622401566463  0.9275853023898011  0.5303874315746882  1.0000
  H   H18       1.0  0.005211561155995498  0.8227172947666832  0.42966018733392264  1.0000
  H   H19       1.0  0.6310718519657926  0.14616705505707023  0.617196012516864  1.0000
  H   H20       1.0  0.698837335132666  0.8334994134982876  0.4323752223217597  1.0000
  C   C1        1.0  0.5084686852738542  0.4980148193812113  0.7391192023720593  1.0000
  C   C2        1.0  0.5072482900945374  0.5025812104479997  0.26534142061937155  1.0000
  C   C3        1.0  0.5038101228104639  0.7343478405612984  0.47833184414684377  1.0000
  C   C4        1.0  0.4944409302949283  0.26870815161332473  0.4974097533769778  1.0000
  C   C5        1.0  0.4091515315889609  0.0706944853980005  0.4216894446489903  1.0000
  C   C6        1.0  0.3960565256017859  0.9404999219884476  0.43534057850207114  1.0000
  C   C7        1.0  0.490616971133534  0.1356669817200356  0.49756828407486614  1.0000
  C   C8        1.0  0.508456515238976  0.8637801731899446  0.44499669639634487  1.0000
  C   C9        1.0  0.3829979300905678  0.5176211839800544  0.9356394878667231  1.0000
  C   C10       1.0  0.3835112289392129  0.5200966985779657  0.0619552959421412  1.0000
  C   C11       1.0  0.5082587711287588  0.5001043365312369  0.1295379441260778  1.0000
  C   C12       1.0  0.5079117361757072  0.49797489282250507  0.8751400490937087  1.0000
  C   C13       1.0  0.6326761348255234  0.4784706346303622  0.06914468414043991  1.0000
  C   C14       1.0  0.6328296017726487  0.47888480202887246  0.9426419611223623  1.0000
  C   C15       1.0  0.07622812133866572  0.43175906335776654  0.42538459531265  1.0000
  C   C16       1.0  0.07984833334678852  0.5590213042778346  0.5848639958202426  1.0000
  C   C17       1.0  0.930772944905492  0.4293275455028081  0.4279546846042522  1.0000
  C   C18       1.0  0.9345317152636029  0.5554942069965847  0.5883617916228729  1.0000
  C   C19       1.0  0.32965249714552414  0.07963277498657818  0.21511936634502854  1.0000
  C   C20       1.0  0.28074121554205794  0.1749174648828884  0.1208799631983055  1.0000
  C   C21       1.0  0.14936642700470767  0.9628407262505834  0.47405612797072644  1.0000
  C   C22       1.0  0.032327000864491105  0.8772154949288125  0.5070643122954479  1.0000
  N   N1        1.0  0.8616780492157904  0.4917129876379036  0.5088919798092562  1.0000
  N   N2        1.0  0.148760280920385  0.49799251258207283  0.5029465496290371  1.0000
  O   O1        1.0  0.6259931644187234  0.5151999107947703  0.6882457384907922  1.0000
  O   O2        1.0  0.6204478329866066  0.47302182759281663  0.3237997383896882  1.0000
  O   O3        1.0  0.39225931545583154  0.4808090443795193  0.683969097711234  1.0000
  O   O4        1.0  0.3935946799041973  0.5339941440987773  0.3127307348010433  1.0000
  O   O5        1.0  0.6232335508560285  0.6805890536730247  0.47147850444019923  1.0000
  O   O6        1.0  0.6093686036083099  0.31190593708161163  0.538590468250483  1.0000
  O   O7        1.0  0.3912095431445622  0.6843354670348846  0.5128581010197877  1.0000
  O   O8        1.0  0.38572086463246796  0.32861165939795  0.465453020187539  1.0000
  O   O9        1.0  0.325271894061288  0.13038702332537608  0.3340029915772504  1.0000
  O   O10       1.0  0.26356128621027614  0.8936857030612371  0.4289218499416876  1.0000
  O   O11       1.0  0.5742182287362071  0.0808043154673896  0.5862556224376192  1.0000
  O   O12       1.0  0.6400024289827401  0.9059699423073015  0.4208965778036102  1.0000
