data_image0
_chemical_formula_structural       Mn4H12C16O16
_chemical_formula_sum              "Mn4 H12 C16 O16"
_cell_length_a       6.266886220603699
_cell_length_b       7.5314526143920055
_cell_length_c       9.309789329013928
_cell_angle_alpha    89.99980491271243
_cell_angle_beta     90.0000369898209
_cell_angle_gamma    92.98520805976385

_space_group_name_H-M_alt    "P 1"
_space_group_IT_number       1

loop_
  _space_group_symop_operation_xyz
  'x, y, z'

loop_
  _atom_site_type_symbol
  _atom_site_label
  _atom_site_symmetry_multiplicity
  _atom_site_fract_x
  _atom_site_fract_y
  _atom_site_fract_z
  _atom_site_occupancy
  Mn  Mn1       1.0  0.46017124803152837  0.3797929521819939  0.6541583063940877  1.0000
  Mn  Mn2       1.0  0.039830090624533895  0.6202055819922664  0.15415839289791924  1.0000
  Mn  Mn3       1.0  0.5398298687891697  0.6202068972024009  0.3458427456172614  1.0000
  Mn  Mn4       1.0  0.9601676327473426  0.3797916399840062  0.8458415849781813  1.0000
  H   H1        1.0  0.01137817846746  0.0477139476450148  0.23786031394901394  1.0000
  H   H2        1.0  0.4886217315818726  0.9522855805370727  0.7378651144674817  1.0000
  H   H3        1.0  0.9886261275301675  0.9522858702094653  0.7621353673722095  1.0000
  H   H4        1.0  0.5113715144277363  0.04771567716705499  0.26214023409299597  1.0000
  H   H5        1.0  0.6128955640823007  0.24144786851059047  0.4045814507826363  1.0000
  H   H6        1.0  0.8871037811182773  0.7585530653763612  0.9045813706059317  1.0000
  H   H7        1.0  0.38710735159691717  0.7585546240570338  0.5954185270872896  1.0000
  H   H8        1.0  0.11289424865815788  0.24144814502500375  0.09541968140292309  1.0000
  H   H9        1.0  0.6929669861520863  0.11671561218140881  0.529259002694843  1.0000
  H   H10       1.0  0.8070366522587663  0.8832841903635612  0.02925847613922629  1.0000
  H   H11       1.0  0.3070373198471755  0.8832842056640546  0.47074097517903357  1.0000
  H   H12       1.0  0.19296307424146864  0.1167183337452471  0.9707415017300177  1.0000
  C   C1        1.0  0.08539981533526489  0.1649569516719467  0.44443734543686003  1.0000
  C   C2        1.0  0.4146019490100556  0.8350430233871363  0.9444392149839229  1.0000
  C   C3        1.0  0.9146027939389755  0.8350415524728305  0.5555604841621502  1.0000
  C   C4        1.0  0.5853974710872478  0.16495551228756264  0.05556398530520569  1.0000
  C   C5        1.0  0.07832780593903269  0.13737774840542025  0.5964515627925238  1.0000
  C   C6        1.0  0.4216718941118244  0.8626210436770948  0.09645650994125528  1.0000
  C   C7        1.0  0.9216780946484987  0.862622053676212  0.4035451926672095  1.0000
  C   C8        1.0  0.5783259313964065  0.13737750776594032  0.9035477644856938  1.0000
  C   C9        1.0  0.007675787005481999  0.027375261095720308  0.35357187459565853  1.0000
  C   C10       1.0  0.49232251458212767  0.9726224678347892  0.8535766208615384  1.0000
  C   C11       1.0  0.9923267201336328  0.9726219135755301  0.6464248808669877  1.0000
  C   C12       1.0  0.507673920604823  0.02737875833717141  0.14642443114697554  1.0000
  C   C13       1.0  0.16757661713081964  0.3353872046109744  0.37863542465193933  1.0000
  C   C14       1.0  0.33241851439854736  0.6646104506744024  0.8786473953856199  1.0000
  C   C15       1.0  0.8324229050971111  0.6646126605620426  0.6213570342537621  1.0000
  C   C16       1.0  0.6675810078334834  0.3353894144760829  0.12135580490170379  1.0000
  O   O1        1.0  0.1192437165888833  0.3679062551778928  0.24800298357558145  1.0000
  O   O2        1.0  0.3807562011953535  0.6320932304532433  0.7480032474808239  1.0000
  O   O3        1.0  0.8807526164629349  0.6320936415205339  0.7519969942965756  1.0000
  O   O4        1.0  0.6192434231709854  0.3679079641752736  0.2519988786665407  1.0000
  O   O5        1.0  0.2848511357802508  0.4469433026613744  0.4521987216471571  1.0000
  O   O6        1.0  0.2151490398952518  0.5530566556032285  0.9521991352166167  1.0000
  O   O7        1.0  0.7151499810400351  0.5530565467252799  0.5478012562260304  1.0000
  O   O8        1.0  0.7848472931565664  0.4469432410951982  0.04780084265553339  1.0000
  O   O9        1.0  0.14978116165108446  0.2610526764254786  0.6913407729814978  1.0000
  O   O10       1.0  0.3502187129129979  0.7389470469667573  0.19134280782794374  1.0000
  O   O11       1.0  0.8502199551687895  0.7389471729634279  0.3086581307535211  1.0000
  O   O12       1.0  0.6497775180057346  0.26105152024687334  0.8086614665986572  1.0000
  O   O13       1.0  0.5739561019349252  0.18600160545717873  0.49861372189369024  1.0000
  O   O14       1.0  0.9260450117161838  0.8140002475566914  0.9986145796167204  1.0000
  O   O15       1.0  0.4260484083337842  0.8140008713398501  0.5013862559765839  1.0000
  O   O16       1.0  0.07395291592553119  0.185999633368894  0.0013864723939391995  1.0000
