data_image0
_chemical_formula_structural       Zn16H16C96S16Br8N8O68
_chemical_formula_sum              "Zn16 H16 C96 S16 Br8 N8 O68"
_cell_length_a       19.63789250317858
_cell_length_b       19.697874373633418
_cell_length_c       33.28160305566205
_cell_angle_alpha    79.18811985305075
_cell_angle_beta     79.36833094448002
_cell_angle_gamma    64.02893209993303

_space_group_name_H-M_alt    "P 1"
_space_group_IT_number       1

loop_
  _space_group_symop_operation_xyz
  'x, y, z'

loop_
  _atom_site_type_symbol
  _atom_site_label
  _atom_site_symmetry_multiplicity
  _atom_site_fract_x
  _atom_site_fract_y
  _atom_site_fract_z
  _atom_site_occupancy
  Zn  Zn1       1.0  0.05822840586387912  0.4000599562706028  0.47805666347084497  1.0000
  Zn  Zn2       1.0  0.9839624986255374  0.48372639243678606  0.5599936680925949  1.0000
  Zn  Zn3       1.0  0.0590319651534799  0.5610067254039636  0.48186156343962233  1.0000
  Zn  Zn4       1.0  0.8993600030429079  0.553998788365419  0.4801825358231682  1.0000
  Zn  Zn5       1.0  0.6939618186975381  0.35113692105899447  0.27008800908259184  1.0000
  Zn  Zn6       1.0  0.6896843881190051  0.1894514037703345  0.26742680770308164  1.0000
  Zn  Zn7       1.0  0.7680312426059146  0.26753247754373183  0.18967329924079476  1.0000
  Zn  Zn8       1.0  0.8466290468949467  0.19276041619892959  0.27310755913308776  1.0000
  Zn  Zn9       1.0  0.2663123466788734  0.7683905878851932  0.6894598489122287  1.0000
  Zn  Zn10      1.0  0.3492386086618993  0.6954573816172172  0.7716130710566844  1.0000
  Zn  Zn11      1.0  0.19265307473036591  0.8493461776532029  0.7709433940638704  1.0000
  Zn  Zn12      1.0  0.1937633721135015  0.686145031392499  0.7676799047901212  1.0000
  Zn  Zn13      1.0  0.5622268382154375  0.05875449979399143  0.9824519180021978  1.0000
  Zn  Zn14      1.0  0.39985756095332187  0.055844761882489956  0.9790988943738624  1.0000
  Zn  Zn15      1.0  0.5575284915406656  0.9022608437877219  0.9778086486421599  1.0000
  Zn  Zn16      1.0  0.48068019716715327  0.9835617090718646  0.060292822060560455  1.0000
  H   H1        1.0  0.7484530857858332  0.4521041930543106  0.3501055870781683  1.0000
  H   H2        1.0  0.0015243688695818  0.2970200498353037  0.40017668182783683  1.0000
  H   H3        1.0  0.2017081047913223  0.7006447050291627  0.5986432893189074  1.0000
  H   H4        1.0  0.049890909142881405  0.5497221422385223  0.6504686311564498  1.0000
  H   H5        1.0  0.4635903120990718  0.24093305740468215  0.34007565677542567  1.0000
  H   H6        1.0  0.4791268096708167  0.7036258656146326  0.6008537877037553  1.0000
  H   H7        1.0  0.20273977261616244  0.9801915016374565  0.6006562342144405  1.0000
  H   H8        1.0  0.9473603189806711  0.9692867143657082  0.34950806163934783  1.0000
  H   H9        1.0  0.6512707508765843  0.15109182116170686  0.04912042170475666  1.0000
  H   H10       1.0  0.5990636441273339  0.09861170293451942  0.20073225160884786  1.0000
  H   H11       1.0  0.5503070646292159  0.7718893676825119  0.1480165857339344  1.0000
  H   H12       1.0  0.1598655304796992  0.14083296270446508  0.04084873387145651  1.0000
  H   H13       1.0  0.2967144741621937  0.002028755518232103  0.8999738522414447  1.0000
  H   H14       1.0  0.4513944464352733  0.7496952267556052  0.8504528826867171  1.0000
  H   H15       1.0  0.30099433621288085  0.28003908238098774  0.9018886287254586  1.0000
  H   H16       1.0  0.7911844522678777  0.008276143683708947  0.9092467053476694  1.0000
  C   C1        1.0  0.06308459028860372  0.3170085370981042  0.5616216622471127  1.0000
  C   C2        1.0  0.0694833224327027  0.5693958283363328  0.5685265347119638  1.0000
  C   C3        1.0  0.18428524016398742  0.4395073126146303  0.4377885839216232  1.0000
  C   C4        1.0  0.9357896478534826  0.682869721848384  0.43929575479084076  1.0000
  C   C5        1.0  0.931258268788369  0.4286713533877276  0.43209533247362947  1.0000
  C   C6        1.0  0.8164179641454864  0.5603294647399651  0.5630010797243656  1.0000
  C   C7        1.0  0.5665967467002418  0.31159325710299157  0.31122736145716345  1.0000
  C   C8        1.0  0.6798561267795834  0.18171264152818611  0.18131235484258917  1.0000
  C   C9        1.0  0.6897951116802973  0.43497704855015223  0.1872493845308441  1.0000
  C   C10       1.0  0.9334441959224762  0.18808273803797698  0.19030570538666322  1.0000
  C   C11       1.0  0.8173739670995063  0.31911193518447317  0.3195513930449608  1.0000
  C   C12       1.0  0.8107917541213467  0.06427936524736579  0.312016137407042  1.0000
  C   C13       1.0  0.4330535502301204  0.6904922766411591  0.6880347805530035  1.0000
  C   C14       1.0  0.3192094715029015  0.8199115191660697  0.8184644317736127  1.0000
  C   C15       1.0  0.1873569068948839  0.9344383417827089  0.6876221154224709  1.0000
  C   C16       1.0  0.06777610564272152  0.8083489459980767  0.810780271585436  1.0000
  C   C17       1.0  0.18336716433786654  0.6796665953932148  0.6806423608550317  1.0000
  C   C18       1.0  0.3151396655481876  0.5651105721447321  0.8121310418732364  1.0000
  C   C19       1.0  0.4386109651948615  0.182846615622644  0.938548363237821  1.0000
  C   C20       1.0  0.43009280849693715  0.9330163478091509  0.9307113706541371  1.0000
  C   C21       1.0  0.6868131834802398  0.9386891091319927  0.9384531436543353  1.0000
  C   C22       1.0  0.5600686670521284  0.8175438619313768  0.06097324303819103  1.0000
  C   C23       1.0  0.5685530735321508  0.06998024223823748  0.06851565304161505  1.0000
  C   C24       1.0  0.31350634258085114  0.06189583183702747  0.061555886123045384  1.0000
  C   C25       1.0  0.901888027681409  0.4027025404493045  0.4020920796607114  1.0000
  C   C26       1.0  0.8489649662098415  0.347273427652702  0.34735358309846004  1.0000
  C   C27       1.0  0.8309394277496552  0.4459517873917918  0.3871963214966668  1.0000
  C   C28       1.0  0.9206483197342195  0.3047795516843549  0.3614949585783973  1.0000
  C   C29       1.0  0.8042508585086524  0.41859099023047  0.36086621738779456  1.0000
  C   C30       1.0  0.9463540118150464  0.3311453781973698  0.38880609030519503  1.0000
  C   C31       1.0  0.09772309895498671  0.6001186123420936  0.5966887893972553  1.0000
  C   C32       1.0  0.1516181627673063  0.65248798346515  0.6524376740300325  1.0000
  C   C33       1.0  0.14004033863028553  0.6435067337339787  0.5826893592884941  1.0000
  C   C34       1.0  0.1079205043624683  0.610494911311278  0.6664214077028134  1.0000
  C   C35       1.0  0.16765810270755574  0.6682249776465597  0.60986867926524  1.0000
  C   C36       1.0  0.0825096924074558  0.5835832007375715  0.6392544217100563  1.0000
  C   C37       1.0  0.3057790641457814  0.4549293473416969  0.4009643013538166  1.0000
  C   C38       1.0  0.4468922788573622  0.2973298121651384  0.3484303707340927  1.0000
  C   C39       1.0  0.2593183407125608  0.4161357824998718  0.41336649035041967  1.0000
  C   C40       1.0  0.4920835863376852  0.33700051258091435  0.3363854871572797  1.0000
  C   C41       1.0  0.3789423390631015  0.3401351785995672  0.3721505476291255  1.0000
  C   C42       1.0  0.37405224572772516  0.41154988752147387  0.3775105751625957  1.0000
  C   C43       1.0  0.725275856937273  0.57583512815971  0.6310700081324682  1.0000
  C   C44       1.0  0.5236526952839996  0.6747824217061975  0.6211376716639946  1.0000
  C   C45       1.0  0.7424554706677142  0.58509012534131  0.5884848030975789  1.0000
  C   C46       1.0  0.5081700444892051  0.6651077582513807  0.6635842571329603  1.0000
  C   C47       1.0  0.6030429915135685  0.6425991740927728  0.6091444436527665  1.0000
  C   C48       1.0  0.6458555945251945  0.6088380958795199  0.6429149808218922  1.0000
  C   C49       1.0  0.07600199953864012  0.2261094631210412  0.6297995721336915  1.0000
  C   C50       1.0  0.17323949453864884  0.02477477798701238  0.6206716174154252  1.0000
  C   C51       1.0  0.08604809156565811  0.24310247698630147  0.5871903351500548  1.0000
  C   C52       1.0  0.1623744775621248  0.009529535603711302  0.6631115422056338  1.0000
  C   C53       1.0  0.14119645566854896  0.10392193679377473  0.6083834025378394  1.0000
  C   C54       1.0  0.107150337580407  0.146821546599142  0.6419227865459048  1.0000
  C   C55       1.0  0.8413820042511944  0.799409988255768  0.3970601873490551  1.0000
  C   C56       1.0  0.9031273547832372  0.9486680985825513  0.35361770730074227  1.0000
  C   C57       1.0  0.9093901948263153  0.7574147805020388  0.4144163854565192  1.0000
  C   C58       1.0  0.83485172362861  0.9895106873042964  0.3368789878353411  1.0000
  C   C59       1.0  0.9055391822592115  0.8793146269051135  0.3758325577947302  1.0000
  C   C60       1.0  0.8390339848190963  0.8690090500510335  0.37519431857074886  1.0000
  C   C61       1.0  0.6538063303254518  0.1515945363427065  0.1517115339423114  1.0000
  C   C62       1.0  0.5986460370033982  0.09601050636737796  0.0981455142650418  1.0000
  C   C63       1.0  0.6687817031376609  0.16486318265713634  0.10877911426418047  1.0000
  C   C64       1.0  0.5854041603622804  0.08103755364223275  0.14108474753994224  1.0000
  C   C65       1.0  0.6407634757687788  0.13891521112941524  0.0824057975432808  1.0000
  C   C66       1.0  0.6111298784655972  0.10925027298213758  0.16744748809801982  1.0000
  C   C67       1.0  0.6723911380609877  0.5256189194287444  0.11886614127418932  1.0000
  C   C68       1.0  0.5773785004814728  0.7271941420002503  0.12796415129946584  1.0000
  C   C69       1.0  0.6649842038694019  0.5088074251629635  0.16157978473776066  1.0000
  C   C70       1.0  0.5852804750786333  0.7423819673354756  0.0854264335085162  1.0000
  C   C71       1.0  0.6089791727633199  0.6480356246734471  0.1402539659925139  1.0000
  C   C72       1.0  0.6404133894097086  0.6049492299363025  0.10669465340103561  1.0000
  C   C73       1.0  0.0811701007673449  0.1244691856738172  0.17909441520092878  1.0000
  C   C74       1.0  0.16782514969297324  0.12468985825222488  0.07330417961493649  1.0000
  C   C75       1.0  0.008764636604134101  0.1623909598220692  0.16616062130372455  1.0000
  C   C76       1.0  0.2391997422937138  0.08657307559832361  0.08691618026382028  1.0000
  C   C77       1.0  0.10990077652892441  0.1383085468976972  0.10689389387184887  1.0000
  C   C78       1.0  0.13884409495813801  0.1105203518096687  0.14531865669992067  1.0000
  C   C79       1.0  0.3454110198835707  0.8491945850385535  0.8483808618130695  1.0000
  C   C80       1.0  0.40168532541522955  0.9016002300284428  0.9029660036897981  1.0000
  C   C81       1.0  0.3022826883982859  0.9198576485646086  0.8631985113690913  1.0000
  C   C82       1.0  0.44396023748193164  0.8300609234383461  0.8890316708748852  1.0000
  C   C83       1.0  0.330116684287475  0.9463661724545531  0.889377842137449  1.0000
  C   C84       1.0  0.4172705452922473  0.8046768198061043  0.8617338472413889  1.0000
  C   C85       1.0  0.409701046542871  0.4473241762814126  0.8537948730349996  1.0000
  C   C86       1.0  0.34586416746162035  0.29980531966489116  0.8976744622122225  1.0000
  C   C87       1.0  0.3412122998462621  0.49060537609750543  0.8371220331858708  1.0000
  C   C88       1.0  0.4144671954219703  0.2578599256673543  0.9139340230031505  1.0000
  C   C89       1.0  0.3438229444561713  0.3692517447970759  0.8758051108694501  1.0000
  C   C90       1.0  0.41122864097462747  0.3782070327225355  0.8759414832820198  1.0000
  C   C91       1.0  0.9463616500759714  0.7935423567841867  0.84846864034413  1.0000
  C   C92       1.0  0.8073250636386649  0.9517562538613192  0.901238532333778  1.0000
  C   C93       1.0  0.9934188211282732  0.8316676412796583  0.8358306104101628  1.0000
  C   C94       1.0  0.7615971104886725  0.9126839391865429  0.9135952336696674  1.0000
  C   C95       1.0  0.875091759275577  0.9081814489834625  0.8776465076216268  1.0000
  C   C96       1.0  0.8789610593251993  0.837055826035723  0.8724339118099066  1.0000
  S   S1        1.0  0.2996389777372883  0.32654945310065403  0.3964054198051911  1.0000
  S   S2        1.0  0.4528545751956941  0.42600504390114924  0.3536670795744925  1.0000
  S   S3        1.0  0.66112010811149  0.6341257345161466  0.5630376687544397  1.0000
  S   S4        1.0  0.5890335432816374  0.617197335546663  0.6892466139013321  1.0000
  S   S5        1.0  0.13355700146669852  0.16169923576356382  0.562108715949243  1.0000
  S   S6        1.0  0.11372841605302852  0.09030216103060695  0.6883970416329461  1.0000
  S   S7        1.0  0.9701919237521892  0.8034543754781893  0.40388520841489844  1.0000
  S   S8        1.0  0.7734115733922664  0.9444886669879152  0.34775262040911775  1.0000
  S   S9        1.0  0.6185309999906607  0.5903782359872735  0.18662440724598636  1.0000
  S   S10       1.0  0.6307588553792486  0.6613924691720995  0.06010858258510861  1.0000
  S   S11       1.0  0.011644118833210402  0.18072344592678038  0.11264086539880938  1.0000
  S   S12       1.0  0.2367806144813329  0.06719942054737521  0.14026300912369288  1.0000
  S   S13       1.0  0.2788187879509891  0.4463901631661713  0.8486421317206378  1.0000
  S   S14       1.0  0.4767414338933165  0.3019407313221977  0.903015528563422  1.0000
  S   S15       1.0  0.9549442448584459  0.9206703491801564  0.8533687494653319  1.0000
  S   S16       1.0  0.7999934686449067  0.8233612759811566  0.8967402299685076  1.0000
  Br  Br1       1.0  0.2862135943648667  0.5515336331915036  0.4130833766026213  1.0000
  Br  Br2       1.0  0.7944158505867237  0.5268627818292018  0.6704315828093285  1.0000
  Br  Br3       1.0  0.027495196925599406  0.29525056088975526  0.6688865723990743  1.0000
  Br  Br4       1.0  0.7601940646234056  0.7718582936348072  0.4004593140251274  1.0000
  Br  Br5       1.0  0.7165831968186822  0.4560043138993991  0.0799387835229126  1.0000
  Br  Br6       1.0  0.1049274116761154  0.09361847536343504  0.23351622350656237  1.0000
  Br  Br7       1.0  0.4928369562255597  0.4724749699537938  0.8493280644398451  1.0000
  Br  Br8       1.0  0.9649917731026038  0.697095180461453  0.836609407111666  1.0000
  N   N1        1.0  0.7810200465297613  0.5242141197831174  0.3973520881150705  1.0000
  N   N2        1.0  0.9746105096510082  0.2305948777944379  0.34726270429298006  1.0000
  N   N3        1.0  0.1556985682856862  0.6680041056989552  0.5383343056250639  1.0000
  N   N4        1.0  0.08380762789175832  0.5942088358599946  0.7107393739658291  1.0000
  N   N5        1.0  0.7170452883036306  0.20523811609669446  0.08881438518604767  1.0000
  N   N6        1.0  0.5452900783764036  0.03261693852683584  0.16112782166857187  1.0000
  N   N7        1.0  0.22378249855668741  0.9696753801360246  0.8529402088633943  1.0000
  N   N8        1.0  0.5183486020975964  0.7761154092740981  0.9034201827764148  1.0000
  O   O1        1.0  0.0006554394996243002  0.49881159144117504  0.4996493409600688  1.0000
  O   O2        1.0  0.07433619915637733  0.31521758386760723  0.5225311261418496  1.0000
  O   O3        1.0  0.023799807642902203  0.5396209329214231  0.5855982973356005  1.0000
  O   O4        1.0  0.15261092664460557  0.5071376251630824  0.44732604638055307  1.0000
  O   O5        1.0  0.0345625333933768  0.3761494164494295  0.580231612889321  1.0000
  O   O6        1.0  0.15701317976721188  0.3892960966816546  0.44722409870423246  1.0000
  O   O7        1.0  0.0942204332205563  0.575160552036138  0.5305925326135678  1.0000
  O   O8        1.0  0.00021103759150520017  0.6601310679878978  0.45304565729205837  1.0000
  O   O9        1.0  0.8838842951541467  0.48747076984943744  0.4485419392357527  1.0000
  O   O10       1.0  0.8935256444808034  0.6470872874996372  0.44508016153535107  1.0000
  O   O11       1.0  0.0004406765543052001  0.388761005202312  0.4385295788005691  1.0000
  O   O12       1.0  0.8759541109705253  0.521481438722013  0.581242533485863  1.0000
  O   O13       1.0  0.8142276628560055  0.5802959337519765  0.5241385115856049  1.0000
  O   O14       1.0  0.7487990533034079  0.250715330549113  0.2501628669594069  1.0000
  O   O15       1.0  0.5994730595397542  0.3569192984417597  0.30464340077628543  1.0000
  O   O16       1.0  0.6692586189040456  0.15831178526578066  0.21926765980571616  1.0000
  O   O17       1.0  0.7285036966083922  0.3756322238847646  0.16916864010339333  1.0000
  O   O18       1.0  0.5915806155628048  0.2468964046117677  0.29819671458113817  1.0000
  O   O19       1.0  0.67029135176292  0.4368331183022747  0.22620681845690166  1.0000
  O   O20       1.0  0.7091519717304494  0.22819328102600878  0.16576916172646605  1.0000
  O   O21       1.0  0.8760757759346376  0.21817167993788186  0.1694778028795767  1.0000
  O   O22       1.0  0.8534330298275208  0.2493881247272469  0.3142418320690581  1.0000
  O   O23       1.0  0.9310401248940182  0.1787864389431775  0.2294217423290164  1.0000
  O   O24       1.0  0.7569486835075595  0.3674969107485282  0.30444855311737473  1.0000
  O   O25       1.0  0.7434936555412365  0.0932665475699608  0.30110328318469465  1.0000
  O   O26       1.0  0.8588762826823384  0.09380458143593272  0.30345619223648157  1.0000
  O   O27       1.0  0.2503997141987071  0.7501295003587173  0.7497265682119758  1.0000
  O   O28       1.0  0.3747026798498041  0.7214404280137077  0.668277147684094  1.0000
  O   O29       1.0  0.36053669539622757  0.7514219189357052  0.8115491250704208  1.0000
  O   O30       1.0  0.16804111771041622  0.9339400805547411  0.7265204442951044  1.0000
  O   O31       1.0  0.43327762324131674  0.6790502491508552  0.7272070520110957  1.0000
  O   O32       1.0  0.22591022856842363  0.8766443999491285  0.6680751609360128  1.0000
  O   O33       1.0  0.25912124779821266  0.8661438460747349  0.8025362352917965  1.0000
  O   O34       1.0  0.0993164170441148  0.8548539395913581  0.8056337371318419  1.0000
  O   O35       1.0  0.17916511485205433  0.6532338208945064  0.7184032160388439  1.0000
  O   O36       1.0  0.0946166524781162  0.7449889896409659  0.7962514731430088  1.0000
  O   O37       1.0  0.2124556181203587  0.7260048214119267  0.663769179035178  1.0000
  O   O38       1.0  0.36153554767997065  0.5964088059451171  0.8019240632295703  1.0000
  O   O39       1.0  0.24691508682188607  0.5922088117340323  0.8026612716939281  1.0000
  O   O40       1.0  0.49984407118998325  0.0006907394018468687  0.9998510136270296  1.0000
  O   O41       1.0  0.5039309779969727  0.15661677976594038  0.9515937625904127  1.0000
  O   O42       1.0  0.3817817576164018  0.9938234638695816  0.9452277235102213  1.0000
  O   O43       1.0  0.6563651193724526  0.891230966256039  0.9475588601093462  1.0000
  O   O44       1.0  0.3928058070585578  0.1507386990083432  0.9446693290648155  1.0000
  O   O45       1.0  0.6585779667909931  0.005874395524685425  0.9488019426087461  1.0000
  O   O46       1.0  0.49977072322147365  0.8966828011109128  0.9365873861089326  1.0000
  O   O47       1.0  0.5723092741386182  0.8179164714439155  0.021764219961149012  1.0000
  O   O48       1.0  0.5210226015485945  0.04182112139410065  0.0838876283285046  1.0000
  O   O49       1.0  0.528463999704087  0.8755082396890613  0.08078854855685345  1.0000
  O   O50       1.0  0.5930066467877994  0.07954729344970693  0.030659409189780683  1.0000
  O   O51       1.0  0.3133626040763958  0.08019448835785421  0.02260573677762779  1.0000
  O   O52       1.0  0.37215915524571136  0.023947017345307076  0.0809060990320631  1.0000
  O   O53       1.0  0.7999937804110716  0.5750512332693772  0.37920325431909424  1.0000
  O   O54       1.0  0.7226225795696807  0.5324279035452191  0.4212591195326778  1.0000
  O   O55       1.0  0.0084557665326273  0.2328487297817645  0.312239981236729  1.0000
  O   O56       1.0  0.9842655344028232  0.17337822995335023  0.372416081898649  1.0000
  O   O57       1.0  0.10219540286509242  0.7209350933033817  0.5220644088748471  1.0000
  O   O58       1.0  0.22177111352835513  0.636228697488086  0.5220975579470134  1.0000
  O   O59       1.0  0.0319475223905172  0.6476452249524627  0.7273650578520331  1.0000
  O   O60       1.0  0.11472527993912252  0.5277295632341676  0.7265896903930552  1.0000
  O   O61       1.0  0.7865798449115858  0.16824624074414618  0.0886564108829262  1.0000
  O   O62       1.0  0.6839573277633235  0.2707288154970586  0.07217935875921459  1.0000
  O   O63       1.0  0.5817496843776483  0.9633620568647319  0.16049530550917973  1.0000
  O   O64       1.0  0.480476850524269  0.06533986400662437  0.17862542236032647  1.0000
  O   O65       1.0  0.17284736562569242  0.9509952669506276  0.871341024078333  1.0000
  O   O66       1.0  0.21561229278198374  0.02754783784020279  0.8285727177693686  1.0000
  O   O67       1.0  0.5162061211538713  0.7431418996074728  0.9387169665067033  1.0000
  O   O68       1.0  0.5754726924770567  0.7659267288851126  0.878163413005339  1.0000
