data_image0
_chemical_formula_structural       Zn2H34C44N2O12
_chemical_formula_sum              "Zn2 H34 C44 N2 O12"
_cell_length_a       11.038507586392319
_cell_length_b       16.333855810345437
_cell_length_c       17.851099299257335
_cell_angle_alpha    95.95993533373718
_cell_angle_beta     90.10802153722108
_cell_angle_gamma    91.94572835344283

_space_group_name_H-M_alt    "P 1"
_space_group_IT_number       1

loop_
  _space_group_symop_operation_xyz
  'x, y, z'

loop_
  _atom_site_type_symbol
  _atom_site_label
  _atom_site_symmetry_multiplicity
  _atom_site_fract_x
  _atom_site_fract_y
  _atom_site_fract_z
  _atom_site_occupancy
  Zn  Zn1       1.0  0.4961727520636572  0.4148536316165304  0.49439163919410584  1.0000
  Zn  Zn2       1.0  0.5039634679235689  0.5842850300108394  0.5053176271377922  1.0000
  H   H1        1.0  0.3752013307476147  0.7105685358962645  0.4286218102050157  1.0000
  H   H2        1.0  0.37894810519193806  0.8619813708792774  0.4290494307927021  1.0000
  H   H3        1.0  0.6680297312524742  0.8691859059423165  0.5967091383065154  1.0000
  H   H4        1.0  0.649995834628072  0.7198808581498496  0.5870443650374783  1.0000
  H   H5        1.0  0.333438751984616  0.1299692925422135  0.4018342592940343  1.0000
  H   H6        1.0  0.6186116946685161  0.1371022824087476  0.5719572818834352  1.0000
  H   H7        1.0  0.6224357741246961  0.28877460769674457  0.5725415258146143  1.0000
  H   H8        1.0  0.35116047477022516  0.27933553842003517  0.4119203111770631  1.0000
  H   H9        1.0  0.5062555031150708  0.6194480025935644  0.263198703566367  1.0000
  H   H10       1.0  0.506600982944228  0.6120192092118372  0.12493546104951041  1.0000
  H   H11       1.0  0.49133917665825777  0.3449736615218128  0.11632295816436769  1.0000
  H   H12       1.0  0.4910036958900861  0.3561498929122635  0.2520221014603834  1.0000
  H   H13       1.0  0.5087993007513703  0.6558092873813235  0.8837607092822566  1.0000
  H   H14       1.0  0.49317085388624804  0.38869504471606575  0.874469333462848  1.0000
  H   H15       1.0  0.4939237996853123  0.38176693212286483  0.7361471894807323  1.0000
  H   H16       1.0  0.5096194074353307  0.6450704303007909  0.7481248359839725  1.0000
  H   H17       1.0  0.7806460118266331  0.5984063904592245  0.4021763555407603  1.0000
  H   H18       1.0  0.22937683440947146  0.5945679031426749  0.40013802847941804  1.0000
  H   H19       1.0  0.6563838667076212  0.9687058518252909  0.5951262467714714  1.0000
  H   H20       1.0  0.3429263867247059  0.030455385643953996  0.4047323797364157  1.0000
  H   H21       1.0  0.49047871538935084  0.35230118154855455  0.027843778359851995  1.0000
  H   H22       1.0  0.5096221762399792  0.6481672013060232  0.9718683216815905  1.0000
  H   H23       1.0  0.0926378741428309  0.41680487641959013  0.6610124257851098  1.0000
  H   H24       1.0  0.22282394518077098  0.408417569518491  0.6025030703320198  1.0000
  H   H25       1.0  0.10155869088086428  0.3346429232015422  0.5892296600035607  1.0000
  H   H26       1.0  0.8786571161670479  0.3354023372737486  0.5884500729583096  1.0000
  H   H27       1.0  0.7687945838400906  0.41192451031420046  0.6046693401154641  1.0000
  H   H28       1.0  0.9022547779226429  0.4160970086082257  0.6610630346408257  1.0000
  H   H29       1.0  0.9014537655021044  0.764517578905561  0.31947245705070776  1.0000
  H   H30       1.0  0.7781531020722879  0.6908712334400418  0.3124893029064921  1.0000
  H   H31       1.0  0.898380763436549  0.6831614826933076  0.2462123186882579  1.0000
  H   H32       1.0  0.1183349802684432  0.6834784412900488  0.2458438590262091  1.0000
  H   H33       1.0  0.2418070029814814  0.6876492196087938  0.3101838560137793  1.0000
  H   H34       1.0  0.1288142702216888  0.7634708158604083  0.32017409723840734  1.0000
  C   C1        1.0  0.4974478200232396  0.49205781316352665  0.35111322654534405  1.0000
  C   C2        1.0  0.26309246637434575  0.4971984178509529  0.5000652390624011  1.0000
  C   C3        1.0  0.5030960089849827  0.5096559796237371  0.6487113367075352  1.0000
  C   C4        1.0  0.7369186557335324  0.49896992371732546  0.5007710472940091  1.0000
  C   C5        1.0  0.4383357645468847  0.7494181115853207  0.4648194809108618  1.0000
  C   C6        1.0  0.4408860640682732  0.8344225067571069  0.4654523324313686  1.0000
  C   C7        1.0  0.5229943454036317  0.8834972289543686  0.5133525080833508  1.0000
  C   C8        1.0  0.599361099471558  0.8397377182026984  0.5576923212016639  1.0000
  C   C9        1.0  0.5913740596956885  0.75451083554492  0.5535478287132137  1.0000
  C   C10       1.0  0.5328397189328911  0.9737485840376575  0.5197400778138075  1.0000
  C   C11       1.0  0.46670804095880675  0.02538050134507589  0.47996922199863695  1.0000
  C   C12       1.0  0.40109335230272336  0.15941822771279848  0.44155115052588206  1.0000
  C   C13       1.0  0.476528371362356  0.11563863247651798  0.48644251410861017  1.0000
  C   C14       1.0  0.5576249508563363  0.16474061501832438  0.5350496181912661  1.0000
  C   C15       1.0  0.5602802770084807  0.24976127098363318  0.5357434454608666  1.0000
  C   C16       1.0  0.40908174749203846  0.24465450864641258  0.4458107656659394  1.0000
  C   C17       1.0  0.49781950333537855  0.4883355211403852  0.267047907079629  1.0000
  C   C18       1.0  0.5025184480383161  0.559643625306279  0.2297020092418549  1.0000
  C   C19       1.0  0.5028243274820311  0.5553923574184408  0.151572824211101  1.0000
  C   C20       1.0  0.4984378067883383  0.4787015603549845  0.10626228292034058  1.0000
  C   C21       1.0  0.4942706584569549  0.4074271304171759  0.14542079227435784  1.0000
  C   C22       1.0  0.49394544321579303  0.41195785524988776  0.2234528038567731  1.0000
  C   C23       1.0  0.4980176814715024  0.4693189092596056  0.023543711977360694  1.0000
  C   C24       1.0  0.5019634471475526  0.531179953132259  0.9761883173212808  1.0000
  C   C25       1.0  0.5059508941483841  0.5934170898530126  0.8545485800819749  1.0000
  C   C26       1.0  0.5015873830492978  0.5219764855694321  0.8934869403969048  1.0000
  C   C27       1.0  0.4971480925428152  0.4454142444195525  0.8479687793970498  1.0000
  C   C28       1.0  0.4976800755492262  0.4414421574451807  0.7698469235296701  1.0000
  C   C29       1.0  0.5026882691196023  0.5129268709611309  0.7327418661500715  1.0000
  C   C30       1.0  0.5065275078009465  0.589164424592276  0.7765456792685157  1.0000
  C   C31       1.0  0.8727559878540562  0.4991846586047614  0.5014014411105735  1.0000
  C   C32       1.0  0.9377107893804036  0.5485063675315301  0.4521064299366273  1.0000
  C   C33       1.0  0.9328452356992046  0.45184136601666564  0.5492986243356697  1.0000
  C   C34       1.0  0.8793115235541292  0.5977109536214583  0.4025600205203475  1.0000
  C   C35       1.0  0.9429872270261582  0.6459810330850643  0.35593781099036903  1.0000
  C   C36       1.0  0.12724944528197568  0.49783165429441556  0.500658474764144  1.0000
  C   C37       1.0  0.06245603201510619  0.4512138257275992  0.5490312636261336  1.0000
  C   C38       1.0  0.0673028561899045  0.5476300695192009  0.4516442698374589  1.0000
  C   C39       1.0  0.13077639126458246  0.5958656560312716  0.4015314586665042  1.0000
  C   C40       1.0  0.07241581164760899  0.645096893164272  0.3554629660001112  1.0000
  C   C41       1.0  0.1241735621287958  0.4007687041813312  0.6030985177358588  1.0000
  C   C42       1.0  0.8661112581258763  0.40177506270515534  0.6035810638634659  1.0000
  C   C43       1.0  0.8766232959162108  0.698637343658781  0.3060976155056068  1.0000
  C   C44       1.0  0.14425068756269607  0.69736725001826  0.3055264917897063  1.0000
  N   N1        1.0  0.5116810895942336  0.7097345779440187  0.5079789673923827  1.0000
  N   N2        1.0  0.48794713996294786  0.2894273693769022  0.4919641801619292  1.0000
  O   O1        1.0  0.49407801839337395  0.4235976515183494  0.3792827908804172  1.0000
  O   O2        1.0  0.5007079178994119  0.5633838212522304  0.3883783948839863  1.0000
  O   O3        1.0  0.3201866682881445  0.5665853758191159  0.5100659390158881  1.0000
  O   O4        1.0  0.31194207918102995  0.42739694810486367  0.4896517607495738  1.0000
  O   O5        1.0  0.5067540832336235  0.5783252544983523  0.6209412253220989  1.0000
  O   O6        1.0  0.49949305893926527  0.43848790024038203  0.6111483507249815  1.0000
  O   O7        1.0  0.6808520217898036  0.42923198553970804  0.49053084555007587  1.0000
  O   O8        1.0  0.6870595267781354  0.5685037149629933  0.5101592870828213  1.0000
  O   O9        1.0  0.6164642042828062  0.010949718029486598  0.5705296207713317  1.0000
  O   O10       1.0  0.3834009599820191  0.9881836487099278  0.42897433475041424  1.0000
  O   O11       1.0  0.4931480000210727  0.3896983697312279  0.9888773738138212  1.0000
  O   O12       1.0  0.506887301443321  0.6108140194031432  0.010864340272142689  1.0000
