data_image0
_chemical_formula_structural       Al4H28C52N2O20
_chemical_formula_sum              "Al4 H28 C52 N2 O20"
_cell_length_a       6.683502152950967
_cell_length_b       20.774880681104193
_cell_length_c       23.74353009068157
_cell_angle_alpha    89.93671144071737
_cell_angle_beta     90.06641196949786
_cell_angle_gamma    89.62828733799306

_space_group_name_H-M_alt    "P 1"
_space_group_IT_number       1

loop_
  _space_group_symop_operation_xyz
  'x, y, z'

loop_
  _atom_site_type_symbol
  _atom_site_label
  _atom_site_symmetry_multiplicity
  _atom_site_fract_x
  _atom_site_fract_y
  _atom_site_fract_z
  _atom_site_occupancy
  Al  Al1       1.0  0.2590015755665718  0.24946783104623904  0.7477870972333136  1.0000
  Al  Al2       1.0  0.7346746093892164  0.7488963476924229  0.2482157094016557  1.0000
  Al  Al3       1.0  0.75856063827122  0.24923476038267728  0.7471617650892028  1.0000
  Al  Al4       1.0  0.2347105766624296  0.7486248306298365  0.24802631668159592  1.0000
  H   H1        1.0  0.7633357642022318  0.41261155686643053  0.47755425458259987  1.0000
  H   H2        1.0  0.23488070508926026  0.5864112114761967  0.518418898330097  1.0000
  H   H3        1.0  0.09025841583221708  0.4486310824655179  0.40842147695934017  1.0000
  H   H4        1.0  0.9081270805586356  0.5503963321481821  0.5875550862316814  1.0000
  H   H5        1.0  0.6597427938692846  0.5446600187219135  0.49046282580231804  1.0000
  H   H6        1.0  0.33859482027219195  0.4543684778254616  0.5055516251924601  1.0000
  H   H7        1.0  0.668991927819775  0.5325659220415349  0.0397041399015805  1.0000
  H   H8        1.0  0.3203285449652142  0.4636459539567215  0.957174692432126  1.0000
  H   H9        1.0  0.6773088335647229  0.45285650769620395  0.9610451398171094  1.0000
  H   H10       1.0  0.3121797947584922  0.5432999187836317  0.0358764142978387  1.0000
  H   H11       1.0  0.7495571071287584  0.0761916877029805  0.5105484284375024  1.0000
  H   H12       1.0  0.17919564564157042  0.9291225147258974  0.48049397399960003  1.0000
  H   H13       1.0  0.8249940567663074  0.0384470375581003  0.9621455538367699  1.0000
  H   H14       1.0  0.1696863599378418  0.9591396553492549  0.0328001765069601  1.0000
  H   H15       1.0  0.8136730418891531  0.9579579239143289  0.0403286000447878  1.0000
  H   H16       1.0  0.18102710988478776  0.039600280395774214  0.9545801414569509  1.0000
  H   H17       1.0  0.7745343719193797  0.9668009159301078  0.38855292645800427  1.0000
  H   H18       1.0  0.03253722464241089  0.03791679747212131  0.3796872200795178  1.0000
  H   H19       1.0  0.030748464711976498  0.05441871786680962  0.4526917756518571  1.0000
  H   H20       1.0  0.8558804139475027  0.09462106154120423  0.40752714768514403  1.0000
  H   H21       1.0  0.014848936417010293  0.9757902492067533  0.5513462081253522  1.0000
  H   H22       1.0  0.904566253806017  0.0436000505274876  0.6174440340349747  1.0000
  H   H23       1.0  0.05763206711727519  0.10296198265282899  0.5853348539273995  1.0000
  H   H24       1.0  0.15182470747422627  0.05669748405675532  0.642583146405201  1.0000
  H   H25       1.0  0.5074493670432288  0.3312448979809162  0.7309643708299589  1.0000
  H   H26       1.0  0.4864178335137339  0.6676347204336538  0.2663967967738472  1.0000
  H   H27       1.0  0.011079323998067997  0.16549952603425314  0.7385470168905925  1.0000
  H   H28       1.0  0.9833967003975558  0.8335344368719579  0.2447410655895084  1.0000
  C   C1        1.0  0.5117132530929921  0.17139106793893433  0.6712693958189249  1.0000
  C   C2        1.0  0.4809741676915492  0.8288007165070113  0.3225685828092182  1.0000
  C   C3        1.0  0.5081087190859961  0.17302298295586382  0.8239790437089879  1.0000
  C   C4        1.0  0.4847396082748148  0.8244835065446029  0.1708290132861805  1.0000
  C   C5        1.0  0.004940292237527899  0.32592648679011677  0.8236676415367015  1.0000
  C   C6        1.0  0.9872806821071051  0.6707833721020366  0.1728811224370475  1.0000
  C   C7        1.0  0.009677550604969599  0.3270602913659388  0.6709875531644016  1.0000
  C   C8        1.0  0.9845613278174454  0.6726189862387814  0.3256082464804351  1.0000
  C   C9        1.0  0.05011827408119979  0.4705729261289024  0.44873970289690857  1.0000
  C   C10       1.0  0.9481899568286494  0.5284021127904809  0.5472436999739543  1.0000
  C   C11       1.0  0.8676534288149397  0.4517100049507334  0.4862433967996509  1.0000
  C   C12       1.0  0.13066216378922488  0.547276568757404  0.5097345056760432  1.0000
  C   C13       1.0  0.008287969108486897  0.37141893503338974  0.624319239426697  1.0000
  C   C14       1.0  0.9868797268725444  0.6281450781360506  0.3721524548476581  1.0000
  C   C15       1.0  0.1879073251192196  0.47478573253209083  0.5018358479040828  1.0000
  C   C16       1.0  0.8103799110731129  0.5241941609314865  0.4941580661413881  1.0000
  C   C17       1.0  0.0058793150257514986  0.45455485627958586  0.540530841838816  1.0000
  C   C18       1.0  0.9923223790584286  0.5444506880763313  0.45549078186800074  1.0000
  C   C19       1.0  0.008276382011146699  0.40952006031013627  0.5852371702135741  1.0000
  C   C20       1.0  0.9889840795736473  0.5896446032649579  0.41092950897303376  1.0000
  C   C21       1.0  0.815248068334192  0.4730270485295592  0.9776979843920016  1.0000
  C   C22       1.0  0.17415768961123487  0.5231852594422152  0.0192015103794745  1.0000
  C   C23       1.0  0.9992612100473082  0.4531877756159872  0.9540353517209325  1.0000
  C   C24       1.0  0.9901534499862022  0.5431166080036647  0.0428055917924723  1.0000
  C   C25       1.0  0.17863803629232677  0.4789693501643273  0.9755522818221039  1.0000
  C   C26       1.0  0.8107478063725181  0.5172876965601605  0.02132140900666  1.0000
  C   C27       1.0  0.0031160127185287986  0.40847037272430253  0.9091857037019649  1.0000
  C   C28       1.0  0.9867222831597786  0.5880174451912766  0.0875279539657825  1.0000
  C   C29       1.0  0.9863755457009447  0.6264480748777929  0.1262427131313189  1.0000
  C   C30       1.0  0.004705856624987298  0.37020865111242085  0.8703546822881805  1.0000
  C   C31       1.0  0.6363096208217413  0.9993712103949337  0.4588154482235254  1.0000
  C   C32       1.0  0.293687790525972  0.005249498451426901  0.5329934088926649  1.0000
  C   C33       1.0  0.4694837324408638  0.9569766509260874  0.4519672229092039  1.0000
  C   C34       1.0  0.4622716623655664  0.04636033420108991  0.5408450856745333  1.0000
  C   C35       1.0  0.3051045852096407  0.9611286757702758  0.4881566819882579  1.0000
  C   C36       1.0  0.6270077220184405  0.042976065146483215  0.5032889023061315  1.0000
  C   C37       1.0  0.4708447685159883  0.9120188269710214  0.40755602384607675  1.0000
  C   C38       1.0  0.4773986917640158  0.09034574325363563  0.5857808680615051  1.0000
  C   C39       1.0  0.5042354710134518  0.12818886613991515  0.6243571389141634  1.0000
  C   C40       1.0  0.4793020503856198  0.8740671336465342  0.3683932329262944  1.0000
  C   C41       1.0  0.676158308769658  0.9761585158613855  0.0212667947518241  1.0000
  C   C42       1.0  0.31850115813634977  0.021428704040836504  0.973691984096547  1.0000
  C   C43       1.0  0.4910677191271802  0.9534770837608522  0.0416105014651862  1.0000
  C   C44       1.0  0.503606400463596  0.044140457231513615  0.9533541060138832  1.0000
  C   C45       1.0  0.3122270018120473  0.9768268452719869  0.0171003366554032  1.0000
  C   C46       1.0  0.6824442996126477  0.020773866059364807  0.977872312237153  1.0000
  C   C47       1.0  0.4858451412348757  0.908227798343106  0.086095146863066  1.0000
  C   C48       1.0  0.5086672599329843  0.08940141048702802  0.9088420071529981  1.0000
  C   C49       1.0  0.5102080493480372  0.12801924081624355  0.8702157307176747  1.0000
  C   C50       1.0  0.4838031090110347  0.8694625257297236  0.1246234881851151  1.0000
  C   C51       1.0  0.9343673439332675  0.04846157842610672  0.415481076688863  1.0000
  C   C52       1.0  0.058041183322991706  0.05471161092712152  0.6046572803504162  1.0000
  N   N1        1.0  0.796785932784253  0.9954291192578782  0.42257501166565  1.0000
  N   N2        1.0  0.12457591779870818  0.004680982956919901  0.5660915973776924  1.0000
  O   O1        1.0  0.6768823410384927  0.18786823735748473  0.8030551367910305  1.0000
  O   O2        1.0  0.3151881250604304  0.8087251208538221  0.19079964723159287  1.0000
  O   O3        1.0  0.3425062124620055  0.18585310969137234  0.6932546132003168  1.0000
  O   O4        1.0  0.6519145418544382  0.8134370843393699  0.302580697647123  1.0000
  O   O5        1.0  0.1809706152583317  0.3078493660542635  0.6880001193129387  1.0000
  O   O6        1.0  0.8132894137044671  0.6918085787184793  0.3085245602783147  1.0000
  O   O7        1.0  0.33676658377581253  0.19295653414746988  0.8080412462838495  1.0000
  O   O8        1.0  0.655738277996356  0.8053846911849123  0.18791366268448678  1.0000
  O   O9        1.0  0.1751242935075368  0.31106729366094754  0.8032483095962846  1.0000
  O   O10       1.0  0.8173336207542262  0.6863163843067923  0.1931296126605133  1.0000
  O   O11       1.0  0.6835613592886175  0.19069355495010143  0.6873985938479875  1.0000
  O   O12       1.0  0.3104628731671325  0.809131728118459  0.3060376114144319  1.0000
  O   O13       1.0  0.5082179271226792  0.28798318332547984  0.7462638210688937  1.0000
  O   O14       1.0  0.48557527415109547  0.7103552809485407  0.2499547207954009  1.0000
  O   O15       1.0  0.8346692091446714  0.30669493718076524  0.8068111892320715  1.0000
  O   O16       1.0  0.15831857106906713  0.6893610829548467  0.1898172842380603  1.0000
  O   O17       1.0  0.8398766891402971  0.311784356223555  0.6912747294226591  1.0000
  O   O18       1.0  0.15400174453600357  0.6881709764602206  0.3052499666918891  1.0000
  O   O19       1.0  0.009497865906240598  0.21105884138312095  0.7470588891067464  1.0000
  O   O20       1.0  0.9840413038829539  0.7870680252501572  0.24756385224675634  1.0000
