data_image0
_chemical_formula_structural       Na4H40C32O20F4
_chemical_formula_sum              "Na4 H40 C32 O20 F4"
_cell_length_a       5.382818838684667
_cell_length_b       5.8609989658193955
_cell_length_c       30.54177488215618
_cell_angle_alpha    90.0011286555349
_cell_angle_beta     93.14403968893177
_cell_angle_gamma    90.00136338335251

_space_group_name_H-M_alt    "P 1"
_space_group_IT_number       1

loop_
  _space_group_symop_operation_xyz
  'x, y, z'

loop_
  _atom_site_type_symbol
  _atom_site_label
  _atom_site_symmetry_multiplicity
  _atom_site_fract_x
  _atom_site_fract_y
  _atom_site_fract_z
  _atom_site_occupancy
  Na  Na1       1.0  0.5800228732116677  0.5917297842128235  0.5521716782406332  1.0000
  Na  Na2       1.0  0.9199888574329121  0.0916780257011283  0.947829625883351  1.0000
  Na  Na3       1.0  0.41998173843739284  0.40829171604001874  0.44783064441374887  1.0000
  Na  Na4       1.0  0.0800231847484838  0.908305938267702  0.0521708026934533  1.0000
  H   H1        1.0  0.4349920701874409  0.0685106124501473  0.6925428316028573  1.0000
  H   H2        1.0  0.06500394055850478  0.5684615892385665  0.8074523256508783  1.0000
  H   H3        1.0  0.5649939482956298  0.9314716452651552  0.3074616064652318  1.0000
  H   H4        1.0  0.9349578301856382  0.43158891542662287  0.19254107755172364  1.0000
  H   H5        1.0  0.11863426760716317  0.13223138556452338  0.7468326732188828  1.0000
  H   H6        1.0  0.3813412936901557  0.6322446775043743  0.7531651545687768  1.0000
  H   H7        1.0  0.8813312847907112  0.8677576967099155  0.2531715706330573  1.0000
  H   H8        1.0  0.6186167708207151  0.36780582725395305  0.246830832825033  1.0000
  H   H9        1.0  0.8277130138626203  0.705720632822718  0.6725383448679026  1.0000
  H   H10       1.0  0.672240619245457  0.2057199754191147  0.8274576077622271  1.0000
  H   H11       1.0  0.17226553070258885  0.29425991833888077  0.3274604561176844  1.0000
  H   H12       1.0  0.32777328201062517  0.7942895814595586  0.17254251108641236  1.0000
  H   H13       1.0  0.1389657297015319  0.6410768384760245  0.6166398789102773  1.0000
  H   H14       1.0  0.3610380466412123  0.14107709911449007  0.8833667635827639  1.0000
  H   H15       1.0  0.8610221419480267  0.3589088315802726  0.3833632670692425  1.0000
  H   H16       1.0  0.6389609792991919  0.8589239267209338  0.11663485118106821  1.0000
  H   H17       1.0  0.6987164119244936  0.8261257719224276  0.47658785840403084  1.0000
  H   H18       1.0  0.8012788067334211  0.32610895438154597  0.023415814632628002  1.0000
  H   H19       1.0  0.30128820898175224  0.17389231602560073  0.5234161014344281  1.0000
  H   H20       1.0  0.19873881897124324  0.673873303468966  0.9765849943507662  1.0000
  H   H21       1.0  0.8962974719814695  0.6463423379547066  0.46919628684364784  1.0000
  H   H22       1.0  0.6037055017614675  0.14632399170189103  0.03080382141244801  1.0000
  H   H23       1.0  0.10370899270946407  0.3536740436702174  0.5308047437045718  1.0000
  H   H24       1.0  0.3963121313638992  0.8536565600210365  0.9691982973203255  1.0000
  H   H25       1.0  0.11520732904223509  0.8797917531768675  0.5465921020827409  1.0000
  H   H26       1.0  0.384808955351822  0.3797398490969783  0.9534073917893622  1.0000
  H   H27       1.0  0.8848047266674398  0.12022633478350289  0.4534106186319988  1.0000
  H   H28       1.0  0.6152142426079904  0.6202338777607606  0.0465918329571977  1.0000
  H   H29       1.0  0.23265720886704594  0.828435909973166  0.5010433146358224  1.0000
  H   H30       1.0  0.26735199618091327  0.32843571846473196  0.998956242015595  1.0000
  H   H31       1.0  0.7673492576852963  0.1715804716683067  0.4989580433506192  1.0000
  H   H32       1.0  0.732674924714992  0.6715345960612636  0.0010433454767380008  1.0000
  H   H33       1.0  0.49635169508997  0.9740666286154392  0.6224253361693215  1.0000
  H   H34       1.0  0.0036449661845167993  0.47400109230919446  0.8775654937486479  1.0000
  H   H35       1.0  0.503658470075571  0.025937809510196506  0.37757212784838873  1.0000
  H   H36       1.0  0.9963782043028073  0.5260033457883891  0.12242881948787243  1.0000
  H   H37       1.0  0.7506471497573769  0.12014448894176868  0.6501594124268522  1.0000
  H   H38       1.0  0.7493412065969877  0.6200710426085009  0.8498388323470112  1.0000
  H   H39       1.0  0.24935560080606217  0.8798411812219769  0.3498428924963477  1.0000
  H   H40       1.0  0.2506578061889613  0.37992145214214174  0.1501604903316576  1.0000
  C   C1        1.0  0.31079509609578787  0.35230358963691083  0.6509086266728517  1.0000
  C   C2        1.0  0.18920736354200327  0.8522749231187704  0.8490909577219911  1.0000
  C   C3        1.0  0.6892039166153975  0.6476837865323831  0.34909069599525827  1.0000
  C   C4        1.0  0.8107823412471687  0.14774487058458163  0.15090729441182305  1.0000
  C   C5        1.0  0.3031356881177203  0.2074358481510784  0.6873004856137683  1.0000
  C   C6        1.0  0.1968532122877774  0.7073968358807999  0.8126941563357022  1.0000
  C   C7        1.0  0.6968428731004507  0.7925378783843512  0.3127012623017649  1.0000
  C   C8        1.0  0.8031252958218855  0.2926366069570747  0.1872980959944641  1.0000
  C   C9        1.0  0.12588229996538297  0.2429875896983447  0.7183453607722116  1.0000
  C   C10       1.0  0.37408717133446595  0.7429729005712032  0.781648906175839  1.0000
  C   C11       1.0  0.8740962484721634  0.7570031986590567  0.2816540951109375  1.0000
  C   C12       1.0  0.6258802106048194  0.25705883628609166  0.21834978897153692  1.0000
  C   C13       1.0  0.9594289406995811  0.4221443261639877  0.7123537084424998  1.0000
  C   C14       1.0  0.5405719436702013  0.9221542331072642  0.7876428703338405  1.0000
  C   C15       1.0  0.040571934410351694  0.5778413438477016  0.2876459593176079  1.0000
  C   C16       1.0  0.4594196217061536  0.07786726680950548  0.2123553994607903  1.0000
  C   C17       1.0  0.9629889656785408  0.5681483773337844  0.6764753057969557  1.0000
  C   C18       1.0  0.5370109323394985  0.06816677799380239  0.8235290696594575  1.0000
  C   C19       1.0  0.037021223211766596  0.4318236433251316  0.323526414850825  1.0000
  C   C20       1.0  0.46298437840950146  0.9318581345649762  0.1764734921537112  1.0000
  C   C21       1.0  0.13985962955040773  0.532178782579102  0.6455466187918759  1.0000
  C   C22       1.0  0.36010185787485227  0.0321471000663749  0.8544529824057038  1.0000
  C   C23       1.0  0.8601058931148201  0.4678137118180813  0.35445238605550605  1.0000
  C   C24       1.0  0.6399138927999813  0.9678641629264109  0.1455451894744044  1.0000
  C   C25       1.0  0.6219146792004934  0.12191614901419712  0.6207582556964726  1.0000
  C   C26       1.0  0.8780997655200408  0.6218363224260486  0.8792382789433975  1.0000
  C   C27       1.0  0.37808435408584257  0.8780780521122936  0.3792446688061802  1.0000
  C   C28       1.0  0.12190482163168777  0.37816470328621676  0.1207597869718455  1.0000
  C   C29       1.0  0.778235403621636  0.09278246173029463  0.5810810368712184  1.0000
  C   C30       1.0  0.7218116931445377  0.5927017862595533  0.9189179875172047  1.0000
  C   C31       1.0  0.22178781893520486  0.9072185644431555  0.4189224446285493  1.0000
  C   C32       1.0  0.27821522221699263  0.4072719406043603  0.0810806176674959  1.0000
  O   O1        1.0  0.7308885704227774  0.6599532878628267  0.4811267374627307  1.0000
  O   O2        1.0  0.7691110668930462  0.15994218823858122  0.018871099558275303  1.0000
  O   O3        1.0  0.2691141545046492  0.3400613873635264  0.5188709833851348  1.0000
  O   O4        1.0  0.23090468159639235  0.8400468942184672  0.9811267448378729  1.0000
  O   O5        1.0  0.27708630915505944  0.8770729531356951  0.5315782498940038  1.0000
  O   O6        1.0  0.2229280187973188  0.37704148370513474  0.9684182682064773  1.0000
  O   O7        1.0  0.7229220161729017  0.12294854709021048  0.4684227983220595  1.0000
  O   O8        1.0  0.7770951699053086  0.6229356554574181  0.0315793193559983  1.0000
  O   O9        1.0  0.48006554279778857  0.328372605112257  0.6189049601112517  1.0000
  O   O10       1.0  0.0199399423064364  0.8283249915534935  0.8810952157431731  1.0000
  O   O11       1.0  0.5199316280648815  0.6716215959780457  0.3810976192958791  1.0000
  O   O12       1.0  0.9800590596350671  0.1716896836170321  0.11890214235188523  1.0000
  O   O13       1.0  0.8107471164868868  0.2604952433004186  0.5558026435034621  1.0000
  O   O14       1.0  0.6892993243309531  0.7604301151976075  0.9442016037348469  1.0000
  O   O15       1.0  0.18926495230247303  0.7395262571633835  0.4442023692858825  1.0000
  O   O16       1.0  0.3107238849219057  0.23955214272836398  0.055799585658647316  1.0000
  O   O17       1.0  0.8678608698598537  0.8937575523983483  0.577313573334685  1.0000
  O   O18       1.0  0.6321912888165073  0.39366674390736023  0.9226850197610689  1.0000
  O   O19       1.0  0.1321548997280928  0.10627418508536829  0.42268787296988825  1.0000
  O   O20       1.0  0.36783377156697833  0.6063069829865669  0.07731455008100603  1.0000
  F   F1        1.0  0.7865010032506061  0.4562816592080948  0.7430532744443641  1.0000
  F   F2        1.0  0.7134506175236054  0.9563175426712788  0.756938384287274  1.0000
  F   F3        1.0  0.2134663686838394  0.5437023041404958  0.2569437834133765  1.0000
  F   F4        1.0  0.28654465205016777  0.0436920137793138  0.24305697385329245  1.0000
