data_image0
_chemical_formula_structural       Ni4H40C48S8
_chemical_formula_sum              "Ni4 H40 C48 S8"
_cell_length_a       6.286656701071008
_cell_length_b       12.066521649278384
_cell_length_c       15.164680246273504
_cell_angle_alpha    95.09323769399863
_cell_angle_beta     89.9994994516185
_cell_angle_gamma    89.99981275697758

_space_group_name_H-M_alt    "P 1"
_space_group_IT_number       1

loop_
  _space_group_symop_operation_xyz
  'x, y, z'

loop_
  _atom_site_type_symbol
  _atom_site_label
  _atom_site_symmetry_multiplicity
  _atom_site_fract_x
  _atom_site_fract_y
  _atom_site_fract_z
  _atom_site_occupancy
  Ni  Ni1       1.0  0.0681558262419486  0.4996099421916612  0.24973858750320946  1.0000
  Ni  Ni2       1.0  0.5681560804808257  0.5003786512553107  0.2502527896200349  1.0000
  Ni  Ni3       1.0  0.9318640496837959  0.5003825675608554  0.7502621394443028  1.0000
  Ni  Ni4       1.0  0.4318653861363657  0.49961546360635384  0.7497453901572443  1.0000
  H   H1        1.0  0.2757514380810804  0.4838523405206133  0.06731971170462714  1.0000
  H   H2        1.0  0.775707998369427  0.516140943527553  0.4326751252126756  1.0000
  H   H3        1.0  0.7242700284177488  0.5161519184512501  0.9326862976971244  1.0000
  H   H4        1.0  0.2242450692865745  0.48386168105793803  0.5673321107640776  1.0000
  H   H5        1.0  0.2633436222815533  0.40819612629207574  0.9102097164531318  1.0000
  H   H6        1.0  0.7633083970662967  0.5918010512479911  0.5897832152510817  1.0000
  H   H7        1.0  0.7366460307946171  0.5918238213575294  0.08979190574400064  1.0000
  H   H8        1.0  0.23660649450559393  0.4082089724098736  0.4102204828748981  1.0000
  H   H9        1.0  0.30050284299382923  0.20530611195567167  0.8695448631451302  1.0000
  H   H10       1.0  0.8005018923287751  0.7946901347176054  0.6304465600708442  1.0000
  H   H11       1.0  0.6994534061040483  0.7947119665564487  0.13044741978810492  1.0000
  H   H12       1.0  0.1994352686628247  0.20532229658536494  0.369553317262188  1.0000
  H   H13       1.0  0.3648081042644478  0.07744630571885122  0.9881162513959796  1.0000
  H   H14       1.0  0.8648341627080783  0.9225439385390218  0.5118719571094916  1.0000
  H   H15       1.0  0.6351576889962729  0.9225615846644432  0.011866220812343913  1.0000
  H   H16       1.0  0.13517616921483722  0.07745512369404389  0.4881245244343263  1.0000
  H   H17       1.0  0.3740329787097921  0.15331133493945262  0.14606117753621115  1.0000
  H   H18       1.0  0.8740524322861205  0.8466733726663805  0.3539295143044044  1.0000
  H   H19       1.0  0.625967809346122  0.8466783270680909  0.8539235593744012  1.0000
  H   H20       1.0  0.12600243837896133  0.15331916639316032  0.646072533298508  1.0000
  H   H21       1.0  0.8804029326581214  0.20421830193592427  0.06668432425192351  1.0000
  H   H22       1.0  0.3804269311468645  0.7957566163718397  0.4333150228795831  1.0000
  H   H23       1.0  0.11958990184309928  0.7957684872654057  0.9333206953064563  1.0000
  H   H24       1.0  0.6196088515579204  0.20423656389203165  0.5666784872070778  1.0000
  H   H25       1.0  0.8745527711122565  0.006783779077629501  0.10359256318576372  1.0000
  H   H26       1.0  0.37457930089997404  0.9931956617382767  0.3964228904195793  1.0000
  H   H27       1.0  0.1254257472526632  0.9932056965310992  0.8964211825039571  1.0000
  H   H28       1.0  0.6254485284379285  0.006794249632179101  0.6035730725733971  1.0000
  H   H29       1.0  0.795141450623561  0.9627322903674623  0.25692155640331293  1.0000
  H   H30       1.0  0.2951398922096047  0.037269907080350606  0.24310207398125536  1.0000
  H   H31       1.0  0.20484661165698273  0.03727307925883141  0.7430970470546969  1.0000
  H   H32       1.0  0.7048640770170493  0.9627242371374862  0.7568974265507084  1.0000
  H   H33       1.0  0.7368181355059065  0.11649550761089242  0.3757832096906811  1.0000
  H   H34       1.0  0.2368129694569419  0.8835198453444164  0.12422950903625463  1.0000
  H   H35       1.0  0.2631842428447158  0.8835196833744661  0.6242286954272347  1.0000
  H   H36       1.0  0.7631909997870923  0.1164750867588538  0.8757680575513052  1.0000
  H   H37       1.0  0.7524986349843986  0.3130546417114175  0.33978760382399303  1.0000
  H   H38       1.0  0.25249572242587703  0.6869545211985653  0.16020953731923274  1.0000
  H   H39       1.0  0.24752283153171106  0.6869586507475065  0.660213641209147  1.0000
  H   H40       1.0  0.7475241535485537  0.3130378858646737  0.8397865671027136  1.0000
  C   C1        1.0  0.3212812668578096  0.32278664784146116  0.11665248385904192  1.0000
  C   C2        1.0  0.8212711030125561  0.6772039818626608  0.3833387375496927  1.0000
  C   C3        1.0  0.6787386091026946  0.6772074376819007  0.8833443751996557  1.0000
  C   C4        1.0  0.17874559153361957  0.32279767873906456  0.616662507921589  1.0000
  C   C5        1.0  0.2928039311686917  0.394703268634288  0.04978329949504001  1.0000
  C   C6        1.0  0.7927785710639766  0.6052891075525652  0.4502094446624768  1.0000
  C   C7        1.0  0.7072143540445951  0.605299223861053  0.9502179931112097  1.0000
  C   C8        1.0  0.20719835669623884  0.3947158953367449  0.5497926497967215  1.0000
  C   C9        1.0  0.2852150088679081  0.35170013907336545  0.9616365964538931  1.0000
  C   C10       1.0  0.7851947680785968  0.6482961655921144  0.5383562053501267  1.0000
  C   C11       1.0  0.7147841882945868  0.6483097818162734  0.03836247898707512  1.0000
  C   C12       1.0  0.21475989026877335  0.35171466058383066  0.46164621911702863  1.0000
  C   C13       1.0  0.30766161044368096  0.23742522791764034  0.9389316509195286  1.0000
  C   C14       1.0  0.8076639323172329  0.7625709906741921  0.5610590848496672  1.0000
  C   C15       1.0  0.6923169080636099  0.7625829118419674  0.061062047398238  1.0000
  C   C16       1.0  0.1923018607556415  0.23744059403695425  0.4389400849304367  1.0000
  C   C17       1.0  0.342516855811951  0.1664252810482552  0.005277848468821802  1.0000
  C   C18       1.0  0.8425286885387423  0.8335669286412114  0.49471140576307  1.0000
  C   C19       1.0  0.6574648441026484  0.8335802456638676  0.9947104255426427  1.0000
  C   C20       1.0  0.15747687134102512  0.1664363224116769  0.5052866322012479  1.0000
  C   C21       1.0  0.34857782125860143  0.2086219805923974  0.094085682109629  1.0000
  C   C22       1.0  0.8485854517429487  0.7913677367332924  0.40590406814998664  1.0000
  C   C23       1.0  0.6514245573878342  0.7913752711589409  0.9059041015653337  1.0000
  C   C24       1.0  0.1514455588525792  0.2086322453949094  0.5940964226574652  1.0000
  C   C25       1.0  0.8160777530787939  0.2704441185729749  0.200938132058198  1.0000
  C   C26       1.0  0.31608912836389896  0.7295474847814064  0.29905909937848923  1.0000
  C   C27       1.0  0.18393257881633931  0.7295517040990235  0.7990621230984802  1.0000
  C   C28       1.0  0.6839339289169359  0.2704466447486595  0.7009397407565743  1.0000
  C   C29       1.0  0.8505979022630897  0.1843247182979653  0.13431375664346495  1.0000
  C   C30       1.0  0.3506168086440411  0.8156569990201207  0.3656900425110835  1.0000
  C   C31       1.0  0.14939334156053974  0.8156653838154069  0.8656907911090388  1.0000
  C   C32       1.0  0.6494046579801207  0.1843354520513145  0.6343080429902417  1.0000
  C   C33       1.0  0.8452247966892442  0.07389022132304043  0.15515228817853455  1.0000
  C   C34       1.0  0.34524811554400253  0.9260950096740288  0.3448596441741998  1.0000
  C   C35       1.0  0.15475372169301954  0.9261033404117642  0.8448583913970966  1.0000
  C   C36       1.0  0.6547701697424485  0.0738966095052831  0.6551383941951701  1.0000
  C   C37       1.0  0.8021836189946187  0.0490150308023445  0.24145105187832172  1.0000
  C   C38       1.0  0.3021942468089449  0.9509828325995429  0.258565052185837  1.0000
  C   C39       1.0  0.19779649001641533  0.9509868645519788  0.7585607594348716  1.0000
  C   C40       1.0  0.6978049503885019  0.049012172857672495  0.7414358162147181  1.0000
  C   C41       1.0  0.768315646869084  0.1350582414188253  0.3078996312489011  1.0000
  C   C42       1.0  0.2683235113895606  0.8649478283332427  0.19210914798461695  1.0000
  C   C43       1.0  0.23167877818773522  0.8649494038383949  0.6921092081990852  1.0000
  C   C44       1.0  0.7316804578405397  0.1350487822301361  0.8078891732396871  1.0000
  C   C45       1.0  0.776648979443692  0.24551591405771236  0.288104464170587  1.0000
  C   C46       1.0  0.27665881615254057  0.7544866364648471  0.21189617065488872  1.0000
  C   C47       1.0  0.2233565803699804  0.7544883009193556  0.7118995641788645  1.0000
  C   C48       1.0  0.7233546971185802  0.24550911285469115  0.7881007826917997  1.0000
  S   S1        1.0  0.31870141980433425  0.3727935987832538  0.23049344775353126  1.0000
  S   S2        1.0  0.8186971773184909  0.6271945547319718  0.2694983023497742  1.0000
  S   S3        1.0  0.6813184561631402  0.6271988229498789  0.7695033170292122  1.0000
  S   S4        1.0  0.18132428925698466  0.37279799902874083  0.7305044056771167  1.0000
  S   S5        1.0  0.8173628183313754  0.4100649897397588  0.17166260414476403  1.0000
  S   S6        1.0  0.3173586801714663  0.5899239835078093  0.32832853779911636  1.0000
  S   S7        1.0  0.182658648282306  0.5899316061373484  0.8283350566856529  1.0000
  S   S8        1.0  0.682661195761206  0.41007016069513463  0.6716709627027626  1.0000
