data_image0
_chemical_formula_structural       Ag2H16Au2C24S2Cl10O4F6
_chemical_formula_sum              "Ag2 H16 Au2 C24 S2 Cl10 O4 F6"
_cell_length_a       8.61376600084593
_cell_length_b       9.49085760017247
_cell_length_c       12.18046135792376
_cell_angle_alpha    77.84375302513416
_cell_angle_beta     73.39518830457507
_cell_angle_gamma    82.80755017737924

_space_group_name_H-M_alt    "P 1"
_space_group_IT_number       1

loop_
  _space_group_symop_operation_xyz
  'x, y, z'

loop_
  _atom_site_type_symbol
  _atom_site_label
  _atom_site_symmetry_multiplicity
  _atom_site_fract_x
  _atom_site_fract_y
  _atom_site_fract_z
  _atom_site_occupancy
  Ag  Ag1       1.0  0.8192953524397026  0.012410729185717199  0.5221170650792715  1.0000
  Ag  Ag2       1.0  0.18070715971221332  0.9875898922876655  0.47788234840597005  1.0000
  H   H1        1.0  0.6382582615304672  0.29777648397764267  0.6812332703421049  1.0000
  H   H2        1.0  0.36174174025072864  0.7022252133506441  0.31876565427963033  1.0000
  H   H3        1.0  0.42399489923471384  0.33462464722162366  0.7041733897374628  1.0000
  H   H4        1.0  0.5760028503660523  0.6653748875088894  0.29582635255385265  1.0000
  H   H5        1.0  0.6010293173668727  0.0985128044653081  0.8484759519161926  1.0000
  H   H6        1.0  0.3989719810833918  0.9014878133312793  0.1515228881895752  1.0000
  H   H7        1.0  0.44490124466383923  0.22923460067645607  0.9000331313538652  1.0000
  H   H8        1.0  0.5550988424067781  0.7707660162365357  0.09996595542727965  1.0000
  H   H9        1.0  0.24488880388192774  0.11198659905682012  0.8417024601710992  1.0000
  H   H10       1.0  0.7551112901547442  0.8880140262357801  0.1582990867746118  1.0000
  H   H11       1.0  0.3448884409239313  0.9712899908619687  0.9226708704320501  1.0000
  H   H12       1.0  0.6551129428157553  0.0287095465193303  0.07732813183313428  1.0000
  H   H13       1.0  0.3347775046753228  0.9352777233902498  0.7117258313401608  1.0000
  H   H14       1.0  0.6652212857262259  0.06472397305444132  0.2882733399569517  1.0000
  H   H15       1.0  0.527114758985853  0.899912016604588  0.7460187576539639  1.0000
  H   H16       1.0  0.4728842043165784  0.10008752180272042  0.2539815580168252  1.0000
  Au  Au1       1.0  0.3470281312220109  0.23097360129050062  0.5019657274269917  1.0000
  Au  Au2       1.0  0.65297317187229  0.7690270220924944  0.4980347527884846  1.0000
  C   C1        1.0  0.2085622128577  0.3374540826482644  0.3958119832491321  1.0000
  C   C2        1.0  0.791435539065084  0.6625454548754418  0.6041885790970412  1.0000
  C   C3        1.0  0.03861245744332108  0.3494873303781675  0.4349777723035118  1.0000
  C   C4        1.0  0.9613852115120592  0.650513290354034  0.5650234479381027  1.0000
  C   C5        1.0  0.9394848123037391  0.4182096827799455  0.3630482196960614  1.0000
  C   C6        1.0  0.060511732883448084  0.5817898594465731  0.6369542294351902  1.0000
  C   C7        1.0  0.012597556464228886  0.482801642722265  0.2475372270504224  1.0000
  C   C8        1.0  0.9873989034335224  0.5171989799195416  0.7524650599214125  1.0000
  C   C9        1.0  0.1831149583143343  0.4778660613301041  0.2063221099462922  1.0000
  C   C10       1.0  0.816881501583417  0.5221345613117094  0.7936801770255429  1.0000
  C   C11       1.0  0.2776255343286493  0.40426518033149256  0.2804609014252222  1.0000
  C   C12       1.0  0.7223721346267312  0.5957354404007091  0.7195403188163851  1.0000
  C   C13       1.0  0.5207829952944323  0.24998760552337976  0.7127313613924144  1.0000
  C   C14       1.0  0.4792159703300101  0.7500119356771293  0.2872697743332324  1.0000
  C   C15       1.0  0.4882700677723903  0.15866166581209035  0.8350224077865676  1.0000
  C   C16       1.0  0.5117301069096739  0.8413378734788071  0.16497766120885154  1.0000
  C   C17       1.0  0.36318738313927673  0.053451809864540706  0.8426738361417634  1.0000
  C   C18       1.0  0.636812708575384  0.946548812634859  0.15732689074908984  1.0000
  C   C19       1.0  0.42743639286884877  0.9812224838823482  0.7364252659418186  1.0000
  C   C20       1.0  0.5725636042683035  0.0187792078595379  0.2635720185702084  1.0000
  C   C21       1.0  0.03231318159753021  0.08978271552339828  0.2662775350661093  1.0000
  C   C22       1.0  0.9676722789839259  0.910218965615343  0.7337227095504416  1.0000
  C   C23       1.0  0.04779924003441491  0.122389094724916  0.1332352498749998  1.0000
  C   C24       1.0  0.9522010176150673  0.8776093613574928  0.8667641612249781  1.0000
  S   S1        1.0  0.5200655999465625  0.1237381964360011  0.616134034885782  1.0000
  S   S2        1.0  0.4799333587118185  0.876261336384907  0.3838646406753056  1.0000
  Cl  Cl1       1.0  0.9469662869960517  0.27445919132397006  0.5784461943760278  1.0000
  Cl  Cl2       1.0  0.05303389465207428  0.725540356346528  0.42155633478395066  1.0000
  Cl  Cl3       1.0  0.7317129640801027  0.42311957194704775  0.41355612071834713  1.0000
  Cl  Cl4       1.0  0.2682860038663648  0.5768799720466545  0.5864458350621503  1.0000
  Cl  Cl5       1.0  0.895649693035111  0.5687982837327963  0.1575116347268732  1.0000
  Cl  Cl6       1.0  0.10434676918465872  0.43120234170221033  0.8424914722998196  1.0000
  Cl  Cl7       1.0  0.27329281361249264  0.5605465523210993  0.06692036160328739  1.0000
  Cl  Cl8       1.0  0.7267035586738189  0.4394551479428087  0.9330809431542804  1.0000
  Cl  Cl9       1.0  0.4868542704713974  0.39793255116082094  0.22711138484051221  1.0000
  Cl  Cl10      1.0  0.5131433961619648  0.6020680667781875  0.7728890153462444  1.0000
  O   O1        1.0  0.8890539940629338  0.09274655827747579  0.3309387607832193  1.0000
  O   O2        1.0  0.11096477079483687  0.9072475838112907  0.6690559587140612  1.0000
  O   O3        1.0  0.16591775880153387  0.0586615836261828  0.2911864067652701  1.0000
  O   O4        1.0  0.8340997186752476  0.9413336491670776  0.7088116774673808  1.0000
  F   F1        1.0  0.0764765195491037  0.994075538204896  0.09379091689715582  1.0000
  F   F2        1.0  0.9235235605554594  0.005925070328501599  0.9062057097194368  1.0000
  F   F3        1.0  0.9124613471108773  0.19087950718758853  0.10582304090167576  1.0000
  F   F4        1.0  0.0875365846788441  0.8091178806783289  0.8941811259827332  1.0000
  F   F5        1.0  0.1744339386296616  0.20484289385725424  0.07243507671400097  1.0000
  F   F6        1.0  0.8255638063270682  0.7951566352868583  0.9275630254676133  1.0000
