data_image0
_chemical_formula_structural       Zn2H40C44N8O8
_chemical_formula_sum              "Zn2 H40 C44 N8 O8"
_cell_length_a       9.00982864440484
_cell_length_b       11.739238847636313
_cell_length_c       11.739268128676294
_cell_angle_alpha    89.91864676278949
_cell_angle_beta     111.53194727534336
_cell_angle_gamma    111.53159660725109

_space_group_name_H-M_alt    "P 1"
_space_group_IT_number       1

loop_
  _space_group_symop_operation_xyz
  'x, y, z'

loop_
  _atom_site_type_symbol
  _atom_site_label
  _atom_site_symmetry_multiplicity
  _atom_site_fract_x
  _atom_site_fract_y
  _atom_site_fract_z
  _atom_site_occupancy
  Zn  Zn1       1.0  0.24999732746797326  0.42250352584115103  0.5774987467351025  1.0000
  Zn  Zn2       1.0  0.7499982670293406  0.57749731956293  0.4225042758680359  1.0000
  H   H1        1.0  0.6180581623096657  0.5979632052027597  0.756071764187034  1.0000
  H   H2        1.0  0.8819397464789206  0.2439193061959628  0.402035044295026  1.0000
  H   H3        1.0  0.3819425035378997  0.402033962240587  0.24392498630772508  1.0000
  H   H4        1.0  0.11805799083133194  0.7560769251789452  0.5979634229660461  1.0000
  H   H5        1.0  0.24445693540729257  0.6907722603572142  0.4784884956436741  1.0000
  H   H6        1.0  0.25553995167778965  0.5215084945553202  0.30923335328832013  1.0000
  H   H7        1.0  0.7555462315121346  0.3092313687927587  0.521511588825767  1.0000
  H   H8        1.0  0.7444671020860341  0.4784894325126672  0.6907711768802969  1.0000
  H   H9        1.0  0.5588589810389311  0.8993902605880211  0.5729315583818178  1.0000
  H   H10       1.0  0.9411366920755099  0.4270682498328782  0.1006130744849401  1.0000
  H   H11       1.0  0.4411461387864008  0.10061053066949202  0.4270698998353239  1.0000
  H   H12       1.0  0.0588706737061387  0.5729343796287907  0.8993890393896107  1.0000
  H   H13       1.0  0.8145330928160276  0.7575451315598656  0.9198814032459735  1.0000
  H   H14       1.0  0.6854667530294802  0.08011299747867182  0.24244813517091746  1.0000
  H   H15       1.0  0.18546928837902504  0.24245294749248106  0.0801158426477073  1.0000
  H   H16       1.0  0.31453975092528474  0.9198860158045082  0.7575468799949902  1.0000
  H   H17       1.0  0.11500533786195181  0.8923900822714116  0.05251545262485986  1.0000
  H   H18       1.0  0.384990719568826  0.9474837843975193  0.1076051605682409  1.0000
  H   H19       1.0  0.8849958206595828  0.10760795917295243  0.9474848545359436  1.0000
  H   H20       1.0  0.6150163055110411  0.05251614233227289  0.8923908639580486  1.0000
  H   H21       1.0  0.15940562928374646  0.09033258609294849  0.7476906692787039  1.0000
  H   H22       1.0  0.3405917351451038  0.2523167243565609  0.9096768386705348  1.0000
  H   H23       1.0  0.8405964574506442  0.909669163569653  0.2523107928775303  1.0000
  H   H24       1.0  0.659406076857387  0.7476859198060667  0.09032938689568944  1.0000
  H   H25       1.0  0.8634269427599078  0.9506625091202707  0.6143860027928838  1.0000
  H   H26       1.0  0.6365727274789634  0.3856158162225826  0.04934423337002872  1.0000
  H   H27       1.0  0.1365776654240349  0.04933738183915889  0.3856135969619885  1.0000
  H   H28       1.0  0.36342444936107643  0.6143877958184233  0.9506601191104734  1.0000
  H   H29       1.0  0.45451076500479815  0.0939351780698843  0.6982377046238994  1.0000
  H   H30       1.0  0.04548226695965244  0.30175980482285786  0.9060617162471231  1.0000
  H   H31       1.0  0.5454909336092513  0.9060638031181726  0.3017619136935039  1.0000
  H   H32       1.0  0.954512475194484  0.6982374375512636  0.09393335854548465  1.0000
  H   H33       1.0  0.575591481265775  0.23502492590746019  0.806317588822381  1.0000
  H   H34       1.0  0.9244006490566716  0.19368068042126652  0.7649721825953009  1.0000
  H   H35       1.0  0.42441085251073213  0.7649730874022181  0.19368390258074433  1.0000
  H   H36       1.0  0.07559051991399467  0.8063165806142507  0.23502358497978545  1.0000
  H   H37       1.0  0.6188638629023656  0.2204274089455041  0.6726780178659197  1.0000
  H   H38       1.0  0.8811245053865946  0.32731883445328697  0.7795723318227771  1.0000
  H   H39       1.0  0.3811323096223092  0.7795744287964012  0.3273209194862758  1.0000
  H   H40       1.0  0.11886317598681734  0.672676524473033  0.22042753956579725  1.0000
  C   C1        1.0  0.557870001354182  0.651261275380314  0.6943179029467146  1.0000
  C   C2        1.0  0.9421280262696213  0.30567541483968336  0.3487385174291191  1.0000
  C   C3        1.0  0.4421312045858983  0.3487368318067254  0.3056781587046444  1.0000
  C   C4        1.0  0.05787378638178363  0.6943216850233755  0.6512619646136243  1.0000
  C   C5        1.0  0.3699063136316101  0.7034740126240565  0.549987304676442  1.0000
  C   C6        1.0  0.1300882191977949  0.4500085816124654  0.296529536129384  1.0000
  C   C7        1.0  0.6300940672389926  0.29652683857808176  0.4500128129789828  1.0000
  C   C8        1.0  0.8699159439635621  0.549988461981215  0.7034733143979892  1.0000
  C   C9        1.0  0.5230577944191026  0.8062511588515945  0.595219267095949  1.0000
  C   C10       1.0  0.9769402067315623  0.4047776212063425  0.19375317075699888  1.0000
  C   C11       1.0  0.4769455055050926  0.193750615270453  0.40477998289505024  1.0000
  C   C12       1.0  0.023066078865042517  0.5952231287679483  0.806250320804345  1.0000
  C   C13       1.0  0.8181092393734705  0.8479705558292142  0.7601058525213488  1.0000
  C   C14       1.0  0.6818889669431911  0.2398936776381859  0.1520337116431776  1.0000
  C   C15       1.0  0.18189129346932023  0.15202846664206504  0.2398917324518521  1.0000
  C   C16       1.0  0.3181119350525137  0.7601080870105649  0.8479674153726221  1.0000
  C   C17       1.0  0.892553657411952  0.8283970282870146  0.8818312318998237  1.0000
  C   C18       1.0  0.6074435491939311  0.11816501195801979  0.17160012553203063  1.0000
  C   C19       1.0  0.1074481931742923  0.17160012417018317  0.11816585373536977  1.0000
  C   C20       1.0  0.39256041434385475  0.8818358337312519  0.8283984502390139  1.0000
  C   C21       1.0  0.062156340302124316  0.9053005304080275  0.9562409833679268  1.0000
  C   C22       1.0  0.43783954893470417  0.043758437314160424  0.09470009140716232  1.0000
  C   C23       1.0  0.9378465620180377  0.094698462090939  0.04375727188613606  1.0000
  C   C24       1.0  0.5621608129684788  0.9562423875909046  0.9053017244520305  1.0000
  C   C25       1.0  0.16130991951407478  0.003961136057078799  0.9126003292206732  1.0000
  C   C26       1.0  0.33868248495519987  0.0874038404848676  0.9960442408963388  1.0000
  C   C27       1.0  0.8386916460952137  0.996039700158903  0.08740012357517915  1.0000
  C   C28       1.0  0.6613172323018192  0.9125979391500396  0.0039565509790336255  1.0000
  C   C29       1.0  0.08565802863227388  0.019449094075909595  0.7885642322957196  1.0000
  C   C30       1.0  0.41433764256971267  0.2114412189232269  0.9805554881869366  1.0000
  C   C31       1.0  0.9143447311994066  0.9805517403024454  0.21143570653867272  1.0000
  C   C32       1.0  0.5856614015900092  0.7885614759959196  0.0194468270102703  1.0000
  C   C33       1.0  0.9160236897444065  0.9416778426351088  0.7121604940388834  1.0000
  C   C34       1.0  0.583973025279235  0.2878432982251553  0.05832921503925091  1.0000
  C   C35       1.0  0.08398038783072792  0.05832112172917192  0.2878389454574943  1.0000
  C   C36       1.0  0.4160270421632717  0.7121611972901576  0.9416768170824952  1.0000
  C   C37       1.0  0.38281399372073827  0.2471673642036621  0.6379513700471618  1.0000
  C   C38       1.0  0.1171766540931074  0.3620504392642019  0.7528302571826584  1.0000
  C   C39       1.0  0.617182880585183  0.7528315585921985  0.3620545496255189  1.0000
  C   C40       1.0  0.8828120408465452  0.6379487462171555  0.24716312728435247  1.0000
  C   C41       1.0  0.5156694372392606  0.1949318826419102  0.707734955845531  1.0000
  C   C42       1.0  0.9843226593450751  0.2922647066367503  0.8050650544351753  1.0000
  C   C43       1.0  0.48433039405510653  0.8050680156679986  0.2922666997551744  1.0000
  C   C44       1.0  0.015667324886905663  0.7077325693849235  0.19493037799948357  1.0000
  N   N1        1.0  0.3943316742779288  0.6076939882968304  0.6126846443813461  1.0000
  N   N2        1.0  0.10566482593334574  0.38731082756113017  0.3923095567117159  1.0000
  N   N3        1.0  0.6056687160763801  0.39230687605383713  0.38731462417218404  1.0000
  N   N4        1.0  0.894338683098134  0.6126871576138554  0.6076931189337245  1.0000
  N   N5        1.0  0.641759900567081  0.7719498670964101  0.6864853281962623  1.0000
  N   N6        1.0  0.8582386797786156  0.3135115995577565  0.22805277754179804  1.0000
  N   N7        1.0  0.3582423476232037  0.22805006698386884  0.3135127521758605  1.0000
  N   N8        1.0  0.14176461066187335  0.6864901614157547  0.7719473215510817  1.0000
  O   O1        1.0  0.2253266572632455  0.17826504000183263  0.5861854587112489  1.0000
  O   O2        1.0  0.27466858200955363  0.41381524634704203  0.821734049683215  1.0000
  O   O3        1.0  0.7746721222972041  0.8217330182663076  0.4138150272705871  1.0000
  O   O4        1.0  0.7253260840420737  0.5861839299462162  0.17825676497650292  1.0000
  O   O5        1.0  0.4453206522486681  0.3664643612928984  0.638784193836166  1.0000
  O   O6        1.0  0.054669668039970545  0.36122309606597014  0.6335363398855591  1.0000
  O   O7        1.0  0.5546724589667562  0.6335363563010787  0.36122834770877427  1.0000
  O   O8        1.0  0.9453132253170508  0.6387826428765493  0.3664588816750012  1.0000
