data_image0
_chemical_formula_structural       Zn2H28C32N10O10
_chemical_formula_sum              "Zn2 H28 C32 N10 O10"
_cell_length_a       9.710910558311648
_cell_length_b       10.280524439068214
_cell_length_c       11.305312181554255
_cell_angle_alpha    117.10680198715843
_cell_angle_beta     97.08641914549395
_cell_angle_gamma    110.21693702540536

_space_group_name_H-M_alt    "P 1"
_space_group_IT_number       1

loop_
  _space_group_symop_operation_xyz
  'x, y, z'

loop_
  _atom_site_type_symbol
  _atom_site_label
  _atom_site_symmetry_multiplicity
  _atom_site_fract_x
  _atom_site_fract_y
  _atom_site_fract_z
  _atom_site_occupancy
  Zn  Zn1       1.0  0.407162592320219  0.3930083691641214  0.25134059301288386  1.0000
  Zn  Zn2       1.0  0.5928348737189565  0.6069931990154058  0.7486591624215105  1.0000
  H   H1        1.0  0.4076941706356223  0.8739384291051095  0.19582196791244408  1.0000
  H   H2        1.0  0.5923101216619384  0.1260693678883413  0.8041890203782028  1.0000
  H   H3        1.0  0.2199914583066089  0.15461149997403814  0.4739357032796858  1.0000
  H   H4        1.0  0.780008607305639  0.8453937686890708  0.5260667337256207  1.0000
  H   H5        1.0  0.2714279034571305  0.766427060800815  0.502321988044251  1.0000
  H   H6        1.0  0.7285597063690686  0.23356582747899066  0.49767582709901587  1.0000
  H   H7        1.0  0.05547994425210588  0.12413720588321545  0.6315209954314085  1.0000
  H   H8        1.0  0.9445175445719515  0.875864371364649  0.3684814197378826  1.0000
  H   H9        1.0  0.2662215273716697  0.23586675661326942  0.6911859008066441  1.0000
  H   H10       1.0  0.7337765039688264  0.764131173540683  0.3088150562236081  1.0000
  H   H11       1.0  0.047924750572747095  0.1334094508235921  0.052871021505026795  1.0000
  H   H12       1.0  0.9520759339426517  0.8665824318449038  0.9471285790126556  1.0000
  H   H13       1.0  0.41615003844322723  0.34588981634996685  0.934838791995027  1.0000
  H   H14       1.0  0.5838474503808229  0.6541117608978978  0.06516362317425718  1.0000
  H   H15       1.0  0.6094679212556995  0.3146891467497426  0.046663577347970886  1.0000
  H   H16       1.0  0.39053213676158544  0.6853161188905829  0.953337973079037  1.0000
  H   H17       1.0  0.0065718440806107805  0.5803005730565045  0.41102151636562195  1.0000
  H   H18       1.0  0.9934344735413771  0.41970234725700084  0.5889770385127802  1.0000
  H   H19       1.0  0.7461087307176654  0.5855906389386829  0.49203899929791806  1.0000
  H   H20       1.0  0.25390015387099396  0.41442329585795784  0.5079661522922975  1.0000
  H   H21       1.0  0.8696322422766227  0.27922701071303624  0.028015231600058102  1.0000
  H   H22       1.0  0.13036113422362652  0.7207623144176762  0.9719816868267936  1.0000
  H   H23       1.0  0.04120399150281167  0.4361948727582074  0.17658154797127415  1.0000
  H   H24       1.0  0.9587940438537145  0.5637981743428923  0.8234147302823513  1.0000
  H   H25       1.0  0.015152769426691698  0.6477722742654917  0.13660382824633632  1.0000
  H   H26       1.0  0.9848447162555299  0.35221464777823996  0.8633827774364772  1.0000
  H   H27       1.0  0.8389708100930446  0.4946760981037243  0.9932309273385368  1.0000
  H   H28       1.0  0.1610319243211293  0.5053133599909784  0.00676168217925277  1.0000
  C   C1        1.0  0.3412297252394865  0.8031979240130197  0.34147435644489826  1.0000
  C   C2        1.0  0.6587614852110163  0.19680110644046775  0.6585237157614825  1.0000
  C   C3        1.0  0.35805282006448635  0.8967023519188188  0.28012033923927504  1.0000
  C   C4        1.0  0.6419435971271309  0.10330408252460187  0.7198839826872214  1.0000
  C   C5        1.0  0.31479993556794733  0.022700637540431494  0.3289291554398516  1.0000
  C   C6        1.0  0.6852027354228764  0.9773058915912068  0.6710740670372028  1.0000
  C   C7        1.0  0.25385423750599045  0.056304576858302396  0.43943796722530937  1.0000
  C   C8        1.0  0.7461490005756203  0.9437007572855832  0.5605692395250584  1.0000
  C   C9        1.0  0.23686440901553138  0.9621890003059261  0.49985177891883104  1.0000
  C   C10       1.0  0.7631304802354392  0.03780887645836369  0.500147954679548  1.0000
  C   C11       1.0  0.2804528926441846  0.8358543123639773  0.451682330632863  1.0000
  C   C12       1.0  0.7195435741332261  0.16414725716325754  0.5483226319867922  1.0000
  C   C13       1.0  0.3898917933850611  0.6692281482467306  0.28940823899414153  1.0000
  C   C14       1.0  0.6100947867995359  0.33076472928967593  0.7105912370211981  1.0000
  C   C15       1.0  0.3354044139269234  0.12183923690705704  0.26197056357043635  1.0000
  C   C16       1.0  0.6646092228841097  0.878171130042645  0.7380371253320204  1.0000
  C   C17       1.0  0.16649158809484277  0.13453313898348537  0.6812903069731318  1.0000
  C   C18       1.0  0.8335064012548228  0.8654696591094362  0.3187108959422602  1.0000
  C   C19       1.0  0.11387025609334961  0.1627490510528062  0.9902366012921032  1.0000
  C   C20       1.0  0.8861277886475987  0.837246442108885  0.009763346217276713  1.0000
  C   C21       1.0  0.3047888296128818  0.2761571630938775  0.9377997506248686  1.0000
  C   C22       1.0  0.6952086994125323  0.7238371031772103  0.062199635981812725  1.0000
  C   C23       1.0  0.6796152538325726  0.3894684300249052  0.15749665843042482  1.0000
  C   C24       1.0  0.32039206841956497  0.6105418180543437  0.8425050372950975  1.0000
  C   C25       1.0  0.8855674307843058  0.5276172424408969  0.3495598592535599  1.0000
  C   C26       1.0  0.1144357389426602  0.47238806449797716  0.650439368292133  1.0000
  C   C27       1.0  0.7569375198016599  0.5291401402350713  0.3880717072172003  1.0000
  C   C28       1.0  0.2430651359992453  0.47086638285101395  0.611929742103257  1.0000
  C   C29       1.0  0.9292938285253455  0.41008105455169636  0.11231388933384778  1.0000
  C   C30       1.0  0.07070574459335434  0.5899132271606432  0.8876804023721048  1.0000
  C   C31       1.0  0.9536893285160768  0.5177041827578106  0.050190054949233176  1.0000
  C   C32       1.0  0.04631130104513656  0.48228523571341225  0.949800556842909  1.0000
  N   N1        1.0  0.17641160608974357  0.17168525146401234  0.8220532336950084  1.0000
  N   N2        1.0  0.823585917130181  0.8283114548221133  0.17794804901083694  1.0000
  N   N3        1.0  0.05281757796217329  0.09790270305513357  0.8532836680547075  1.0000
  N   N4        1.0  0.9471788852363046  0.902093980396465  0.14671572921002243  1.0000
  N   N5        1.0  0.26839821200679376  0.27296424070453895  0.04641985382132669  1.0000
  N   N6        1.0  0.7316003618501483  0.7270300423555084  0.9535796450698867  1.0000
  N   N7        1.0  0.6293769643519126  0.4428948578249389  0.26666774466262666  1.0000
  N   N8        1.0  0.3706303444997729  0.5571178272465643  0.733334960583768  1.0000
  N   N9        1.0  0.8345082817090839  0.438850449497842  0.20363186523923096  1.0000
  N   N10       1.0  0.16549543232379443  0.5611536533849487  0.7963686868448787  1.0000
  O   O1        1.0  0.35697529044509924  0.5787794578723079  0.3425225905528392  1.0000
  O   O2        1.0  0.6430185503954248  0.421213516027386  0.6574714654060897  1.0000
  O   O3        1.0  0.4563011678968748  0.6492530856415114  0.19809675681871403  1.0000
  O   O4        1.0  0.5436890187175223  0.3507434940535319  0.8019010801605687  1.0000
  O   O5        1.0  0.3580458058627798  0.07052433790411779  0.14630002750513427  1.0000
  O   O6        1.0  0.6419880899066611  0.9294948586982555  0.8537054050639198  1.0000
  O   O7        1.0  0.3305689782153961  0.26123670216797734  0.333757551811125  1.0000
  O   O8        1.0  0.6694399961604275  0.7387650567357011  0.6662452119096327  1.0000
  O   O9        1.0  0.17545227862318324  0.9840820507399074  0.6073373187826404  1.0000
  O   O10       1.0  0.8245394667488027  0.0159133295968914  0.3926584087064028  1.0000
