data_image0
_chemical_formula_structural       Zn8C24O26
_chemical_formula_sum              "Zn8 C24 O26"
_cell_length_a       15.963402858042253
_cell_length_b       16.060642607508747
_cell_length_c       15.994273924153523
_cell_angle_alpha    120.06898293505556
_cell_angle_beta     119.81454859423967
_cell_angle_gamma    90.00826310964341

_space_group_name_H-M_alt    "P 1"
_space_group_IT_number       1

loop_
  _space_group_symop_operation_xyz
  'x, y, z'

loop_
  _atom_site_type_symbol
  _atom_site_label
  _atom_site_symmetry_multiplicity
  _atom_site_fract_x
  _atom_site_fract_y
  _atom_site_fract_z
  _atom_site_occupancy
  Zn  Zn1       1.0  0.04660879990163385  0.9267218722993392  0.8780361365201235  1.0000
  Zn  Zn2       1.0  0.0549572160226575  0.930691540950221  0.08583383777749289  1.0000
  Zn  Zn3       1.0  0.849951400197966  0.9304181144841479  0.888244758560468  1.0000
  Zn  Zn4       1.0  0.052160016613832696  0.12978555508093587  0.08356063246878163  1.0000
  Zn  Zn5       1.0  0.44531703317349525  0.5275853191512424  0.0799902591314351  1.0000
  Zn  Zn6       1.0  0.45432904864433976  0.5301695830782478  0.8842199316886694  1.0000
  Zn  Zn7       1.0  0.4519209779038746  0.3292071277611299  0.8824322889950624  1.0000
  Zn  Zn8       1.0  0.6520729389051638  0.5306576026743386  0.08903547028833005  1.0000
  C   C1        1.0  0.15792183178000838  0.8178191658970845  0.9766405635667399  1.0000
  C   C2        1.0  0.22068244719559965  0.7527064918636482  0.9744360239465524  1.0000
  C   C3        1.0  0.27398432522493726  0.6988534857392922  0.9747874877874244  1.0000
  C   C4        1.0  0.33855715937705366  0.635592115842293  0.9769017565199507  1.0000
  C   C5        1.0  0.8335784080815998  0.8202326772283399  0.6651734590146177  1.0000
  C   C6        1.0  0.7673536272279478  0.7562731463981435  0.5373497378221829  1.0000
  C   C7        1.0  0.7136289551555349  0.7026058906367253  0.4302328663984127  1.0000
  C   C8        1.0  0.6518705462374612  0.638548426409727  0.3023866284119236  1.0000
  C   C9        1.0  0.1549458812026643  0.13455947644042957  0.9746699890894492  1.0000
  C   C10       1.0  0.2178330130731894  0.19767649153893527  0.9727814838039919  1.0000
  C   C11       1.0  0.27145214629605624  0.25190086707117837  0.9734578132987013  1.0000
  C   C12       1.0  0.3364330270325553  0.31703063555283256  0.9756949883731212  1.0000
  C   C13       1.0  0.8475631611469227  0.8219762578595324  0.9915640802538307  1.0000
  C   C14       1.0  0.7852932324573203  0.7577450431253396  0.9929281167109779  1.0000
  C   C15       1.0  0.7319873819742924  0.7037674480615479  0.9928179805459366  1.0000
  C   C16       1.0  0.6665326915188459  0.6393537267495474  0.9908214644020747  1.0000
  C   C17       1.0  0.1666518304763613  0.1402677460648576  0.30265246093508585  1.0000
  C   C18       1.0  0.2318757181356261  0.2046997762504645  0.43042522941319566  1.0000
  C   C19       1.0  0.2855581871154342  0.2584921738148153  0.5375278819124462  1.0000
  C   C20       1.0  0.3483422532770817  0.32203685476147825  0.6653303261194524  1.0000
  C   C21       1.0  0.8433194133119883  0.14043629022710746  0.9910671289464689  1.0000
  C   C22       1.0  0.7799423443613946  0.20490853561815206  0.9919811633627447  1.0000
  C   C23       1.0  0.7266137041070593  0.2587372801557706  0.9917157827017679  1.0000
  C   C24       1.0  0.6623340025230177  0.32229941296451875  0.9900999383856403  1.0000
  O   O1        1.0  0.0009553997987623955  0.979309914563899  0.9837802101904176  1.0000
  O   O2        1.0  0.13835448891913418  0.8462612211015638  0.053085281950316685  1.0000
  O   O3        1.0  0.12912863741865974  0.8396550491175602  0.9022978352548138  1.0000
  O   O4        1.0  0.36890073703829535  0.6142747111726623  0.9106211875869693  1.0000
  O   O5        1.0  0.3583068346790981  0.608177767246339  0.0451045133003164  1.0000
  O   O6        1.0  0.7894087691354487  0.8463499536424451  0.717918248455142  1.0000
  O   O7        1.0  0.9293157881601812  0.8434903474901245  0.7111613401133992  1.0000
  O   O8        1.0  0.7013621240590666  0.6141797366566236  0.2558957114758442  1.0000
  O   O9        1.0  0.5552015804988315  0.6134714297701862  0.2501799324577689  1.0000
  O   O10       1.0  0.1322936907099646  0.18229167605579732  0.04822670991697462  1.0000
  O   O11       1.0  0.1292708683298116  0.038471982534915086  0.9031186883083892  1.0000
  O   O12       1.0  0.3630044538397925  0.27176368575165805  0.905567609418057  1.0000
  O   O13       1.0  0.3602203775669039  0.41262942246439144  0.0477886867026953  1.0000
  O   O14       1.0  0.7987576942423262  0.8462593963438465  0.9202477672879753  1.0000
  O   O15       1.0  0.9441097338901869  0.8471996534239208  0.06144097611270633  1.0000
  O   O16       1.0  0.71141270610142  0.6152378610394109  0.06302437907186212  1.0000
  O   O17       1.0  0.570715185947506  0.613702366131548  0.9166860733343755  1.0000
  O   O18       1.0  0.1418561276027006  0.0445131750198726  0.2541114770672054  1.0000
  O   O19       1.0  0.1408063073045298  0.18618704463820987  0.2524695525033707  1.0000
  O   O20       1.0  0.37245800149719344  0.4179743786949644  0.7151527002843637  1.0000
  O   O21       1.0  0.37244289831441796  0.275060217219611  0.7142456146787737  1.0000
  O   O22       1.0  0.7960636369110858  0.04469960052730219  0.9221228022391658  1.0000
  O   O23       1.0  0.9395815917678049  0.18635126010975966  0.0589976702311218  1.0000
  O   O24       1.0  0.7085697187255562  0.41820503878859927  0.06370507948665949  1.0000
  O   O25       1.0  0.5663412342146118  0.2752527262008329  0.9149473909461892  1.0000
  O   O26       1.0  0.5010619447909761  0.47968566856772554  0.984367209806969  1.0000
