data_image0
_chemical_formula_structural       Mg2H36C28O12
_chemical_formula_sum              "Mg2 H36 C28 O12"
_cell_length_a       7.9317633167751165
_cell_length_b       8.138246851709038
_cell_length_c       12.11646762323618
_cell_angle_alpha    90.00011224153192
_cell_angle_beta     89.9992837339475
_cell_angle_gamma    106.5222021099484

_space_group_name_H-M_alt    "P 1"
_space_group_IT_number       1

loop_
  _space_group_symop_operation_xyz
  'x, y, z'

loop_
  _atom_site_type_symbol
  _atom_site_label
  _atom_site_symmetry_multiplicity
  _atom_site_fract_x
  _atom_site_fract_y
  _atom_site_fract_z
  _atom_site_occupancy
  Mg  Mg1       1.0  0.9999977944273295  0.4999984076054247  0.500000006032934  1.0000
  Mg  Mg2       1.0  0.9999979203674416  0.9999954921922197  0.9999983647105778  1.0000
  H   H1        1.0  0.41470525627749305  0.15377323871205562  0.36516174455964284  1.0000
  H   H2        1.0  0.5853033802465148  0.34622550177820693  0.8651674526859592  1.0000
  H   H3        1.0  0.5852949256961251  0.8462299435825569  0.6348366201465793  1.0000
  H   H4        1.0  0.4147100252062543  0.6537840619208453  0.13483751455417087  1.0000
  H   H5        1.0  0.5163888717473171  0.3612232501995932  0.42360010812056703  1.0000
  H   H6        1.0  0.48360412315859236  0.13878179260314025  0.9236047367885546  1.0000
  H   H7        1.0  0.48360160815507675  0.6387812377830572  0.5763990819496171  1.0000
  H   H8        1.0  0.5164036077259838  0.8612341975196004  0.07639940515613118  1.0000
  H   H9        1.0  0.4017372370323784  0.19118606308600758  0.5087903165759186  1.0000
  H   H10       1.0  0.5982738664143954  0.30881100800044703  0.008789895664904198  1.0000
  H   H11       1.0  0.5982668536287861  0.8088132621537127  0.4912088734347079  1.0000
  H   H12       1.0  0.40174079895358256  0.6911985527030636  0.9912109449547798  1.0000
  H   H13       1.0  0.8107538538192643  0.9243451289551459  0.3020976739222121  1.0000
  H   H14       1.0  0.18924089760192694  0.5756492389430293  0.8020997002631417  1.0000
  H   H15       1.0  0.18924683418463667  0.0756554869744051  0.6978982148111114  1.0000
  H   H16       1.0  0.8107587886137395  0.4243436838762946  0.1979019657306793  1.0000
  H   H17       1.0  0.7536298886408446  0.08260249007695109  0.22501466776768814  1.0000
  H   H18       1.0  0.2463705389584732  0.41739790712682623  0.725015839690691  1.0000
  H   H19       1.0  0.24636538295426647  0.9173968561746121  0.774978745018032  1.0000
  H   H20       1.0  0.7536319148936458  0.5826001394298358  0.2749833503258685  1.0000
  H   H21       1.0  0.6540456945592864  0.025622260695037403  0.3581569816953021  1.0000
  H   H22       1.0  0.3459484671238826  0.47437396683614  0.8581574049158006  1.0000
  H   H23       1.0  0.34595045995992996  0.9743758008700852  0.6418380817320325  1.0000
  H   H24       1.0  0.6540508421655176  0.5256176743004772  0.1418434357556961  1.0000
  H   H25       1.0  0.4109392050584404  0.35960976796098976  0.2340601524652186  1.0000
  H   H26       1.0  0.5890551224083111  0.14039190346662173  0.7340622615731929  1.0000
  H   H27       1.0  0.589053794560904  0.6403947140162315  0.7659423388867522  1.0000
  H   H28       1.0  0.41094582364961246  0.8596010163479376  0.2659427057076158  1.0000
  H   H29       1.0  0.40008715997470995  0.1601686245540606  0.1690576247580395  1.0000
  H   H30       1.0  0.5999178882825831  0.3398395987045575  0.669059902584273  1.0000
  H   H31       1.0  0.599912763831405  0.8398422538411977  0.8309432159233835  1.0000
  H   H32       1.0  0.4000816688614819  0.6601571721666274  0.3309417634125679  1.0000
  H   H33       1.0  0.3116937283814282  0.3078581535619378  0.1007947907941613  1.0000
  H   H34       1.0  0.6883069965048918  0.192143839793836  0.6007961471738312  1.0000
  H   H35       1.0  0.6883050646053873  0.6921488797800704  0.8992077005355411  1.0000
  H   H36       1.0  0.31168979303514277  0.8078478073441245  0.399204693508075  1.0000
  C   C1        1.0  0.4012940873425351  0.24758874340787432  0.42644209709764874  1.0000
  C   C2        1.0  0.5987009945679773  0.2524150046544946  0.9264450969933974  1.0000
  C   C3        1.0  0.5987020671199447  0.7524093181500718  0.5735587435910289  1.0000
  C   C4        1.0  0.4013088791153905  0.7475996977811336  0.07356069558770169  1.0000
  C   C5        1.0  0.23176107058955606  0.2968101498089339  0.4185213785173545  1.0000
  C   C6        1.0  0.7682349311474822  0.2031833554616256  0.9185154864099443  1.0000
  C   C7        1.0  0.7682284075083886  0.703186645061443  0.5814852394594183  1.0000
  C   C8        1.0  0.2317654986970155  0.796824956569594  0.08148205297552379  1.0000
  C   C9        1.0  0.0996857870453525  0.21651457294906606  0.3370104916877636  1.0000
  C   C10       1.0  0.9003135816296249  0.28347656535130034  0.8370143418750686  1.0000
  C   C11       1.0  0.9003137701392422  0.783482197927242  0.6629870476938322  1.0000
  C   C12       1.0  0.09968988418577854  0.7165163484629459  0.16298980007228175  1.0000
  C   C13       1.0  0.9153391497031862  0.1830524393039141  0.36599162158364607  1.0000
  C   C14       1.0  0.08465132637329735  0.31694890751640514  0.8659865711902623  1.0000
  C   C15       1.0  0.08465170712545955  0.8169533303614498  0.6340083938088554  1.0000
  C   C16       1.0  0.9153489847124521  0.6830504267314695  0.1340076668976877  1.0000
  C   C17       1.0  0.7747619983668699  0.044286233517617284  0.3098231015272432  1.0000
  C   C18       1.0  0.22523890613337733  0.4557126654035812  0.809822846991139  1.0000
  C   C19       1.0  0.22523365016260752  0.9557143944176829  0.6901703112577519  1.0000
  C   C20       1.0  0.7747653135831811  0.5442828117822318  0.19017799366255866  1.0000
  C   C21       1.0  0.14818812541686552  0.17348658018665472  0.22838206913618814  1.0000
  C   C22       1.0  0.8518213030061546  0.3265189173841491  0.7283847250131004  1.0000
  C   C23       1.0  0.8518113027285635  0.8265140387456142  0.7716121689562384  1.0000
  C   C24       1.0  0.14818367052238557  0.6734791231619538  0.271621892900491  1.0000
  C   C25       1.0  0.32988368479297503  0.25712838910661867  0.18260070341138854  1.0000
  C   C26       1.0  0.6701120304532253  0.2428746917913003  0.6826022757835446  1.0000
  C   C27       1.0  0.6701154851525146  0.7428799259221961  0.8173993119484351  1.0000
  C   C28       1.0  0.3298875266908396  0.7571220790798845  0.3173993902132963  1.0000
  O   O1        1.0  0.20819409696845534  0.3959276483172829  0.4934460170763159  1.0000
  O   O2        1.0  0.7917933900335187  0.10405029669475138  0.9934398019188747  1.0000
  O   O3        1.0  0.7917933776908157  0.6040537603500624  0.5065581249296187  1.0000
  O   O4        1.0  0.20821045275678074  0.8959438988083548  0.006560213412505799  1.0000
  O   O5        1.0  0.862994258461491  0.2644567687638713  0.4411425060338701  1.0000
  O   O6        1.0  0.1370005449744625  0.2355341169560532  0.9411443456964078  1.0000
  O   O7        1.0  0.13699761047634954  0.7355438681775226  0.558847605474547  1.0000
  O   O8        1.0  0.8630014131764341  0.7644536701324965  0.058852368346407495  1.0000
  O   O9        1.0  0.038540096341868904  0.0802437760825256  0.16282705180030627  1.0000
  O   O10       1.0  0.9614556303811667  0.419758072232895  0.6628297481847197  1.0000
  O   O11       1.0  0.961462099383269  0.9197619665799054  0.837170487576209  1.0000
  O   O12       1.0  0.03854707136614622  0.580245104063451  0.3371661405419458  1.0000
