data_image0
_chemical_formula_structural       H24Pb2C28I4N4
_chemical_formula_sum              "H24 Pb2 C28 I4 N4"
_cell_length_a       7.891821110248889
_cell_length_b       10.930592686947358
_cell_length_c       10.93206580632629
_cell_angle_alpha    67.65320763249656
_cell_angle_beta     72.17109258049871
_cell_angle_gamma    72.17829690579622

_space_group_name_H-M_alt    "P 1"
_space_group_IT_number       1

loop_
  _space_group_symop_operation_xyz
  'x, y, z'

loop_
  _atom_site_type_symbol
  _atom_site_label
  _atom_site_symmetry_multiplicity
  _atom_site_fract_x
  _atom_site_fract_y
  _atom_site_fract_z
  _atom_site_occupancy
  H   H1        1.0  0.2706346146097187  0.3601190514482512  0.11486392104852429  1.0000
  H   H2        1.0  0.2294238954248514  0.8845997553967491  0.6399943544911579  1.0000
  H   H3        1.0  0.7292931594459516  0.6400672483145654  0.8849288970031994  1.0000
  H   H4        1.0  0.7704386933815854  0.11519801071984401  0.3601651014307095  1.0000
  H   H5        1.0  0.39844873672447534  0.11737684964713678  0.2317886550854098  1.0000
  H   H6        1.0  0.10145704241621435  0.7678580283048363  0.8828372333496404  1.0000
  H   H7        1.0  0.6013698392140654  0.8828613277581354  0.7681138296260244  1.0000
  H   H8        1.0  0.8983612644212897  0.2320566105871364  0.11740619628097453  1.0000
  H   H9        1.0  0.6196002690458472  0.9049931074112365  0.223157027761708  1.0000
  H   H10       1.0  0.8803775946566714  0.776789680167525  0.09513844947073845  1.0000
  H   H11       1.0  0.3801917533425511  0.09517338993641998  0.7768694345637358  1.0000
  H   H12       1.0  0.11947931619179292  0.2233023074761604  0.9050155391464687  1.0000
  H   H13       1.0  0.45050925137176984  0.5452560103118103  0.7509778766141224  1.0000
  H   H14       1.0  0.04957517202864642  0.24846444934438242  0.4546662723552544  1.0000
  H   H15       1.0  0.5493610759705803  0.45471882310452827  0.24872957535364293  1.0000
  H   H16       1.0  0.9507745761173041  0.7513798397441748  0.5454297480975542  1.0000
  H   H17       1.0  0.39540533023210866  0.5695604343096646  0.911374534401098  1.0000
  H   H18       1.0  0.10584203291463011  0.0878433857357663  0.4305676449240678  1.0000
  H   H19       1.0  0.6050067477199903  0.4306200662044404  0.08818711468661178  1.0000
  H   H20       1.0  0.8939855921663737  0.9120191404635279  0.569561968714666  1.0000
  H   H21       1.0  0.23825440826571753  0.5207807832827387  0.8619424047243457  1.0000
  H   H22       1.0  0.26208117581533236  0.1381085995056779  0.47942490559573514  1.0000
  H   H23       1.0  0.761750174505977  0.4793648544204243  0.13807755609694528  1.0000
  H   H24       1.0  0.7380977932363209  0.8614208453411082  0.5206945962599148  1.0000
  Pb  Pb1       1.0  0.7502794429004922  0.3993652965677441  0.6005788441298847  1.0000
  Pb  Pb2       1.0  0.24998783873004973  0.6005988267096427  0.39930209425171637  1.0000
  C   C1        1.0  0.3843526283116248  0.2997449990999925  0.06138367862129711  1.0000
  C   C2        1.0  0.1157997320283712  0.938176772446333  0.7003635557294885  1.0000
  C   C3        1.0  0.6155829878794492  0.7004333506977076  0.9384534317659503  1.0000
  C   C4        1.0  0.88415118725284  0.061660732486117795  0.2997874755724795  1.0000
  C   C5        1.0  0.45471667770245017  0.1667347575587428  0.12568573340394099  1.0000
  C   C6        1.0  0.04537220089108738  0.8739996230936383  0.8333744015421019  1.0000
  C   C7        1.0  0.545183701600763  0.8334194433687828  0.8742343640406104  1.0000
  C   C8        1.0  0.9545644735779533  0.1259099325687529  0.166788764238305  1.0000
  C   C9        1.0  0.46149169013541086  0.3609538179266565  0.9236893752779096  1.0000
  C   C10       1.0  0.0388906170004688  0.07591997527782722  0.6390753921873511  1.0000
  C   C11       1.0  0.5385485107902357  0.6391355341766952  0.07616584899469803  1.0000
  C   C12       1.0  0.9611504354329341  0.9239095076126065  0.3610448813932689  1.0000
  C   C13       1.0  0.673976963221037  0.1594129005337024  0.9154313995098989  1.0000
  C   C14       1.0  0.8263687965456442  0.08441439946566479  0.8405500658725913  1.0000
  C   C15       1.0  0.3260004906380373  0.8406605024871823  0.08454913999521091  1.0000
  C   C16       1.0  0.17365131402490872  0.915582236804738  0.15950528268570707  1.0000
  C   C17       1.0  0.6784611212106668  0.953469497784873  0.11722431484017178  1.0000
  C   C18       1.0  0.8216550101902769  0.8827103467232434  0.046579482181925744  1.0000
  C   C19       1.0  0.32137375338211166  0.04665561983711089  0.8828395571668538  1.0000
  C   C20       1.0  0.17828089845336592  0.11732489391032172  0.9535447969876433  1.0000
  C   C21       1.0  0.6026515935587896  0.0919423307181759  0.05374517925148576  1.0000
  C   C22       1.0  0.897543258266147  0.9460588144519021  0.9081222920149019  1.0000
  C   C23       1.0  0.3972671215344192  0.9081816294826839  0.9462217592296512  1.0000
  C   C24       1.0  0.1024189853563158  0.05393187718998149  0.0920131967358486  1.0000
  C   C25       1.0  0.38396166647421387  0.5064995171891198  0.8575653422615304  1.0000
  C   C26       1.0  0.11657016744592136  0.14200177089705332  0.49357210081434744  1.0000
  C   C27       1.0  0.6161032872753864  0.49360891107107097  0.14221392430289376  1.0000
  C   C28       1.0  0.8835456755357786  0.8577720495540716  0.5065418549140546  1.0000
  I   I1        1.0  0.5019547329649898  0.2755466427756375  0.5179780443469755  1.0000
  I   I2        1.0  0.997845156619242  0.4822972439488069  0.7247826392501865  1.0000
  I   I3        1.0  0.49820614262803536  0.7244499415311267  0.4819699882170525  1.0000
  I   I4        1.0  0.0022428421040175117  0.5175939451310612  0.27525135087964975  1.0000
  N   N1        1.0  0.6018462132527631  0.2919996149792539  0.8536600514981317  1.0000
  N   N2        1.0  0.8986189133968879  0.1460887529147072  0.707958873956997  1.0000
  N   N3        1.0  0.39820626434985923  0.7080483376597115  0.14624673095839563  1.0000
  N   N4        1.0  0.10145322242364323  0.8538572576252934  0.29209421981276756  1.0000
