data_image0
_chemical_formula_structural       Sr8H152C156N8O56
_chemical_formula_sum              "Sr8 H152 C156 N8 O56"
_cell_length_a       14.293034713869506
_cell_length_b       19.30940979326552
_cell_length_c       19.576437292004492
_cell_angle_alpha    64.40401593837355
_cell_angle_beta     73.1062640640995
_cell_angle_gamma    75.82567724162321

_space_group_name_H-M_alt    "P 1"
_space_group_IT_number       1

loop_
  _space_group_symop_operation_xyz
  'x, y, z'

loop_
  _atom_site_type_symbol
  _atom_site_label
  _atom_site_symmetry_multiplicity
  _atom_site_fract_x
  _atom_site_fract_y
  _atom_site_fract_z
  _atom_site_occupancy
  Sr  Sr1       1.0  0.3509519392040161  0.7392421622399963  0.7825506102226568  1.0000
  Sr  Sr2       1.0  0.6490500292422609  0.2607583710293539  0.2174475635629776  1.0000
  Sr  Sr3       1.0  0.08732125094212516  0.797871777486449  0.7452634119022148  1.0000
  Sr  Sr4       1.0  0.9126797818698407  0.20212990263966182  0.25473601099301396  1.0000
  Sr  Sr5       1.0  0.8321605818033861  0.7457154728788349  0.7646662735775394  1.0000
  Sr  Sr6       1.0  0.1678386670525285  0.2542839069371609  0.23533193880025746  1.0000
  Sr  Sr7       1.0  0.5818104435888857  0.833588344054611  0.7178465058792437  1.0000
  Sr  Sr8       1.0  0.41818870470341096  0.16641158703462364  0.282155072148683  1.0000
  H   H1        1.0  0.38288091906215266  0.3106566161036639  0.8317552759389668  1.0000
  H   H2        1.0  0.6171196794290879  0.6893392569478747  0.16824769881608856  1.0000
  H   H3        1.0  0.3223582891355861  0.22610806070147757  0.8741746021675212  1.0000
  H   H4        1.0  0.6776392809646907  0.7738884064200845  0.1258267211824631  1.0000
  H   H5        1.0  0.39581817111255196  0.14208212800784986  0.005545058733943597  1.0000
  H   H6        1.0  0.604178577168092  0.857918977447653  0.99445449116201  1.0000
  H   H7        1.0  0.4465080550487741  0.15554559007491509  0.11042219741112554  1.0000
  H   H8        1.0  0.5534912986984325  0.8444531814308359  0.8895798239803057  1.0000
  H   H9        1.0  0.6564922276375571  0.30405130497964433  0.9410203851133899  1.0000
  H   H10       1.0  0.34350576662359344  0.6959468857253625  0.058982168050114685  1.0000
  H   H11       1.0  0.6066537098191346  0.2901073092298176  0.8353443120834854  1.0000
  H   H12       1.0  0.39334543816404727  0.7098926259334915  0.1646567534684564  1.0000
  H   H13       1.0  0.39262148615053155  0.18664007433278573  0.6914179955932482  1.0000
  H   H14       1.0  0.6073770334533464  0.8133592805342783  0.30858344668561  1.0000
  H   H15       1.0  0.43981474160289474  0.13797124342420367  0.7784734673204383  1.0000
  H   H16       1.0  0.5601816874081678  0.8620275301376024  0.22152866177563618  1.0000
  H   H17       1.0  0.29163835110841047  0.3212061289734222  0.6684033961743692  1.0000
  H   H18       1.0  0.7083642343208324  0.6787909173973288  0.33159713265375507  1.0000
  H   H19       1.0  0.23086285545614524  0.3044091848190931  0.7671210585990166  1.0000
  H   H20       1.0  0.7691335729366812  0.695589596890862  0.23288004554509462  1.0000
  H   H21       1.0  0.002947376736912616  0.5160740392171802  0.6927041615867535  1.0000
  H   H22       1.0  0.9970483313272496  0.4839288173312609  0.3072933408811451  1.0000
  H   H23       1.0  0.20203905463360883  0.6233462370296649  0.7314246514066339  1.0000
  H   H24       1.0  0.7979620802875759  0.3766548714528567  0.26857396821838353  1.0000
  H   H25       1.0  0.3353133060472048  0.5147713085101556  0.7257478037057794  1.0000
  H   H26       1.0  0.6646830183816874  0.4852280692878278  0.27425102885264613  1.0000
  H   H27       1.0  0.5032078271444433  0.33463821298572327  0.7031304863127447  1.0000
  H   H28       1.0  0.4967906921503129  0.6653611459554083  0.2968704434901285  1.0000
  H   H29       1.0  0.5447301395103351  0.23787656073606198  0.7078003149525998  1.0000
  H   H30       1.0  0.45527015079854033  0.7621210516907053  0.29220199475718545  1.0000
  H   H31       1.0  0.7798057275245398  0.20917001347214634  0.5184489592824447  1.0000
  H   H32       1.0  0.22019436779840626  0.7908328379551716  0.48154863786648144  1.0000
  H   H33       1.0  0.563029107501059  0.3149117636927769  0.37756994229767565  1.0000
  H   H34       1.0  0.43696796283123973  0.6850916369897673  0.6224316406820092  1.0000
  H   H35       1.0  0.44368326595608204  0.3461275286120582  0.4856289746673211  1.0000
  H   H36       1.0  0.5563144204318177  0.6538723973940961  0.5143734259269052  1.0000
  H   H37       1.0  0.390175841222458  0.5722801377483859  0.9492877029995697  1.0000
  H   H38       1.0  0.60982716805853  0.4277186362798771  0.050713543166082814  1.0000
  H   H39       1.0  0.304061780253612  0.3848500864543779  0.9526773300745717  1.0000
  H   H40       1.0  0.6959408162628478  0.6151510311852915  0.04731995450816841  1.0000
  H   H41       1.0  0.42415187461669746  0.392160885190229  0.8912480021719345  1.0000
  H   H42       1.0  0.5758518639163343  0.6078379137869658  0.10875001409266354  1.0000
  H   H43       1.0  0.32349893951540304  0.46604786715369045  0.8609440599491194  1.0000
  H   H44       1.0  0.6765039642560638  0.5339515233329593  0.13905235225092835  1.0000
  H   H45       1.0  0.33986234860413594  0.3907894462071296  0.06398185140425734  1.0000
  H   H46       1.0  0.6601382597378418  0.6092105144096108  0.93601582920148  1.0000
  H   H47       1.0  0.4044198339776344  0.4662961241508795  0.04878270007355214  1.0000
  H   H48       1.0  0.5955796209514334  0.5337020879334842  0.9512169806197265  1.0000
  H   H49       1.0  0.46849935977328283  0.3867689237033146  0.021608177342933698  1.0000
  H   H50       1.0  0.5314993649763835  0.6132292756543335  0.9783931958234505  1.0000
  H   H51       1.0  0.20126052870267583  0.6640168756025842  0.9675675087539374  1.0000
  H   H52       1.0  0.7987425820692948  0.33598133493022425  0.03243190918953326  1.0000
  H   H53       1.0  0.15840841654851803  0.47834520017668314  0.046025958936901645  1.0000
  H   H54       1.0  0.8415935537524747  0.5216553086482418  0.9539752897046296  1.0000
  H   H55       1.0  0.05344070117393333  0.5367561877952765  0.08020066742030002  1.0000
  H   H56       1.0  0.9465610630539132  0.4632454887612739  0.9197991129057568  1.0000
  H   H57       1.0  0.17480981055447134  0.5573681241884711  0.06425064470333551  1.0000
  H   H58       1.0  0.8251910155661052  0.4426347318174208  0.9357462849244552  1.0000
  H   H59       1.0  0.10742579092511316  0.5092459226407084  0.9237411089635543  1.0000
  H   H60       1.0  0.8925709579737672  0.49075517466664537  0.07625946588436969  1.0000
  H   H61       1.0  0.08753541571053348  0.6088904316181355  0.8599974428496181  1.0000
  H   H62       1.0  0.9124603963175562  0.39111182884227697  0.1400023312039735  1.0000
  H   H63       1.0  0.9962367770445653  0.5704207578695202  0.9450077584343362  1.0000
  H   H64       1.0  0.0037622697567555974  0.42957973671517635  0.054995647815772465  1.0000
  H   H65       1.0  0.056049928545505195  0.011584130171691194  0.8456174151145531  1.0000
  H   H66       1.0  0.9439531825355874  0.9884140762870429  0.15438251530490998  1.0000
  H   H67       1.0  0.1162404472809868  0.12007563713616073  0.8524590996792084  1.0000
  H   H68       1.0  0.8837581747412244  0.8799231420132327  0.14754205180541646  1.0000
  H   H69       1.0  0.40866013217309677  0.05304174782775558  0.7369611190129034  1.0000
  H   H70       1.0  0.5913399668592804  0.9469610547106978  0.26304262784782395  1.0000
  H   H71       1.0  0.3483728875093918  0.9450949903340626  0.7336842109443678  1.0000
  H   H72       1.0  0.6516304438232511  0.05490607892124898  0.26631906830501606  1.0000
  H   H73       1.0  0.8247109540339181  0.9348465023090851  0.6270647126094318  1.0000
  H   H74       1.0  0.17528693688154107  0.06515227633580169  0.3729365939203504  1.0000
  H   H75       1.0  0.9080589943290747  0.10344525340728687  0.5100779564481924  1.0000
  H   H76       1.0  0.09193733164541139  0.8965541040203387  0.48992343849015185  1.0000
  H   H77       1.0  0.8669965205669714  0.10352244668565896  0.6058404363824863  1.0000
  H   H78       1.0  0.13300252407051977  0.896478076417537  0.39415938253573296  1.0000
  H   H79       1.0  0.8029013326476004  0.05873872440660218  0.5737545486374032  1.0000
  H   H80       1.0  0.19709541686951582  0.94126236475261  0.4262470511624841  1.0000
  H   H81       1.0  0.06381818457822418  0.05129352858516969  0.5592113376476033  1.0000
  H   H82       1.0  0.9361810642776902  0.9487058512308263  0.44078687473020023  1.0000
  H   H83       1.0  0.08621491880252562  0.947578323104629  0.5983635075340955  1.0000
  H   H84       1.0  0.9137843303625104  0.05242105263729259  0.4016352173196864  1.0000
  H   H85       1.0  0.03714972461835231  0.998570726795826  0.6619261272054898  1.0000
  H   H86       1.0  0.9628524486645916  0.0014286550381755  0.3380714649916853  1.0000
  H   H87       1.0  0.5177100782153233  0.8258029876882912  0.5587444943449142  1.0000
  H   H88       1.0  0.48228928569174206  0.17419986730858733  0.44125274537318404  1.0000
  H   H89       1.0  0.3668985370019585  0.9100166012719553  0.4376367068815695  1.0000
  H   H90       1.0  0.6331037507139  0.0899862638910847  0.5623588877039367  1.0000
  H   H91       1.0  0.4939125973089632  0.8834315845035261  0.4433651197394466  1.0000
  H   H92       1.0  0.5060897931343434  0.11657070086776858  0.5566306965278187  1.0000
  H   H93       1.0  0.4387800181693393  0.9827498326620511  0.4171546581785961  1.0000
  H   H94       1.0  0.5612200771536068  0.017253018765259795  0.5828429389703301  1.0000
  H   H95       1.0  0.3245791681216303  0.021010455632868692  0.5289803216041733  1.0000
  H   H96       1.0  0.6754204015494594  0.9789912357064591  0.4710178739534214  1.0000
  H   H97       1.0  0.30137245028985393  0.9418305680648867  0.6227018659224797  1.0000
  H   H98       1.0  0.6986312885522992  0.05816822683823369  0.3772966628180967  1.0000
  H   H99       1.0  0.24944311277491957  0.9508159520295644  0.5461361675229313  1.0000
  H   H100      1.0  0.7505568674968757  0.049183424216856494  0.4538624022856934  1.0000
  H   H101      1.0  0.990021353730789  0.8301621097883821  0.9052140448087869  1.0000
  H   H102      1.0  0.009978833850631514  0.16983608243013032  0.09478804321924629  1.0000
  H   H103      1.0  0.05014679540702358  0.8271778554600359  0.012573081188229137  1.0000
  H   H104      1.0  0.9498511979267618  0.17282034746718006  0.9874279345473196  1.0000
  H   H105      1.0  0.9093120966339114  0.6243652041976657  0.1674900783855051  1.0000
  H   H106      1.0  0.09068109822216291  0.37563532709172154  0.8325094434660228  1.0000
  H   H107      1.0  0.84772713405534  0.6290134668994793  0.057862817901188725  1.0000
  H   H108      1.0  0.15226668948915292  0.3709876406120784  0.9421368396994082  1.0000
  H   H109      1.0  0.05622114842618236  0.8265611569252866  0.1237807524986394  1.0000
  H   H110      1.0  0.9437802949864817  0.17343820810793176  0.8762190446476197  1.0000
  H   H111      1.0  0.15267860500207323  0.7524112416266603  0.10851371243509068  1.0000
  H   H112      1.0  0.8473192843677851  0.24758755738859134  0.8914850317147724  1.0000
  H   H113      1.0  0.21010081128605415  0.7687408119320692  0.27250632821404247  1.0000
  H   H114      1.0  0.7898973992081013  0.23126029453243996  0.7274929115915966  1.0000
  H   H115      1.0  0.2504650114560221  0.7835333028537759  0.17229939541112327  1.0000
  H   H116      1.0  0.749534237709014  0.21646607288814573  0.8276993294426589  1.0000
  H   H117      1.0  0.076006519635186  0.010474548551940195  0.18282633715443097  1.0000
  H   H118      1.0  0.9239963859909894  0.9895248174902844  0.8171731499015208  1.0000
  H   H119      1.0  0.15965732473008393  0.10069342510049485  0.19592815556190146  1.0000
  H   H120      1.0  0.8403417199074069  0.8993070980027011  0.8040716633563179  1.0000
  H   H121      1.0  0.4066573194017239  0.9231355727879346  0.2500243236216093  1.0000
  H   H122      1.0  0.5933423536150642  0.07686553061150646  0.7499751185697006  1.0000
  H   H123      1.0  0.3312248156661894  0.83531137138889  0.2253106050983007  1.0000
  H   H124      1.0  0.6687776787410512  0.16469031789437585  0.7746874827546506  1.0000
  H   H125      1.0  0.14930977169316162  0.6422296908115893  0.32468192053016764  1.0000
  H   H126      1.0  0.8506909396853854  0.3577696859393383  0.6753164942333002  1.0000
  H   H127      1.0  0.09542810217867984  0.62298798574389  0.2639148181015257  1.0000
  H   H128      1.0  0.9045726104363467  0.37701137471075435  0.7360856465658756  1.0000
  H   H129      1.0  0.14102801396029463  0.557294554250454  0.19864190307007587  1.0000
  H   H130      1.0  0.8589744792104669  0.4427071513291023  0.8013541348789415  1.0000
  H   H131      1.0  0.20459495265495062  0.4260651946526932  0.1998391164150561  1.0000
  H   H132      1.0  0.795405346886426  0.5739365134874246  0.8001568741934476  1.0000
  H   H133      1.0  0.4809434659062859  0.4359952120035046  0.2389350843978305  1.0000
  H   H134      1.0  0.5190551558068038  0.564003571219956  0.7610655546108163  1.0000
  H   H135      1.0  0.41638340610854385  0.5687794975178447  0.23949649667412123  1.0000
  H   H136      1.0  0.5836179333401859  0.4312204636034023  0.760501028886459  1.0000
  H   H137      1.0  0.9816101855324676  0.8251935390355454  0.2513775756628789  1.0000
  H   H138      1.0  0.018389899012376514  0.17480523704877973  0.748623778207417  1.0000
  H   H139      1.0  0.9562205916063534  0.7273358625598686  0.2931082263916807  1.0000
  H   H140      1.0  0.043779389283678014  0.27266350553841784  0.7068913683689144  1.0000
  H   H141      1.0  0.06133054119676735  0.7358132526339741  0.48106031676016414  1.0000
  H   H142      1.0  0.9386675548644733  0.2641843705014962  0.5189409206571439  1.0000
  H   H143      1.0  0.9354018924120524  0.7724086999900163  0.5829281157645737  1.0000
  H   H144      1.0  0.06459798513228782  0.22759125604815714  0.41707023236229895  1.0000
  H   H145      1.0  0.724368935243433  0.8613141246327344  0.4366226363193275  1.0000
  H   H146      1.0  0.27563031423072465  0.13868524703511298  0.5633766010104395  1.0000
  H   H147      1.0  0.848385874807441  0.8266844520064465  0.33438783074714706  1.0000
  H   H148      1.0  0.15161494022592592  0.17331433273051997  0.6656123431260211  1.0000
  H   H149      1.0  0.13610859678185963  0.40573962630804755  0.6877302395553713  1.0000
  H   H150      1.0  0.8638881521170207  0.5942614709993065  0.31227033529255266  1.0000
  H   H151      1.0  0.664743592551666  0.2421733816163324  0.6251623471877822  1.0000
  H   H152      1.0  0.3352577478244286  0.7578265672826986  0.3748367158007467  1.0000
  C   C1        1.0  0.38760755235968253  0.2599959472935466  0.7512081116246847  1.0000
  C   C2        1.0  0.612390544628923  0.7400016636197079  0.24879466322057192  1.0000
  C   C3        1.0  0.38713087776257277  0.2526239120393895  0.8324761737229875  1.0000
  C   C4        1.0  0.6128673216443657  0.7473731231562012  0.16752631032803578  1.0000
  C   C5        1.0  0.499790528720382  0.21458969292275037  0.9145812272603207  1.0000
  C   C6        1.0  0.500209658551917  0.7854085033698368  0.08542034829173414  1.0000
  C   C7        1.0  0.453165849571846  0.17720854983517847  0.9916990564774508  1.0000
  C   C8        1.0  0.5468320416527277  0.8227902247356409  0.008302762528309459  1.0000
  C   C9        1.0  0.4819142576744753  0.18462952022505155  0.05018411736836008  1.0000
  C   C10       1.0  0.5180813368841372  0.815369840772149  0.949816920139156  1.0000
  C   C11       1.0  0.5557343579548117  0.22974182474352023  0.032446213139287694  1.0000
  C   C12       1.0  0.4442642631400418  0.7702569666280819  0.9675534009173887  1.0000
  C   C13       1.0  0.600177976078129  0.2681656264913314  0.9546730522542716  1.0000
  C   C14       1.0  0.3998183505145931  0.7318337227881526  0.045329367636036046  1.0000
  C   C15       1.0  0.5724862594010744  0.2605957395831878  0.8959327876420248  1.0000
  C   C16       1.0  0.42750945051780326  0.7394070925208283  0.1040677896817782  1.0000
  C   C17       1.0  0.5869102107387008  0.23798236721781765  0.09515221969427758  1.0000
  C   C18       1.0  0.41308914146291187  0.7620164246582916  0.9048472393172415  1.0000
  C   C19       1.0  0.38150983812998635  0.18184490908454615  0.7514211937711934  1.0000
  C   C20       1.0  0.6184881552038064  0.8181532938426768  0.24857982196436265  1.0000
  C   C21       1.0  0.2992704399677282  0.31960196043156214  0.7234813976988832  1.0000
  C   C22       1.0  0.7007266171135171  0.6803973975005702  0.27651984219429687  1.0000
  C   C23       1.0  0.24291961459046962  0.45256820084065896  0.7093579931438468  1.0000
  C   C24       1.0  0.7570767123113811  0.5474311443647508  0.29064493922244594  1.0000
  C   C25       1.0  0.07599586550425387  0.5148000253100021  0.7003813581296683  1.0000
  C   C26       1.0  0.923998792801811  0.485200490692108  0.2996199035354791  1.0000
  C   C27       1.0  0.09256016118358451  0.5755252713086987  0.7145045747394009  1.0000
  C   C28       1.0  0.9074373182038186  0.4244758346513037  0.2854948201114026  1.0000
  C   C29       1.0  0.18719701010681433  0.5756645803848386  0.7222764150483055  1.0000
  C   C30       1.0  0.8128026622917375  0.42433653116274417  0.27772200219104076  1.0000
  C   C31       1.0  0.2619544727620067  0.5152390104915838  0.7192130287311684  1.0000
  C   C32       1.0  0.7380413284879881  0.48475917462584295  0.2807905020437858  1.0000
  C   C33       1.0  0.009827307162289953  0.6372964346321834  0.7243606999081179  1.0000
  C   C34       1.0  0.9901720589086126  0.3627063918461956  0.2756401271418695  1.0000
  C   C35       1.0  0.4850277736937584  0.2866158775939168  0.6954533826004408  1.0000
  C   C36       1.0  0.5149715803625696  0.7133828898377671  0.3045491512669756  1.0000
  C   C37       1.0  0.5449632861485865  0.29452242364119735  0.5626886266569074  1.0000
  C   C38       1.0  0.45503492620028396  0.7054786583788796  0.43731368800463594  1.0000
  C   C39       1.0  0.7055911754037111  0.23855466745580137  0.5119759333679424  1.0000
  C   C40       1.0  0.2944071390543714  0.7614458429206716  0.48802557802338953  1.0000
  C   C41       1.0  0.6785925009679517  0.2573306831218999  0.44217926333328705  1.0000
  C   C42       1.0  0.32140707086698234  0.7426709796989284  0.5578225195561828  1.0000
  C   C43       1.0  0.5842623493731908  0.2980833248735948  0.43238978668691885  1.0000
  C   C44       1.0  0.41573523459638295  0.7019171768502371  0.5676129047015338  1.0000
  C   C45       1.0  0.5177738507315225  0.3159014358768458  0.49196918605652934  1.0000
  C   C46       1.0  0.48222383534726293  0.6840984942033896  0.5080327020617049  1.0000
  C   C47       1.0  0.7482330148029491  0.23252918531423447  0.3807149694640728  1.0000
  C   C48       1.0  0.25176645368629386  0.7674730654464738  0.6192855667916817  1.0000
  C   C49       1.0  0.3752740719735712  0.5465328843136773  0.9134235669396132  1.0000
  C   C50       1.0  0.6247282058915431  0.4534658932841537  0.08657732179521817  1.0000
  C   C51       1.0  0.355537434763562  0.42564415460213906  0.9108337439145159  1.0000
  C   C52       1.0  0.6444646361010488  0.5743558029495403  0.08916413907688538  1.0000
  C   C53       1.0  0.3985009335681653  0.4259533822113325  0.024871727762139532  1.0000
  C   C54       1.0  0.6015005089171412  0.5740459950441019  0.9751265319561777  1.0000
  C   C55       1.0  0.16489977605033354  0.6549334909563027  0.9300400026830856  1.0000
  C   C56       1.0  0.8351008335281237  0.34506645336415426  0.0699597278265784  1.0000
  C   C57       1.0  0.12777343652145134  0.5374922576103031  0.04292547263442263  1.0000
  C   C58       1.0  0.8722278011271883  0.46250827108047327  0.9570733686723472  1.0000
  C   C59       1.0  0.07595522401810942  0.5682324457663339  0.9205835960969252  1.0000
  C   C60       1.0  0.9240421538783108  0.4317692236891233  0.07941762697605269  1.0000
  C   C61       1.0  0.16259790958910264  0.9107327459971795  0.7788185863289742  1.0000
  C   C62       1.0  0.8374068821023429  0.08926834871157038  0.2211813079741987  1.0000
  C   C63       1.0  0.19840386538341193  0.9724516849969967  0.7874483655819234  1.0000
  C   C64       1.0  0.8015977967352156  0.027550563203149588  0.21255221801435206  1.0000
  C   C65       1.0  0.1329400590142527  0.02129413843936589  0.8220681215086215  1.0000
  C   C66       1.0  0.8670610749795741  0.9787069822653645  0.1779289606884405  1.0000
  C   C67       1.0  0.16529327073430272  0.08162744938822188  0.8255018978409367  1.0000
  C   C68       1.0  0.8347064029007284  0.91837364586307  0.17449856930234373  1.0000
  C   C69       1.0  0.26366223178597176  0.09543445165989785  0.7923468777954312  1.0000
  C   C70       1.0  0.736336815015349  0.9045660429247987  0.20765652845467739  1.0000
  C   C71       1.0  0.3309215406315431  0.045821156102867584  0.759781259042917  1.0000
  C   C72       1.0  0.6690797007265274  0.9541793236990512  0.24022373197565364  1.0000
  C   C73       1.0  0.29736165552390764  0.9845290747440738  0.7583480732024909  1.0000
  C   C74       1.0  0.7026396993397201  0.015474900609092391  0.24165338277646226  1.0000
  C   C75       1.0  0.9002054658889805  0.9295635309101298  0.6342745184904076  1.0000
  C   C76       1.0  0.099793784512535  0.07043582853550837  0.36572625626730826  1.0000
  C   C77       1.0  0.8759812946868095  0.0697096676026945  0.5706886559794881  1.0000
  C   C78       1.0  0.12401722460794669  0.9302896913384371  0.4293122738233849  1.0000
  C   C79       1.0  0.03714118070941202  0.9984544278939608  0.6057450160750049  1.0000
  C   C80       1.0  0.9628573373488721  0.0015449473434613976  0.3942538638239342  1.0000
  C   C81       1.0  0.45464977327584694  0.8590593339844614  0.5845158322269698  1.0000
  C   C82       1.0  0.5453498985044618  0.14094178571126284  0.41548156006040665  1.0000
  C   C83       1.0  0.4265035724417672  0.922517872916991  0.45378294841217565  1.0000
  C   C84       1.0  0.5734973567153857  0.07748439922308137  0.5462147153733453  1.0000
  C   C85       1.0  0.3136455789363524  0.9597418809100873  0.5599247754172294  1.0000
  C   C86       1.0  0.6863542986079877  0.04025807512807939  0.4400735727096432  1.0000
  C   C87       1.0  0.8869236072695299  0.7288389296560281  0.9070541853762535  1.0000
  C   C88       1.0  0.11307574524119703  0.2711598581460065  0.09294578611125101  1.0000
  C   C89       1.0  0.9153754822883827  0.7294589520069007  0.9743872373956036  1.0000
  C   C90       1.0  0.0846215744837409  0.27054040999929896  0.025613490021598306  1.0000
  C   C91       1.0  0.9714041823674793  0.7853227480523016  0.9628374822235624  1.0000
  C   C92       1.0  0.028593605820525225  0.21467661038433042  0.037163602624467294  1.0000
  C   C93       1.0  0.00564059074753947  0.7836325457053728  0.023410746809190613  1.0000
  C   C94       1.0  0.994357299240555  0.21636624516172984  0.9765890222926431  1.0000
  C   C95       1.0  0.9827464575004471  0.7251777102567798  0.09707218951931654  1.0000
  C   C96       1.0  0.01725007361983442  0.2748204916614298  0.9029291363065469  1.0000
  C   C97       1.0  0.9251544765264157  0.6696351515539402  0.10984695069888774  1.0000
  C   C98       1.0  0.07484571012764721  0.3303630528867885  0.8901535999011967  1.0000
  C   C99       1.0  0.8916722665120248  0.672251552910822  0.048883619636242846  1.0000
  C   C100      1.0  0.10832635489195036  0.327747234386706  0.9511165068964189  1.0000
  C   C101      1.0  0.08480218885350872  0.7644295348066233  0.14867718620931927  1.0000
  C   C102      1.0  0.9151948673003715  0.23556983534771794  0.8513225162559193  1.0000
  C   C103      1.0  0.10693114765174987  0.7440964741518667  0.22760376750903089  1.0000
  C   C104      1.0  0.8930689353474931  0.25590232230281623  0.7723950239813461  1.0000
  C   C105      1.0  0.18632546892267504  0.7906055922862475  0.21724223944384843  1.0000
  C   C106      1.0  0.8136744089307868  0.20939435967785155  0.7827566211590024  1.0000
  C   C107      1.0  0.19706788043872342  0.9166613410532846  0.20477473606804608  1.0000
  C   C108      1.0  0.8029346118046803  0.08334037674848098  0.795219764453023  1.0000
  C   C109      1.0  0.14970550632334323  0.9919408048813306  0.19539052386935657  1.0000
  C   C110      1.0  0.8502973996119606  0.008058557086819499  0.8046094756625806  1.0000
  C   C111      1.0  0.19596774539556353  0.04184239494055219  0.2044085951763677  1.0000
  C   C112      1.0  0.8040321330761341  0.9581575488754054  0.7955912903784538  1.0000
  C   C113      1.0  0.28811564430719017  0.016940640707517194  0.22573074274473726  1.0000
  C   C114      1.0  0.711882773187476  0.9830592858031432  0.7742715028043322  1.0000
  C   C115      1.0  0.3347658713234837  0.9418419985222284  0.2343010249293087  1.0000
  C   C116      1.0  0.6652326495168737  0.058157340048545295  0.765702467253476  1.0000
  C   C117      1.0  0.29123884557271407  0.8919400536808831  0.22240712598578247  1.0000
  C   C118      1.0  0.7087632249827821  0.10805990794487025  0.7775902445296409  1.0000
  C   C119      1.0  0.33495520950086183  0.06891024309600617  0.2402841349965712  1.0000
  C   C120      1.0  0.6650422705047775  0.9310908547158548  0.7597162848061954  1.0000
  C   C121      1.0  0.1454108197800039  0.6577659856827578  0.2643336804811438  1.0000
  C   C122      1.0  0.8545921879553974  0.34223280871586326  0.7356650033045966  1.0000
  C   C123      1.0  0.27481596570069666  0.5701542581955932  0.22060332419868434  1.0000
  C   C124      1.0  0.7251866295792907  0.4298468757403525  0.7793919104801148  1.0000
  C   C125      1.0  0.2154766474972263  0.5309701819423011  0.20768318192917687  1.0000
  C   C126      1.0  0.7845273060323379  0.4690315490906796  0.7923094710736222  1.0000
  C   C127      1.0  0.25200923951499726  0.4574805626078769  0.20715454475841708  1.0000
  C   C128      1.0  0.7479919965880484  0.542519986453257  0.7928417341684336  1.0000
  C   C129      1.0  0.3469372710294181  0.4221205232014639  0.21963648737737168  1.0000
  C   C130      1.0  0.6530626077513944  0.5778794165404194  0.7803639106534347  1.0000
  C   C131      1.0  0.4066790468948157  0.4630555933809004  0.2301955412453437  1.0000
  C   C132      1.0  0.5933206255037291  0.536945518166682  0.7698028759940029  1.0000
  C   C133      1.0  0.3713233151757862  0.536824543663016  0.2301890867358978  1.0000
  C   C134      1.0  0.6286787553797026  0.4631754179627307  0.7698082837795183  1.0000
  C   C135      1.0  0.38189702961786753  0.3406239046375531  0.22575238216025176  1.0000
  C   C136      1.0  0.6181050418649862  0.6593760447659844  0.7742465257831127  1.0000
  C   C137      1.0  0.011831230364499833  0.7643473798294875  0.2805510858972084  1.0000
  C   C138      1.0  0.988170417884831  0.235650833768389  0.7194481296605916  1.0000
  C   C139      1.0  0.9626564330848739  0.7777070134284612  0.4022804347349761  1.0000
  C   C140      1.0  0.03734291880761732  0.22229178252171514  0.5977185118005579  1.0000
  C   C141      1.0  0.9873482825874333  0.7638597054232575  0.47191173727235747  1.0000
  C   C142      1.0  0.012651698302597918  0.23613966267502198  0.5280878574882378  1.0000
  C   C143      1.0  0.9170381649204132  0.7841857608076521  0.5283674010359576  1.0000
  C   C144      1.0  0.08296234162146733  0.21581476737861746  0.4716315953159691  1.0000
  C   C145      1.0  0.8211674429584406  0.8187083738915175  0.5165863846610819  1.0000
  C   C146      1.0  0.17883212794913558  0.18129330115151987  0.48341386080044657  1.0000
  C   C147      1.0  0.7984109708992976  0.8339876715250795  0.4460726886224152  1.0000
  C   C148      1.0  0.20159006191266826  0.16601400860103868  0.5539267342728137  1.0000
  C   C149      1.0  0.8681360039901662  0.813967836716735  0.3886826486128071  1.0000
  C   C150      1.0  0.13186407993644175  0.18603094751573215  0.6113176803055183  1.0000
  C   C151      1.0  0.7438838685001273  0.8355648245747955  0.5794069174950849  1.0000
  C   C152      1.0  0.2561163307867531  0.1644374307644866  0.4205929512395343  1.0000
  C   C153      1.0  0.15038803651890487  0.4533055425415282  0.6974773612117814  1.0000
  C   C154      1.0  0.8496087126890971  0.5466955506917585  0.30252372611212747  1.0000
  C   C155      1.0  0.6405057559260924  0.25721818212680597  0.5720469799648028  1.0000
  C   C156      1.0  0.3594917246977829  0.742782907536913  0.4279544647899272  1.0000
  N   N1        1.0  0.3755578391993312  0.4694966305676899  0.948393629837035  1.0000
  N   N2        1.0  0.6244444374293039  0.5305021633264245  0.051605208993862665  1.0000
  N   N3        1.0  0.12425139694224904  0.5896129340671548  0.9631634250396673  1.0000
  N   N4        1.0  0.8757492123270864  0.4103870143273765  0.03683579299401881  1.0000
  N   N5        1.0  0.9378612779493024  0.9962152151440614  0.6013603078408708  1.0000
  N   N6        1.0  0.0621372410363321  0.0037841478711441983  0.39864010948602413  1.0000
  N   N7        1.0  0.4003684053429736  0.9112620032612214  0.5350866238012983  1.0000
  N   N8        1.0  0.5996324210867244  0.08874084867059646  0.4649108183024707  1.0000
  O   O1        1.0  0.6433636847900673  0.28807177189644045  0.07624653981608276  1.0000
  O   O2        1.0  0.3566353589200588  0.7119287634289718  0.9237517416741949  1.0000
  O   O3        1.0  0.5553304720435291  0.19439260171236572  0.16594432033996043  1.0000
  O   O4        1.0  0.44467034175335846  0.8056061993208913  0.8340538036292815  1.0000
  O   O5        1.0  0.47723333782985133  0.20597816406932878  0.8545707817974061  1.0000
  O   O6        1.0  0.5227635033275037  0.7940182740292272  0.14543428392961727  1.0000
  O   O7        1.0  0.28644884293104417  0.1594485455965823  0.7940753662106131  1.0000
  O   O8        1.0  0.7135500999063422  0.8405525450761431  0.20592576845380256  1.0000
  O   O9        1.0  0.31892026081212077  0.39322091917320273  0.7132793603517342  1.0000
  O   O10       1.0  0.6810791959716624  0.6067772684667289  0.2867233951974412  1.0000
  O   O11       1.0  0.9244068419832273  0.6350104551046555  0.718743161524955  1.0000
  O   O12       1.0  0.07559272985170648  0.3649912077161658  0.2812586213645217  1.0000
  O   O13       1.0  0.027287667056889092  0.689922525662716  0.7408539152969238  1.0000
  O   O14       1.0  0.9727122237385045  0.3100814731258694  0.2591447759164467  1.0000
  O   O15       1.0  0.47233013323427286  0.31302452692352023  0.6176921268635807  1.0000
  O   O16       1.0  0.5276669130688775  0.6869707556656193  0.38231286975096884  1.0000
  O   O17       1.0  0.8236695115967835  0.1830010394121898  0.3971201150265387  1.0000
  O   O18       1.0  0.17632912460384628  0.8170017702654063  0.6028829169725397  1.0000
  O   O19       1.0  0.7286782251911035  0.2628008960569303  0.3126577817034785  1.0000
  O   O20       1.0  0.271321333392777  0.7371967240134792  0.6873436580995005  1.0000
  O   O21       1.0  0.3587674572382653  0.5878208847263194  0.8471857586374154  1.0000
  O   O22       1.0  0.6412322173241235  0.41218019830276365  0.15281624593381346  1.0000
  O   O23       1.0  0.22657865697242843  0.8608478774704833  0.7566899756927583  1.0000
  O   O24       1.0  0.7734241477810143  0.13915204391904715  0.2433123645373386  1.0000
  O   O25       1.0  0.07012988334510342  0.9109339277365506  0.7906841019250661  1.0000
  O   O26       1.0  0.9298745989274976  0.0890689226437047  0.20931307742890218  1.0000
  O   O27       1.0  0.16601553874631492  0.7027071717781224  0.8615720761137167  1.0000
  O   O28       1.0  0.8339860070846896  0.2972916175374253  0.13842743023831613  1.0000
  O   O29       1.0  0.9444550752133551  0.8647103933561764  0.6703745271316347  1.0000
  O   O30       1.0  0.055545636474313695  0.1352889793206842  0.3296244001078179  1.0000
  O   O31       1.0  0.43840752508458564  0.8480246660120299  0.6551471255729666  1.0000
  O   O32       1.0  0.5615920448956332  0.15197702125322368  0.34485158246061326  1.0000
  O   O33       1.0  0.9221461355921504  0.7779579286252057  0.8397061589379007  1.0000
  O   O34       1.0  0.07785760417736037  0.2220408540556987  0.1602939072306313  1.0000
  O   O35       1.0  0.832307650048115  0.6809523990316745  0.9166650851550243  1.0000
  O   O36       1.0  0.1676944205073809  0.3190475625940791  0.08333228536039174  1.0000
  O   O37       1.0  0.013146699583401828  0.7174992640991033  0.16052155867253495  1.0000
  O   O38       1.0  0.9868495236636293  0.2825006731202606  0.8394796145840501  1.0000
  O   O39       1.0  0.1457587116073071  0.8706650101673715  0.19618445328335818  1.0000
  O   O40       1.0  0.8542424217682765  0.1293361186855009  0.8038116039617406  1.0000
  O   O41       1.0  0.29932395711602305  0.14136340603194233  0.21884562731616336  1.0000
  O   O42       1.0  0.7006771781142759  0.8586376983765048  0.7811535047848392  1.0000
  O   O43       1.0  0.4079293075285619  0.04031125485226989  0.2739249334948468  1.0000
  O   O44       1.0  0.5920667115000385  0.9596898256543012  0.7260778463021608  1.0000
  O   O45       1.0  0.24375053944637412  0.6429517529732247  0.22179926687297077  1.0000
  O   O46       1.0  0.7562503776962047  0.357046460120145  0.7782001037299935  1.0000
  O   O47       1.0  0.32885504506314334  0.3063929163435829  0.2107031689869743  1.0000
  O   O48       1.0  0.671147653562535  0.6936076296524829  0.7892933123255547  1.0000
  O   O49       1.0  0.4627734418574149  0.3063253649158851  0.24808366041475693  1.0000
  O   O50       1.0  0.5372281049009473  0.6936734121774462  0.7519173833652244  1.0000
  O   O51       1.0  0.03551496529451015  0.753498465253308  0.3510949647906969  1.0000
  O   O52       1.0  0.9644859521571901  0.2464997437659874  0.6489049182882455  1.0000
  O   O53       1.0  0.7671122160900766  0.8171169956886428  0.6443054076229516  1.0000
  O   O54       1.0  0.2328898560110133  0.18288294556674597  0.3556945252723906  1.0000
  O   O55       1.0  0.6570690871857038  0.8664496119296811  0.56849873925551  1.0000
  O   O56       1.0  0.34293131879255867  0.1335514675298342  0.4315036227465471  1.0000
