data_image0
_chemical_formula_structural       ZnSiH24C28N4F6
_chemical_formula_sum              "Zn1 Si1 H24 C28 N4 F6"
_cell_length_a       7.744530030648491
_cell_length_b       13.980337926952203
_cell_length_c       13.98035166527358
_cell_angle_alpha    90.04089067874607
_cell_angle_beta     89.75485216318219
_cell_angle_gamma    89.75451538268511

_space_group_name_H-M_alt    "P 1"
_space_group_IT_number       1

loop_
  _space_group_symop_operation_xyz
  'x, y, z'

loop_
  _atom_site_type_symbol
  _atom_site_label
  _atom_site_symmetry_multiplicity
  _atom_site_fract_x
  _atom_site_fract_y
  _atom_site_fract_z
  _atom_site_occupancy
  Zn  Zn1       1.0  0.5000145952294871  0.49999532996139356  0.5000027804696998  1.0000
  Si  Si1       1.0  9.158571479899254e-06  0.4999927685685962  0.5000044309456655  1.0000
  H   H1        1.0  0.23114321572704447  0.6651065615327595  0.5000777439109072  1.0000
  H   H2        1.0  0.22775689337626653  0.8434814592987367  0.5000856788417423  1.0000
  H   H3        1.0  0.7677187651783441  0.6594163288999938  0.4999570568361164  1.0000
  H   H4        1.0  0.2323058478840068  0.34056999245258623  0.4999033037372199  1.0000
  H   H5        1.0  0.7688699933622658  0.3348798712787514  0.5000558712751229  1.0000
  H   H6        1.0  0.7722652729307667  0.156507115617174  0.5000665242538602  1.0000
  H   H7        1.0  0.2311545527334573  0.5000449551270735  0.6651112537423884  1.0000
  H   H8        1.0  0.22775129143987977  0.5000142873916928  0.8434816837942802  1.0000
  H   H9        1.0  0.7677176652359491  0.5001122720351177  0.6594326898378853  1.0000
  H   H10       1.0  0.2323134321075457  0.5000400452809048  0.3405829410282095  1.0000
  H   H11       1.0  0.7688713551031653  0.4998105130180762  0.3348792413404311  1.0000
  H   H12       1.0  0.7722552814157382  0.49983118974009955  0.15651026080606556  1.0000
  H   H13       1.0  0.9122173333951836  0.8248019134099497  0.5631263832332394  1.0000
  H   H14       1.0  0.8302097562459207  0.9259792280995427  0.4998441071561571  1.0000
  H   H15       1.0  0.9132580804596697  0.8244842670810756  0.4369147627987218  1.0000
  H   H16       1.0  0.0870792003329299  0.17511054846057317  0.5632898633275616  1.0000
  H   H17       1.0  0.16981893778494586  0.07401052671746562  0.49963142316118336  1.0000
  H   H18       1.0  0.08749447859607068  0.17557902225449604  0.4370778233181625  1.0000
  H   H19       1.0  0.9129147610332637  0.4366918289443547  0.824876486358903  1.0000
  H   H20       1.0  0.8301907391248022  0.5003304222231577  0.9259919878833998  1.0000
  H   H21       1.0  0.9125438557583365  0.5629010946245074  0.8244444398462959  1.0000
  H   H22       1.0  0.08778060610661238  0.4369124099720595  0.17518876199667943  1.0000
  H   H23       1.0  0.16979491289308873  0.5002117831057832  0.0740259818498714  1.0000
  H   H24       1.0  0.08678165943005918  0.5631205445201531  0.1755421212863482  1.0000
  C   C1        1.0  0.35091964073622256  0.7055460709858465  0.5000707630394743  1.0000
  C   C2        1.0  0.349814848940781  0.8045523531018549  0.5000482452085606  1.0000
  C   C3        1.0  0.5069687181017314  0.8551941006800021  0.500030714205529  1.0000
  C   C4        1.0  0.6631661188035878  0.8023678256008253  0.5000150407879218  1.0000
  C   C5        1.0  0.6503117722516122  0.7026346224639042  0.4999927590610084  1.0000
  C   C6        1.0  0.504103049495896  0.9563847992993575  0.5000260534498508  1.0000
  C   C7        1.0  0.49592203953439196  0.04359659076423841  0.5000467463225249  1.0000
  C   C8        1.0  0.49305771840838025  0.1447872826723682  0.5000277781681319  1.0000
  C   C9        1.0  0.3368593441217627  0.19761782006450096  0.4999583345827503  1.0000
  C   C10       1.0  0.3497086634232716  0.2973517315129754  0.4999448578539755  1.0000
  C   C11       1.0  0.6491014873584575  0.29444033691136445  0.5000192101414669  1.0000
  C   C12       1.0  0.650212662306778  0.19543548409749437  0.5000588880418277  1.0000
  C   C13       1.0  0.35092589471204855  0.5000656889766193  0.7055580821023638  1.0000
  C   C14       1.0  0.34980498164662777  0.5000210137596997  0.8045542612651317  1.0000
  C   C15       1.0  0.5069642264929469  0.5000153884714749  0.8552004979592026  1.0000
  C   C16       1.0  0.6631714223552406  0.5000631166541042  0.802373819143618  1.0000
  C   C17       1.0  0.6503163141903484  0.5000866387617863  0.7026507256829291  1.0000
  C   C18       1.0  0.5040914310014982  0.49997498210981206  0.9564089696723954  1.0000
  C   C19       1.0  0.49590304768960886  0.4999778075793842  0.0435959028087325  1.0000
  C   C20       1.0  0.49304057656785716  0.4999409648597251  0.1448022179009527  1.0000
  C   C21       1.0  0.3368459019321719  0.49998549731980546  0.1976360681847922  1.0000
  C   C22       1.0  0.34971639814123984  0.4999877082859002  0.29736058354590256  1.0000
  C   C23       1.0  0.6490958635130895  0.4998520172524508  0.2944403083757976  1.0000
  C   C24       1.0  0.6502091163128583  0.49988024763386824  0.19543840989882  1.0000
  C   C25       1.0  0.8386392108799967  0.8476828726565061  0.4999699641277857  1.0000
  C   C26       1.0  0.1613824766865548  0.15230348345667719  0.4999776654082239  1.0000
  C   C27       1.0  0.8386318542091047  0.5000049050201625  0.8477005545915333  1.0000
  C   C28       1.0  0.16138146687427476  0.5000666065705204  0.1523193597040375  1.0000
  N   N1        1.0  0.49993684650416975  0.6549584378245898  0.5000149030455674  1.0000
  N   N2        1.0  0.5000807198876984  0.345030805849234  0.4999928168002298  1.0000
  N   N3        1.0  0.49994390866346805  0.5000668135033308  0.6549664633002763  1.0000
  N   N4        1.0  0.5000878670904711  0.49992741832160453  0.3450348041625446  1.0000
  F   F1        1.0  0.22644139112733794  0.5014122259238435  0.5014271063260978  1.0000
  F   F2        1.0  0.7735787802899522  0.4985712923730645  0.4985806084284192  1.0000
  F   F3        1.0  1.260382369849978e-05  0.5860529662214163  0.4139342929553465  1.0000
  F   F4        1.0  4.419240795499975e-06  0.4139354328235784  0.5860724255975354  1.0000
  F   F5        1.0  0.9957634169318367  0.5861334980325952  0.5861309246727088  1.0000
  F   F6        1.0  0.0042632022775848  0.4138557337925236  0.4138732081663505  1.0000
