data_image0
_chemical_formula_structural       V2H32C52S4N4O6
_chemical_formula_sum              "V2 H32 C52 S4 N4 O6"
_cell_length_a       4.078102007118466
_cell_length_b       14.791179410629253
_cell_length_c       17.063729297161764
_cell_angle_alpha    83.54222308183631
_cell_angle_beta     83.14513579869116
_cell_angle_gamma    82.06271599499352

_space_group_name_H-M_alt    "P 1"
_space_group_IT_number       1

loop_
  _space_group_symop_operation_xyz
  'x, y, z'

loop_
  _atom_site_type_symbol
  _atom_site_label
  _atom_site_symmetry_multiplicity
  _atom_site_fract_x
  _atom_site_fract_y
  _atom_site_fract_z
  _atom_site_occupancy
  V   V1        1.0  0.2144923914990214  0.2500142512351927  0.7500378650774027  1.0000
  V   V2        1.0  0.7854952158741214  0.7499843091526585  0.24995793152804424  1.0000
  H   H1        1.0  0.5576410243126589  0.4591702770902585  0.5625849230689113  1.0000
  H   H2        1.0  0.5800857605721321  0.041142182127650494  0.937497217488847  1.0000
  H   H3        1.0  0.44233842478862334  0.5408351368775327  0.4374204013144265  1.0000
  H   H4        1.0  0.41990530014571464  0.9588591229182554  0.0624960720248353  1.0000
  H   H5        1.0  0.9399840434055944  0.44270338341990373  0.43861023501591495  1.0000
  H   H6        1.0  0.8216806874737159  0.05761230453529719  0.061544012897321906  1.0000
  H   H7        1.0  0.059991552117416955  0.5573075197466435  0.5613909735030944  1.0000
  H   H8        1.0  0.17827661732891878  0.942382138812526  0.938457238137545  1.0000
  H   H9        1.0  0.15327375235043653  0.28655754017151475  0.39742358884237217  1.0000
  H   H10       1.0  0.8363031351785538  0.21380829338205837  0.10282452003384891  1.0000
  H   H11       1.0  0.8467077606193314  0.7134519925909754  0.6025748720496864  1.0000
  H   H12       1.0  0.16364949863675787  0.7861875196467736  0.8971807197694233  1.0000
  H   H13       1.0  0.9873346803674041  0.14977672766543992  0.48111516744689453  1.0000
  H   H14       1.0  0.6180537981864236  0.35052250913592076  0.01893723029913021  1.0000
  H   H15       1.0  0.012652801492464635  0.8502300626043534  0.5188812473578182  1.0000
  H   H16       1.0  0.38191849213171747  0.6494719337859961  0.9810638458339156  1.0000
  H   H17       1.0  0.9433229476711844  0.07326144990054219  0.8089011210919921  1.0000
  H   H18       1.0  0.8252248015781661  0.4266834728700528  0.6910114197408745  1.0000
  H   H19       1.0  0.05666919939297806  0.926736424050226  0.19109545655641108  1.0000
  H   H20       1.0  0.1748006786954761  0.5733191988945804  0.3089887830023131  1.0000
  H   H21       1.0  0.8226499191134594  0.9114147156626301  0.8296117488503043  1.0000
  H   H22       1.0  0.5634400497147285  0.5885313779458697  0.6700439247970778  1.0000
  H   H23       1.0  0.1773312444060835  0.0885817900570416  0.1703791875015597  1.0000
  H   H24       1.0  0.43657901552212053  0.41147335276657765  0.32995414051060123  1.0000
  H   H25       1.0  0.0915517901784142  0.7981168656338368  0.7370838545778399  1.0000
  H   H26       1.0  0.6259186508324887  0.7019533566578813  0.7625125782956418  1.0000
  H   H27       1.0  0.9084754563640591  0.20187757847668314  0.2629115573821323  1.0000
  H   H28       1.0  0.3740942452710669  0.2980493154115037  0.2374878679138135  1.0000
  H   H29       1.0  0.47485160238143453  0.8458749522877723  0.619670021851789  1.0000
  H   H30       1.0  0.9396322753956243  0.6544412273874869  0.8799327952160354  1.0000
  H   H31       1.0  0.5251827282142684  0.15411743185092056  0.38032935497363957  1.0000
  H   H32       1.0  0.060359271598983404  0.3455621319669859  0.12006638999933729  1.0000
  C   C1        1.0  0.5491965386481681  0.3147452614994036  0.5928369766436391  1.0000
  C   C2        1.0  0.4565056282755931  0.18550111527211752  0.9073105783185583  1.0000
  C   C3        1.0  0.45079910229797104  0.6852587805557488  0.407167701800482  1.0000
  C   C4        1.0  0.5434775196666879  0.8145008730801918  0.09268786160163961  1.0000
  C   C5        1.0  0.6528949133743539  0.3916469463384401  0.5438123453381678  1.0000
  C   C6        1.0  0.5888486011824412  0.1086577606857162  0.9562990823052362  1.0000
  C   C7        1.0  0.3471009504415292  0.6083564111478309  0.4561899770130609  1.0000
  C   C8        1.0  0.4111386516174491  0.891340114832296  0.043694944495818816  1.0000
  C   C9        1.0  0.8648891259792465  0.3819457833821572  0.47485474777626285  1.0000
  C   C10       1.0  0.7220767639699162  0.1183753063477084  0.0252885788179285  1.0000
  C   C11       1.0  0.13509221556412826  0.6180630618605817  0.5251467707483074  1.0000
  C   C12       1.0  0.2778934281326998  0.8816211936538279  0.9747134970154576  1.0000
  C   C13       1.0  0.9853334307899146  0.2942593802612094  0.45148061159473235  1.0000
  C   C14       1.0  0.7309502043619887  0.20608601960577738  0.0486513713438725  1.0000
  C   C15       1.0  0.014655703545997751  0.7057467220667206  0.548519515695432  1.0000
  C   C16       1.0  0.2690291469756189  0.7939097963663144  0.9513467952244526  1.0000
  C   C17       1.0  0.8914676461943217  0.21800570764089136  0.4988419234388388  1.0000
  C   C18       1.0  0.6083318529222342  0.28229652156506546  0.0012059553052737111  1.0000
  C   C19       1.0  0.1085283777346718  0.7820010802174621  0.5011583519191163  1.0000
  C   C20       1.0  0.3916522726966104  0.7176972332313838  0.9987985212825168  1.0000
  C   C21       1.0  0.6744216995897431  0.22547503551542286  0.5695097428475793  1.0000
  C   C22       1.0  0.4693609322583751  0.2748139142070584  0.9305353870148636  1.0000
  C   C23       1.0  0.325569047092131  0.774529008106974  0.4304923847492006  1.0000
  C   C24       1.0  0.5306285905906238  0.7251846444337456  0.06946347816199254  1.0000
  C   C25       1.0  0.5628934263713319  0.1441035275249405  0.6130072035465233  1.0000
  C   C26       1.0  0.31965227583366135  0.35616436266781903  0.8869946372932773  1.0000
  C   C27       1.0  0.43713153921595455  0.8558950289977715  0.3869932763855389  1.0000
  C   C28       1.0  0.6803480474130837  0.6438355668540011  0.1130050417432074  1.0000
  C   C29       1.0  0.4262157188629632  0.9860555352843999  0.6501090499292133  1.0000
  C   C30       1.0  0.061803822201184536  0.5141315829679199  0.8497468496715969  1.0000
  C   C31       1.0  0.5738226141108315  0.013937532879936002  0.3498934064065153  1.0000
  C   C32       1.0  0.9381905949120863  0.4858669741056402  0.15025456635260073  1.0000
  C   C33       1.0  0.281087992309949  0.0507990743827875  0.7033175136260611  1.0000
  C   C34       1.0  0.03451136893534095  0.44929379786024265  0.7966346567791618  1.0000
  C   C35       1.0  0.718938414196913  0.9491967359146257  0.29668802424512114  1.0000
  C   C36       1.0  0.9654958325912092  0.5507095600443178  0.2033661809643448  1.0000
  C   C37       1.0  0.06276809545862944  0.023507513847960092  0.7688462950071511  1.0000
  C   C38       1.0  0.8545273562001726  0.47647871745284215  0.7310386359537945  1.0000
  C   C39       1.0  0.9372252692481594  0.976486245763752  0.23114880096461832  1.0000
  C   C40       1.0  0.14549754663048026  0.5235239540108337  0.2689621530778936  1.0000
  C   C41       1.0  0.9991015060023684  0.9326758434593787  0.7800502150269041  1.0000
  C   C42       1.0  0.7112174823953339  0.5673329757341178  0.7197136469441787  1.0000
  C   C43       1.0  0.0009186280772794539  0.06731859968960659  0.2199474049581838  1.0000
  C   C44       1.0  0.28881300081233263  0.43267449692398685  0.2802863581134858  1.0000
  C   C45       1.0  0.1490951358175179  0.8686324840674969  0.7275053764439507  1.0000
  C   C46       1.0  0.7444063237685724  0.6314363482027758  0.772206028238621  1.0000
  C   C47       1.0  0.8509297093795354  0.1313619601641633  0.2724899669515821  1.0000
  C   C48       1.0  0.2556069783515936  0.36856563664780845  0.22779688931483832  1.0000
  C   C49       1.0  0.36400406981833583  0.8947200011109044  0.6616246627170881  1.0000
  C   C50       1.0  0.9194904783365067  0.6054545722256676  0.838124291026624  1.0000
  C   C51       1.0  0.6360226908545739  0.10527444137370169  0.3383737492498398  1.0000
  C   C52       1.0  0.0805213030111318  0.39454947000550067  0.16187903993867542  1.0000
  S   S1        1.0  0.663807269512766  0.039227398173117885  0.5725153211507461  1.0000
  S   S2        1.0  0.2754136174161631  0.46111198468557996  0.9273412359376749  1.0000
  S   S3        1.0  0.3362327731634592  0.9607711565987315  0.42748739759795035  1.0000
  S   S4        1.0  0.7245948820131718  0.5388900004072852  0.07266154448689122  1.0000
  N   N1        1.0  0.3676652118586858  0.13870477404858408  0.6812884822930414  1.0000
  N   N2        1.0  0.1870064129839335  0.3614133312854619  0.8187568221262538  1.0000
  N   N3        1.0  0.6323468664286054  0.8612917258204005  0.3187111728404943  1.0000
  N   N4        1.0  0.8129941619493478  0.6385900272834776  0.1812432236354127  1.0000
  O   O1        1.0  0.8155008958548677  0.24978758167456755  0.750022798094605  1.0000
  O   O2        1.0  0.18450242880684461  0.7502068623224145  0.2499743419393567  1.0000
  O   O3        1.0  0.340623920785987  0.3296392084743899  0.656195614982444  1.0000
  O   O4        1.0  0.32569989372622365  0.1705277210152616  0.8440314672139949  1.0000
  O   O5        1.0  0.659367860798845  0.6703627761415233  0.3438090992094516  1.0000
  O   O6        1.0  0.6742937514839014  0.8294735812595844  0.15596671830103762  1.0000
