data_image0
_chemical_formula_structural       Cd2H16C28S4N12O4
_chemical_formula_sum              "Cd2 H16 C28 S4 N12 O4"
_cell_length_a       7.449516330087429
_cell_length_b       9.194695840129558
_cell_length_c       12.879880346432243
_cell_angle_alpha    83.30161972397971
_cell_angle_beta     73.20421576488437
_cell_angle_gamma    66.11081052996937

_space_group_name_H-M_alt    "P 1"
_space_group_IT_number       1

loop_
  _space_group_symop_operation_xyz
  'x, y, z'

loop_
  _atom_site_type_symbol
  _atom_site_label
  _atom_site_symmetry_multiplicity
  _atom_site_fract_x
  _atom_site_fract_y
  _atom_site_fract_z
  _atom_site_occupancy
  Cd  Cd1       1.0  0.8739168304863866  5.4114462095400014e-05  2.90681360013107e-05  1.0000
  Cd  Cd2       1.0  0.6240504156651809  0.4998962227690313  0.5000136846789687  1.0000
  H   H1        1.0  0.7934469950795561  0.6639540295619284  0.026014113924169604  1.0000
  H   H2        1.0  0.4828552858569353  0.3360020268743256  0.9738318341248727  1.0000
  H   H3        1.0  0.2070879651227314  0.8357651816936381  0.526186228559844  1.0000
  H   H4        1.0  0.5691680793974355  0.16343405377013207  0.47391834792799875  1.0000
  H   H5        1.0  0.814198644109801  0.4575234217904693  0.9056220642080676  1.0000
  H   H6        1.0  0.17685901640581383  0.5422825590021247  0.09418091419813383  1.0000
  H   H7        1.0  0.02198790737787698  0.0423602078038243  0.4058617948448529  1.0000
  H   H8        1.0  0.46945897108742646  0.9573908798723639  0.5944199594414314  1.0000
  H   H9        1.0  0.853403028086561  0.5158700259596998  0.7074882152138926  1.0000
  H   H10       1.0  0.07723185895710553  0.484462455286497  0.2924317356261668  1.0000
  H   H11       1.0  0.12031023833827686  0.9843088548322002  0.2075836417250017  1.0000
  H   H12       1.0  0.31148085554909216  0.01587236295304  0.7926162542060454  1.0000
  H   H13       1.0  0.8637784768173162  0.7790579934710707  0.6362664116001682  1.0000
  H   H14       1.0  0.27983473140474024  0.22146608772660412  0.36369718636717613  1.0000
  H   H15       1.0  0.3938495451282617  0.721102653409041  0.136261815824831  1.0000
  H   H16       1.0  0.2507449010129716  0.2792414826081427  0.8636389468832136  1.0000
  C   C1        1.0  0.8073734643963348  0.6850889722003259  0.9394583701705416  1.0000
  C   C2        1.0  0.43160563125587703  0.3149335728870497  0.060415842460386726  1.0000
  C   C3        1.0  0.24243131755931527  0.814693008693901  0.43959867061300173  1.0000
  C   C4        1.0  0.4966702996922689  0.18478444303350022  0.5604791569944467  1.0000
  C   C5        1.0  0.8186414276811574  0.5709821002773127  0.8724425194873149  1.0000
  C   C6        1.0  0.26179251525959296  0.4290142983336197  0.12742069034437983  1.0000
  C   C7        1.0  0.1398700245167389  0.9289235539877579  0.3726181509675897  1.0000
  C   C8        1.0  0.4409080255827431  0.0708335185383078  0.6275731411131035  1.0000
  C   C9        1.0  0.8410453257626922  0.6036862737202358  0.7620852781393028  1.0000
  C   C10       1.0  0.20705113227173644  0.3965542005531618  0.2378394182804371  1.0000
  C   C11       1.0  0.1954559652392474  0.8963986822163366  0.2621843860766475  1.0000
  C   C12       1.0  0.3534163032919437  0.10367619956541321  0.7379380454447642  1.0000
  C   C13       1.0  0.8500919470601003  0.748826981029019  0.7218167031069314  1.0000
  C   C14       1.0  0.32117456830999186  0.2515788162881948  0.2781347935225682  1.0000
  C   C15       1.0  0.34957731517383883  0.751239258232758  0.22186573730435555  1.0000
  C   C16       1.0  0.3224479746756399  0.24883077649854365  0.7780951186040143  1.0000
  C   C17       1.0  0.838342021640038  0.8558248015192618  0.7944005184355946  1.0000
  C   C18       1.0  0.48871996342798957  0.1444427937111783  0.20553738052011994  1.0000
  C   C19       1.0  0.4444442939542482  0.6440842809475955  0.2944197466935138  1.0000
  C   C20       1.0  0.38288923322634355  0.35581655076997987  0.7054132849670581  1.0000
  C   C21       1.0  0.8517313524650729  0.0085191100851887  0.7615073621304376  1.0000
  C   C22       1.0  0.6217431553149808  0.9917048202019887  0.23843674703945086  1.0000
  C   C23       1.0  0.6104534323826413  0.4913510004808401  0.2615233422093795  1.0000
  C   C24       1.0  0.3629656156837409  0.5086358005338808  0.7383099064103577  1.0000
  C   C25       1.0  0.9007415107331268  0.2053708344331042  0.6629890966315415  1.0000
  C   C26       1.0  0.7690076075082573  0.7948877566988842  0.33703803375730257  1.0000
  C   C27       1.0  0.8563968515160949  0.29426508674692536  0.16313425127871986  1.0000
  C   C28       1.0  0.3135451432255182  0.7053567968584176  0.8370248107297087  1.0000
  S   S1        1.0  0.9666285311152122  0.3047450064712579  0.549434970847905  1.0000
  S   S2        1.0  0.8206366876971741  0.6956630725898522  0.4506459451865367  1.0000
  S   S3        1.0  0.02198239524074098  0.19465294953477752  0.049673080542469  1.0000
  S   S4        1.0  0.26610723105346773  0.8045313372852405  0.9506821325284209  1.0000
  N   N1        1.0  0.8173692039226877  0.8240962703198564  0.9017753324794955  1.0000
  N   N2        1.0  0.5431015883911455  0.17605223041318402  0.09812573946858548  1.0000
  N   N3        1.0  0.39151680931643523  0.6757434790221029  0.40183824968291765  1.0000
  N   N4        1.0  0.46904644087406655  0.323903850507385  0.5980169138336607  1.0000
  N   N5        1.0  0.8296247050363944  0.11669153744784211  0.8275159322293179  1.0000
  N   N6        1.0  0.7733194729036936  0.8832330352946373  0.1724548568189519  1.0000
  N   N7        1.0  0.6961716409279145  0.38323078900680235  0.32760303302996613  1.0000
  N   N8        1.0  0.40621297047687216  0.6170335854886205  0.6723830345664794  1.0000
  N   N9        1.0  0.8670851069441594  0.7577826980738748  0.23388304047762887  1.0000
  N   N10       1.0  0.8593986589445849  0.2421561565041089  0.766125188448278  1.0000
  N   N11       1.0  0.3745957905693584  0.742453104140445  0.7338938393358705  1.0000
  N   N12       1.0  0.8514136446745295  0.25763410794188246  0.2663098867029276  1.0000
  O   O1        1.0  0.8955557541943622  0.0541841607442848  0.656582944900549  1.0000
  O   O2        1.0  0.6065188886280097  0.9462284608562966  0.3433874639718867  1.0000
  O   O3        1.0  0.7002454825047977  0.4455291053781637  0.15662222499706507  1.0000
  O   O4        1.0  0.3021917515197288  0.5541063890665183  0.8432909611761091  1.0000
