data_image0
_chemical_formula_structural       Al8H56C72O48
_chemical_formula_sum              "Al8 H56 C72 O48"
_cell_length_a       10.171510232247815
_cell_length_b       15.996214034620603
_cell_length_c       15.991592524384828
_cell_angle_alpha    84.18014018852887
_cell_angle_beta     71.45325307482916
_cell_angle_gamma    71.44823877189488

_space_group_name_H-M_alt    "P 1"
_space_group_IT_number       1

loop_
  _space_group_symop_operation_xyz
  'x, y, z'

loop_
  _atom_site_type_symbol
  _atom_site_label
  _atom_site_symmetry_multiplicity
  _atom_site_fract_x
  _atom_site_fract_y
  _atom_site_fract_z
  _atom_site_occupancy
  Al  Al1       1.0  0.3320154666408115  0.9187303213874571  0.5601370566003537  1.0000
  Al  Al2       1.0  0.8109353526808504  0.08114128993621249  0.4399216179782926  1.0000
  Al  Al3       1.0  0.0008750776499865213  0.0601919638742174  0.5811944562473172  1.0000
  Al  Al4       1.0  0.6422741667633501  0.939700291305918  0.41875493094654814  1.0000
  Al  Al5       1.0  0.41798663543364967  0.5812639274729605  0.939864544592588  1.0000
  Al  Al6       1.0  0.9390664327717105  0.418861682137198  0.060076788105981084  1.0000
  Al  Al7       1.0  0.7491351672370642  0.43980557488549726  0.9187984304685272  1.0000
  Al  Al8       1.0  0.10772401925444096  0.5602978168397142  0.08124898680371472  1.0000
  H   H1        1.0  0.5208494006814844  0.36106468058127933  0.28993003597106787  1.0000
  H   H2        1.0  0.534272104096985  0.3741336040625073  0.39638141570324603  1.0000
  H   H3        1.0  0.3873390021860106  0.44894760097147907  0.360894407245695  1.0000
  H   H4        1.0  0.43548718994612295  0.0330701320818676  0.7218258512070435  1.0000
  H   H5        1.0  0.012282820842969455  0.22683738687026528  0.7711133706611476  1.0000
  H   H6        1.0  0.3048703987768422  0.2437572880061225  0.9082793044886514  1.0000
  H   H7        1.0  0.7438594125827932  0.5329944434113472  0.02267350311749545  1.0000
  H   H8        1.0  0.17220954575315495  0.6386712691058563  0.71013593072513  1.0000
  H   H9        1.0  0.3051346169287256  0.6256454364988073  0.6036789375879579  1.0000
  H   H10       1.0  0.19758110590045413  0.5508457555942384  0.6390933371373819  1.0000
  H   H11       1.0  0.19059898826852623  0.966871598888744  0.2782319091051733  1.0000
  H   H12       1.0  0.01079593070185325  0.7729874511281807  0.2289684671332992  1.0000
  H   H13       1.0  0.45729261016572303  0.7563681703143813  0.09157858152881466  1.0000
  H   H14       1.0  0.29947008899564753  0.4671270922090116  0.9773436196330818  1.0000
  H   H15       1.0  0.632034727263978  0.7900530050598389  0.13858381296761024  1.0000
  H   H16       1.0  0.6586027988154229  0.8964615076738126  0.12523364016153252  1.0000
  H   H17       1.0  0.5865291167284212  0.860847314242335  0.05052708524414848  1.0000
  H   H18       1.0  0.21885046093223795  0.22149064280713293  0.46677858870697264  1.0000
  H   H19       1.0  0.989463002614421  0.27112718815946835  0.27295690361162883  1.0000
  H   H20       1.0  0.2991225816201464  0.4081320776146312  0.256194163905434  1.0000
  H   H21       1.0  0.026876321220044297  0.5229199853389446  0.9669860195392203  1.0000
  H   H22       1.0  0.5604741004628908  0.21004484540373622  0.8611172634243259  1.0000
  H   H23       1.0  0.6804731487346201  0.10370384261140232  0.8742708401699346  1.0000
  H   H24       1.0  0.4982146365662743  0.13922282590137058  0.9492701518123852  1.0000
  H   H25       1.0  0.9073794687599844  0.7783585741712926  0.5331896369179604  1.0000
  H   H26       1.0  0.5337556738669919  0.7287952884983895  0.7270781039266723  1.0000
  H   H27       1.0  0.9637271261513616  0.591677924205719  0.7437483283033332  1.0000
  H   H28       1.0  0.5166032070881313  0.4771918534506199  0.033005461194193245  1.0000
  H   H29       1.0  0.22915024363472722  0.13894463038871407  0.2100668163511585  1.0000
  H   H30       1.0  0.21572217782279776  0.12588296126430273  0.10361101600781811  1.0000
  H   H31       1.0  0.3626473009991003  0.05105709550161212  0.13910145085596073  1.0000
  H   H32       1.0  0.31450922498216716  0.4669339993027535  0.7781824432326586  1.0000
  H   H33       1.0  0.7377215873360753  0.2731739997991625  0.7288774289549949  1.0000
  H   H34       1.0  0.44513746895497525  0.2562540981276129  0.5917132067901817  1.0000
  H   H35       1.0  0.0061256913129172225  0.9670023474363416  0.4773275523011833  1.0000
  H   H36       1.0  0.5777808598265677  0.8613341896675664  0.7898695916604126  1.0000
  H   H37       1.0  0.4448488352262456  0.8743646390865293  0.8963229740101681  1.0000
  H   H38       1.0  0.5524096058743593  0.9491603626366468  0.8609115625933441  1.0000
  H   H39       1.0  0.5593916383792032  0.533115960546411  0.2217662213807685  1.0000
  H   H40       1.0  0.7391935148720137  0.7270106584279291  0.2710307512613427  1.0000
  H   H41       1.0  0.2927138650860285  0.7436233446661406  0.40841637212925264  1.0000
  H   H42       1.0  0.4505143146801914  0.0328664901558042  0.5226632456131027  1.0000
  H   H43       1.0  0.11796648342016165  0.7099543343161584  0.36141976072573095  1.0000
  H   H44       1.0  0.09138014750892139  0.6035497895337089  0.3747695609401731  1.0000
  H   H45       1.0  0.16346877892640774  0.6391540915297327  0.4494724432017705  1.0000
  H   H46       1.0  0.5311699458294328  0.2784962476884373  0.03321605533107438  1.0000
  H   H47       1.0  0.7605523650054807  0.22887446365707115  0.2270441472811059  1.0000
  H   H48       1.0  0.45089346629231386  0.09187063764977668  0.24380617420926137  1.0000
  H   H49       1.0  0.7231183552587482  0.977090748755131  0.5330157976379867  1.0000
  H   H50       1.0  0.18953409195110285  0.28995862736302763  0.6388798246208864  1.0000
  H   H51       1.0  0.06953198683446984  0.39630028953436636  0.6257278977303925  1.0000
  H   H52       1.0  0.2517908652508043  0.36078130595942076  0.550730266883491  1.0000
  H   H53       1.0  0.8426027614913424  0.7216451624389961  0.9668161009521583  1.0000
  H   H54       1.0  0.216234090623594  0.77120291627714  0.7729326177335166  1.0000
  H   H55       1.0  0.7862545410365055  0.908327130616975  0.7562613935928583  1.0000
  H   H56       1.0  0.23340861579529815  0.0227943780988227  0.4669907711112344  1.0000
  C   C1        1.0  0.1503124681093199  0.2427370193097573  0.8430443931828506  1.0000
  C   C2        1.0  0.3557683488136691  0.09239242300863991  0.755623437617821  1.0000
  C   C3        1.0  0.03773900130421745  0.3205703425863292  0.8936131844316363  1.0000
  C   C4        1.0  0.567047125324592  0.14128044356745312  0.8808166217822091  1.0000
  C   C5        1.0  0.28503805255643744  0.21010123341394396  0.8598406292839017  1.0000
  C   C6        1.0  0.1175217026111499  0.2011968387695831  0.7829658615864331  1.0000
  C   C7        1.0  0.18928971739109104  0.07443714228794818  0.6791234539837915  1.0000
  C   C8        1.0  0.22052144557919443  0.12446091398206957  0.7405584274004867  1.0000
  C   C9        1.0  0.38957426968079273  0.13572366258483737  0.8140952692919257  1.0000
  C   C10       1.0  0.2365475051388018  0.7572230810686519  0.1569934826935082  1.0000
  C   C11       1.0  0.20405823407224222  0.9075545792406671  0.24442365935555443  1.0000
  C   C12       1.0  0.25216513196272655  0.6794845131502144  0.10638969435819232  1.0000
  C   C13       1.0  0.5893126148529292  0.8588084104548629  0.11890040370869315  1.0000
  C   C14       1.0  0.3553700673900764  0.78992575425724  0.14011183069851546  1.0000
  C   C15       1.0  0.10211621377280251  0.7987178665971443  0.2171298960366883  1.0000
  C   C16       1.0  0.9429953702348185  0.9254471918501821  0.3208984497639591  1.0000
  C   C17       1.0  0.08584155324933108  0.8754620633732556  0.25951518064812257  1.0000
  C   C18       1.0  0.33969115136089567  0.8642830669364513  0.18588049806432855  1.0000
  C   C19       1.0  0.1434637644677608  0.3429889666028031  0.25710428519759887  1.0000
  C   C20       1.0  0.19855889026423051  0.25534103360163124  0.4074297734201481  1.0000
  C   C21       1.0  0.10846551692957714  0.3936992378581791  0.17936149480898678  1.0000
  C   C22       1.0  0.45855011584310296  0.38059086535290015  0.3587337467293353  1.0000
  C   C23       1.0  0.24561547783209658  0.35965770307822  0.28976756085992145  1.0000
  C   C24       1.0  0.06907896359280129  0.2829052161501338  0.2986183194328618  1.0000
  C   C25       1.0  0.013703042276823445  0.17913708712243448  0.4254158755665287  1.0000
  C   C26       1.0  0.09527801921172606  0.24043154212429124  0.3753539586747223  1.0000
  C   C27       1.0  0.2758023818897043  0.31378163928830116  0.36410858272713403  1.0000
  C   C28       1.0  0.7438132473416912  0.6569208001598811  0.7428352489790129  1.0000
  C   C29       1.0  0.8615842184484775  0.7445187152978574  0.5925324736657701  1.0000
  C   C30       1.0  0.6817481721055498  0.6062426488265659  0.820557596911442  1.0000
  C   C31       1.0  0.19822245583964077  0.6191967675927401  0.6413141812460808  1.0000
  C   C32       1.0  0.8953430606699511  0.640186389046235  0.7101820001073378  1.0000
  C   C33       1.0  0.6508385390215993  0.7169993961818903  0.701332848006821  1.0000
  C   C34       1.0  0.618399467553054  0.820737585279886  0.5745236083394263  1.0000
  C   C35       1.0  0.7112657041939484  0.7594464002646858  0.6245900446293647  1.0000
  C   C36       1.0  0.9539938063585753  0.6860843970819488  0.6358638761588156  1.0000
  C   C37       1.0  0.5996885247377365  0.2572697510690105  0.6569520101801274  1.0000
  C   C38       1.0  0.39423123530443166  0.40761500546671675  0.744382179180235  1.0000
  C   C39       1.0  0.7122584848040034  0.17943906606961957  0.6063802618124471  1.0000
  C   C40       1.0  0.18295934226379273  0.3587230289242457  0.6191831744053998  1.0000
  C   C41       1.0  0.4649663783910186  0.28991213016870904  0.6401583562739007  1.0000
  C   C42       1.0  0.6324836683739362  0.2988119094459022  0.7170303854747715  1.0000
  C   C43       1.0  0.5607471116190297  0.42554654643371487  0.8208746618604366  1.0000
  C   C44       1.0  0.529477210052093  0.3755445372067001  0.7594419294145353  1.0000
  C   C45       1.0  0.36043065917126443  0.36428178857417487  0.6859020054825251  1.0000
  C   C46       1.0  0.5134506817036096  0.7427717312930041  0.3430028718431828  1.0000
  C   C47       1.0  0.5459405844720491  0.5924296834275112  0.2555690860791274  1.0000
  C   C48       1.0  0.4978201628178879  0.8205070016003404  0.3936178361455235  1.0000
  C   C49       1.0  0.1606812109996199  0.6411969518067906  0.3811001516444108  1.0000
  C   C50       1.0  0.39463118702342087  0.7100651018556191  0.359882438716987  1.0000
  C   C51       1.0  0.6478796366784534  0.7012723307905375  0.28286284873848205  1.0000
  C   C52       1.0  0.8069999959147153  0.57454391994618  0.17909690618119362  1.0000
  C   C53       1.0  0.6641525144640779  0.6245340683506485  0.2404794620793212  1.0000
  C   C54       1.0  0.41030332978655787  0.6357104267609798  0.314117070914861  1.0000
  C   C55       1.0  0.6065581046308991  0.15701045266119001  0.24288687064228046  1.0000
  C   C56       1.0  0.5514554207804065  0.24465640760470114  0.09256465162921057  1.0000
  C   C57       1.0  0.6415317944750712  0.1062896324455238  0.3206343959185034  1.0000
  C   C58       1.0  0.2914448441400027  0.11941580832291271  0.14126388454947403  1.0000
  C   C59       1.0  0.5043961061557525  0.1403397380938429  0.2102285141178371  1.0000
  C   C60       1.0  0.6809318720669423  0.21708826850798593  0.2013794059129665  1.0000
  C   C61       1.0  0.7363167593412782  0.32086101328073374  0.07457693034830026  1.0000
  C   C62       1.0  0.6547412793958287  0.2595672167488273  0.12464513471655184  1.0000
  C   C63       1.0  0.47420932516923386  0.186216461483717  0.13588602919802645  1.0000
  C   C64       1.0  0.006171950266626464  0.8430859777449128  0.7571706471581479  1.0000
  C   C65       1.0  0.8884014842224629  0.7554869987757868  0.907476033861208  1.0000
  C   C66       1.0  0.06827356577315402  0.8937496207614117  0.6794410459293588  1.0000
  C   C67       1.0  0.5517661412685514  0.8808106695188087  0.8586911231033979  1.0000
  C   C68       1.0  0.854650613489056  0.8598186650585972  0.7898261644618998  1.0000
  C   C69       1.0  0.09915566662519396  0.7830021057727661  0.7986739508486307  1.0000
  C   C70       1.0  0.13157174997569118  0.6792625989989532  0.9254879861120384  1.0000
  C   C71       1.0  0.038719723724433774  0.7405577397561274  0.8754179373617673  1.0000
  C   C72       1.0  0.7959907002309948  0.8139246142447617  0.8641431680224514  1.0000
  O   O1        1.0  0.049810644263914475  0.33574188365918184  0.967217867812131  1.0000
  O   O2        1.0  0.28252403662361264  0.9994381168058551  0.6543789723566391  1.0000
  O   O3        1.0  0.07489985833935714  0.10896608164757278  0.6556842791228519  1.0000
  O   O4        1.0  0.9370992149243731  0.3646148450549802  0.8606726748364864  1.0000
  O   O5        1.0  0.18504406950849997  0.9898137251212517  0.5145698671624145  1.0000
  O   O6        1.0  0.5259400503095221  0.09978493342097748  0.8218544755610822  1.0000
  O   O7        1.0  0.35286212623049806  0.6643983073453724  0.03270971252627679  1.0000
  O   O8        1.0  0.9364291436268743  0.00042612308572389997  0.3457332817853855  1.0000
  O   O9        1.0  0.8396840888658229  0.8909606461942375  0.3441856992309554  1.0000
  O   O10       1.0  0.16259532109751967  0.6354745182242424  0.1393138930177642  1.0000
  O   O11       1.0  0.6894395274285189  0.010068699420934  0.4854093715059307  1.0000
  O   O12       1.0  0.44784134798162967  0.9002663248213026  0.17802508856230762  1.0000
  O   O13       1.0  0.13529636494468622  0.46742083091861275  0.16439763596739  1.0000
  O   O14       1.0  0.0320188534248373  0.15433455735539076  0.5004209280622547  1.0000
  O   O15       1.0  0.9335657855889606  0.15586599468717569  0.39102402794312496  1.0000
  O   O16       1.0  0.05200919272574098  0.36078527206963434  0.135233484647344  1.0000
  O   O17       1.0  0.9247673550639423  0.014567610753566397  0.5103064264903737  1.0000
  O   O18       1.0  0.37629519414591067  0.32140321687138135  0.40006082916783475  1.0000
  O   O19       1.0  0.7672883030109648  0.5324857475795212  0.8354938013833078  1.0000
  O   O20       1.0  0.686908052741501  0.8455543111674755  0.49951252051832995  1.0000
  O   O21       1.0  0.48059199756852417  0.8439807672111569  0.6089247932088071  1.0000
  O   O22       1.0  0.5482133107211027  0.6392145827612906  0.8646993768269269  1.0000
  O   O23       1.0  0.4496702693439191  0.9852895487950448  0.48973810587139605  1.0000
  O   O24       1.0  0.09809121485287159  0.6784398037513101  0.5999842947292962  1.0000
  O   O25       1.0  0.7002038570061162  0.16426554399009768  0.5327853821283455  1.0000
  O   O26       1.0  0.4674791714414115  0.5005686600221466  0.8456245877900841  1.0000
  O   O27       1.0  0.6751030381759764  0.3910301391261014  0.844307269975026  1.0000
  O   O28       1.0  0.8129201674056361  0.13538822173102716  0.639331536931806  1.0000
  O   O29       1.0  0.5649591822858896  0.5101765684436046  0.9854243887064698  1.0000
  O   O30       1.0  0.22405876485272092  0.4002218364960513  0.6781460989236124  1.0000
  O   O31       1.0  0.3971408264502971  0.835591888828439  0.4672872959720564  1.0000
  O   O32       1.0  0.8135561529571403  0.49956234366045754  0.1542659371878302  1.0000
  O   O33       1.0  0.9103101863006414  0.6090251905024218  0.15581024901482715  1.0000
  O   O34       1.0  0.5874056391631229  0.864520952214171  0.36068962026029544  1.0000
  O   O35       1.0  0.060557813991138625  0.4899346766185245  0.014591621730367918  1.0000
  O   O36       1.0  0.3021507616308412  0.5997304654266671  0.32197624640689076  1.0000
  O   O37       1.0  0.6146851651554428  0.0325759529197995  0.3356006516054891  1.0000
  O   O38       1.0  0.7180210131184805  0.3456603405956854  0.9995779017192206  1.0000
  O   O39       1.0  0.8164571821650809  0.34412774349183906  0.10897957588942128  1.0000
  O   O40       1.0  0.6979936693052764  0.13920359768846416  0.3647630903959822  1.0000
  O   O41       1.0  0.825225360011373  0.4854334799065043  0.9896983480911956  1.0000
  O   O42       1.0  0.373718480915528  0.17859422429075522  0.09993421846306921  1.0000
  O   O43       1.0  0.9827103890591643  0.9675199677070979  0.664499951135717  1.0000
  O   O44       1.0  0.06308718877628643  0.654448412826916  0.0004920193005233038  1.0000
  O   O45       1.0  0.2694076450436927  0.6560082070753238  0.8910746612752121  1.0000
  O   O46       1.0  0.2017720048523728  0.8607856007897751  0.6353096329507295  1.0000
  O   O47       1.0  0.30032832020635414  0.5147059224099307  0.010261610183107561  1.0000
  O   O48       1.0  0.6518924174608143  0.8215682926066845  0.9000245272199335  1.0000
