data_image0
_chemical_formula_structural       Sm2H26C16O16
_chemical_formula_sum              "Sm2 H26 C16 O16"
_cell_length_a       7.517903865370579
_cell_length_b       9.048235029468628
_cell_length_c       10.041559691925913
_cell_angle_alpha    86.54726297639917
_cell_angle_beta     75.67132776515773
_cell_angle_gamma    88.31523249083722

_space_group_name_H-M_alt    "P 1"
_space_group_IT_number       1

loop_
  _space_group_symop_operation_xyz
  'x, y, z'

loop_
  _atom_site_type_symbol
  _atom_site_label
  _atom_site_symmetry_multiplicity
  _atom_site_fract_x
  _atom_site_fract_y
  _atom_site_fract_z
  _atom_site_occupancy
  Sm  Sm1       1.0  0.7403931072626122  0.9201470577595713  0.01594385207483379  1.0000
  Sm  Sm2       1.0  0.2596176682372544  0.07984786562293068  0.9840623246414779  1.0000
  H   H1        1.0  0.8590214358193717  0.7659650782726006  0.7331127158246388  1.0000
  H   H2        1.0  0.14100630000403666  0.23401923337912225  0.2668728840307607  1.0000
  H   H3        1.0  0.23939734316903127  0.5231781212668308  0.6953180782397652  1.0000
  H   H4        1.0  0.7606390604913784  0.47684906770670926  0.3046755434688108  1.0000
  H   H5        1.0  0.15041666042241528  0.46123484050247743  0.8701537499328821  1.0000
  H   H6        1.0  0.8496010887800055  0.5387613939886293  0.12984318332863862  1.0000
  H   H7        1.0  0.308856245407256  0.6050555880411608  0.8330462504771533  1.0000
  H   H8        1.0  0.69115811033312  0.3949669286464045  0.16696137771050704  1.0000
  H   H9        1.0  0.33756360501910615  0.2988154723050158  0.4117038691687966  1.0000
  H   H10       1.0  0.6624169683270723  0.7011851679433293  0.5883014728143081  1.0000
  H   H11       1.0  0.5698644646981775  0.24154933319968558  0.4073468614154265  1.0000
  H   H12       1.0  0.4301241597544418  0.7584589708027707  0.5926597968942815  1.0000
  H   H13       1.0  0.38550558418229736  0.12026796841160346  0.4776086909176271  1.0000
  H   H14       1.0  0.6144790760727261  0.879726923755186  0.5224040881037837  1.0000
  H   H15       1.0  0.1522364963125042  0.8911744888195587  0.3269810598356386  1.0000
  H   H16       1.0  0.8477580398862016  0.10881285613366033  0.6730222541771697  1.0000
  H   H17       1.0  0.9671017716358392  0.7787553385301181  0.4291829670293765  1.0000
  H   H18       1.0  0.0328904054678389  0.22122238627903815  0.57080812817442  1.0000
  H   H19       1.0  0.9456863615496969  0.9754680190424098  0.4178064055148809  1.0000
  H   H20       1.0  0.054301422301058694  0.024509263550584106  0.582202415157674  1.0000
  H   H21       1.0  0.14959291144731418  0.6684520598084803  0.0932907612892109  1.0000
  H   H22       1.0  0.850415207783456  0.3315509818200653  0.906701670861402  1.0000
  H   H23       1.0  0.30712371354871953  0.5154759366322282  0.09657053794854419  1.0000
  H   H24       1.0  0.6928859861671909  0.48452288551244765  0.9034137840058349  1.0000
  H   H25       1.0  0.22387976996739672  0.6204670792853975  0.2453281884650096  1.0000
  H   H26       1.0  0.7761245169470498  0.3795273192780826  0.7546572338835774  1.0000
  C   C1        1.0  0.4260259368661679  0.7285952240494283  0.08597112003208451  1.0000
  C   C2        1.0  0.573978028256782  0.2714089017286767  0.9140230058842961  1.0000
  C   C3        1.0  0.03957683556663479  0.6688180658990391  0.8171252048563318  1.0000
  C   C4        1.0  0.9604448404588412  0.33118240982167185  0.18287786973711914  1.0000
  C   C5        1.0  0.19421570322190723  0.5587950645674623  0.8006059151708412  1.0000
  C   C6        1.0  0.8057851025507006  0.44122775158607663  0.1993931361574822  1.0000
  C   C7        1.0  0.43666526239435655  0.20622260259574426  0.3959332191494624  1.0000
  C   C8        1.0  0.563324820005768  0.7937790058037563  0.6040753939668235  1.0000
  C   C9        1.0  0.456269976856241  0.1418857893188132  0.2575271284602252  1.0000
  C   C10       1.0  0.5437365236180937  0.8581179935018497  0.7424795120441203  1.0000
  C   C11       1.0  0.9212379640628114  0.8771441063251828  0.2392732669199731  1.0000
  C   C12       1.0  0.07873860843439222  0.12284989520342293  0.7607329989517808  1.0000
  C   C13       1.0  0.2664856254579817  0.6263514430094901  0.1321876882396964  1.0000
  C   C14       1.0  0.7335199789022155  0.3736451422509078  0.8677984260734206  1.0000
  C   C15       1.0  0.003190822194262896  0.8778965746505705  0.3609121500600523  1.0000
  C   C16       1.0  0.9968010629423674  0.12208637069914367  0.6390907799511041  1.0000
  O   O1        1.0  0.6092714741265367  0.0868212298780406  0.1980989710517136  1.0000
  O   O2        1.0  0.39073520853431626  0.913176015713567  0.8019038669289458  1.0000
  O   O3        1.0  0.7796583281675568  0.8044950551690417  0.24221784746539748  1.0000
  O   O4        1.0  0.2203306155598668  0.19549896252541293  0.7577852383709214  1.0000
  O   O5        1.0  0.3129531556555066  0.1446115202167491  0.2080811638367237  1.0000
  O   O6        1.0  0.687034444215179  0.8553836842339139  0.7919191315872353  1.0000
  O   O7        1.0  0.972642365527342  0.7260141303743524  0.9289409987190067  1.0000
  O   O8        1.0  0.0273605937009407  0.2739814811549977  0.07104063328981168  1.0000
  O   O9        1.0  0.398581638715264  0.8710999493621402  0.08429103380388629  1.0000
  O   O10       1.0  0.6014208540831518  0.12889946118065146  0.9157144650056211  1.0000
  O   O11       1.0  0.5882742658010187  0.6780244497354673  0.05133264923765067  1.0000
  O   O12       1.0  0.41173513853436816  0.32198072617069334  0.9486624747323376  1.0000
  O   O13       1.0  0.9760638616050201  0.6988940333496743  0.7065164238328449  1.0000
  O   O14       1.0  0.023895263484341508  0.3011428142850505  0.2935044661971986  1.0000
  O   O15       1.0  0.9952895987903643  0.9589884352742148  0.13019296450295303  1.0000
  O   O16       1.0  0.004705978160849598  0.04101203544044551  0.8698157124681812  1.0000
