data_image0
_chemical_formula_structural       Gd2H30C24S4O30
_chemical_formula_sum              "Gd2 H30 C24 S4 O30"
_cell_length_a       6.948680782242308
_cell_length_b       10.75975182405954
_cell_length_c       12.084019459420775
_cell_angle_alpha    95.9559895184354
_cell_angle_beta     103.1920780025922
_cell_angle_gamma    89.65216734531256

_space_group_name_H-M_alt    "P 1"
_space_group_IT_number       1

loop_
  _space_group_symop_operation_xyz
  'x, y, z'

loop_
  _atom_site_type_symbol
  _atom_site_label
  _atom_site_symmetry_multiplicity
  _atom_site_fract_x
  _atom_site_fract_y
  _atom_site_fract_z
  _atom_site_occupancy
  Gd  Gd1       1.0  0.7889515957724385  0.4011091089503225  0.21355184940297525  1.0000
  Gd  Gd2       1.0  0.21104790485367894  0.5988931440776781  0.7864481002948976  1.0000
  H   H1        1.0  0.0381794221842569  0.7761285406642956  0.2661406921196985  1.0000
  H   H2        1.0  0.9618213392069563  0.223867166280229  0.7338579992048152  1.0000
  H   H3        1.0  0.21937872319761453  0.41235503990099415  0.1662007934882368  1.0000
  H   H4        1.0  0.7806206628125169  0.5876444118365214  0.8338013670818114  1.0000
  H   H5        1.0  0.1279562011869544  0.549706187301666  0.16796721916895757  1.0000
  H   H6        1.0  0.8720447010440041  0.45029419501153695  0.8320344016389283  1.0000
  H   H7        1.0  0.6468494128233928  0.6422481637346634  0.09663389465999465  1.0000
  H   H8        1.0  0.35314856530853694  0.35775315953655  0.9033674215838375  1.0000
  H   H9        1.0  0.7419662243184106  0.5537612946314142  0.012712875648411177  1.0000
  H   H10       1.0  0.25802733231375197  0.4462400365654061  0.9872861954421666  1.0000
  H   H11       1.0  0.132393936999712  0.5523099033202783  0.38968987960039664  1.0000
  H   H12       1.0  0.8676010468958921  0.44769049256304777  0.6103117792103774  1.0000
  H   H13       1.0  0.9323655589483694  0.5602123188705973  0.43099791467788856  1.0000
  H   H14       1.0  0.06762663428428083  0.4397918168045082  0.5689987483452938  1.0000
  H   H15       1.0  0.572279272334427  0.6462379191233864  0.2470655797652697  1.0000
  H   H16       1.0  0.4277156539706084  0.35376060677624815  0.7529350726089133  1.0000
  H   H17       1.0  0.5167662711849489  0.5725985383555923  0.3402923619794649  1.0000
  H   H18       1.0  0.4832271132406518  0.42739812156705886  0.6597079135466899  1.0000
  H   H19       1.0  0.1593627484704072  0.27336121981339545  0.3246151208711368  1.0000
  H   H20       1.0  0.8406351019336569  0.7266363651282362  0.6753858360670932  1.0000
  H   H21       1.0  0.016101214700682903  0.1566420896840555  0.2674511932773953  1.0000
  H   H22       1.0  0.9838952147133002  0.8433564297521626  0.7325463491568556  1.0000
  H   H23       1.0  0.9034440419238623  0.7463658042196144  0.9840880089436155  1.0000
  H   H24       1.0  0.09655689851242502  0.2536355118570839  0.015912874906881303  1.0000
  H   H25       1.0  0.49176017030417546  0.0207763632094213  0.8472438094021443  1.0000
  H   H26       1.0  0.5082392094325884  0.9792230893470021  0.15275917795169391  1.0000
  H   H27       1.0  0.6840241190600623  0.7864967016883996  0.4229555318561253  1.0000
  H   H28       1.0  0.3159782800064761  0.21350367498029496  0.5770438057956184  1.0000
  H   H29       1.0  0.8317013909083644  0.1593404556525115  0.371028578478537  1.0000
  H   H30       1.0  0.16829508925767567  0.8406589959093935  0.6289665734307447  1.0000
  C   C1        1.0  0.8719862153409043  0.8431326708170201  0.9695337559057718  1.0000
  C   C2        1.0  0.12801912720991035  0.15686770111386747  0.030467629703998998  1.0000
  C   C3        1.0  0.6857888966276915  0.8732841369629795  0.9108416309381083  1.0000
  C   C4        1.0  0.3142135161158777  0.12671811542172406  0.08916450063674829  1.0000
  C   C5        1.0  0.6399907115279292  0.9986691723276238  0.8921848330600852  1.0000
  C   C6        1.0  0.36001313418729103  0.001331205247773  0.10781883570582101  1.0000
  C   C7        1.0  0.782526277659578  0.0908424834020423  0.9308893572975734  1.0000
  C   C8        1.0  0.21747313400915402  0.9091579037367692  0.06911371988266517  1.0000
  C   C9        1.0  0.9783462083693452  0.0639237193126689  0.9901361844078664  1.0000
  C   C10       1.0  0.021656241449257194  0.936077589481712  0.009860762718908189  1.0000
  C   C11       1.0  0.529022550232277  0.7753823241971105  0.8659065293435333  1.0000
  C   C12       1.0  0.4709812892095826  0.22461805419719383  0.13409796620616993  1.0000
  C   C13       1.0  0.6612357272023957  0.8865787407423936  0.43480211452209255  1.0000
  C   C14       1.0  0.3387636901745523  0.1134207069006123  0.5651959121290062  1.0000
  C   C15       1.0  0.7730239075831308  0.9670462712498702  0.3914198209470213  1.0000
  C   C16       1.0  0.22698131978653893  0.03295036071363461  0.6085795517895676  1.0000
  C   C17       1.0  0.7436110964428337  0.09702365880369257  0.4052923225662112  1.0000
  C   C18       1.0  0.25638976701764454  0.9029748510691176  0.5947058114537143  1.0000
  C   C19       1.0  0.6011001061943233  0.1452280504934151  0.458730968407437  1.0000
  C   C20       1.0  0.3988992535920489  0.8547695271658997  0.5412660518070709  1.0000
  C   C21       1.0  0.48296032535950684  0.06643791810574838  0.5062402643658714  1.0000
  C   C22       1.0  0.5170390726321942  0.9335605933170611  0.4937560188912471  1.0000
  C   C23       1.0  0.9219628990461359  0.9228019725792861  0.32557207514582837  1.0000
  C   C24       1.0  0.078045487927902  0.07719932018827079  0.6744223536266887  1.0000
  S   S1        1.0  0.7151714809677969  0.24621509467401373  0.9039305038879419  1.0000
  S   S2        1.0  0.2848324092261194  0.7537862158459774  0.09607160113679208  1.0000
  S   S3        1.0  0.5697677480842602  0.31058537523779245  0.4614593591661844  1.0000
  S   S4        1.0  0.4302331091028506  0.6894131354539182  0.5385396016375311  1.0000
  O   O1        1.0  0.35298490020125683  0.8093193177251051  0.8287481446458571  1.0000
  O   O2        1.0  0.6470205700774159  0.1906847925353644  0.17125360026951594  1.0000
  O   O3        1.0  0.5698570191626191  0.6581999620634063  0.8651854756752614  1.0000
  O   O4        1.0  0.43014392127366824  0.3418013540132918  0.13481540817523546  1.0000
  O   O5        1.0  0.7680454324713752  0.3266939165615738  0.012463859815831292  1.0000
  O   O6        1.0  0.23195990380607165  0.6733064561882216  0.9875383525777224  1.0000
  O   O7        1.0  0.827994848657852  0.28516132299996133  0.8232811058576459  1.0000
  O   O8        1.0  0.1720074357927004  0.7148362523782552  0.1767204426662659  1.0000
  O   O9        1.0  0.5001639422247878  0.24129990467229587  0.8545805389093459  1.0000
  O   O10       1.0  0.49983837415773996  0.7586986052883161  0.14542109944096637  1.0000
  O   O11       1.0  0.9421540534542033  0.7993045013551806  0.3154792963667674  1.0000
  O   O12       1.0  0.057852773385469916  0.20069586656899924  0.6845214596544409  1.0000
  O   O13       1.0  0.017498778359978893  0.9940796321752355  0.28335289393858426  1.0000
  O   O14       1.0  0.9824933886489193  0.005922629421661398  0.7166386287290649  1.0000
  O   O15       1.0  0.6893688902770166  0.3515144588773254  0.3858660261285607  1.0000
  O   O16       1.0  0.31062620823457376  0.6484887382964785  0.6141334218100454  1.0000
  O   O17       1.0  0.6484625208606049  0.3643397195491502  0.5809296563040078  1.0000
  O   O18       1.0  0.3515368457642865  0.635658795968169  0.41907076087206  1.0000
  O   O19       1.0  0.3582579386089151  0.3324664843626906  0.4235850947172537  1.0000
  O   O20       1.0  0.6417429887154926  0.6675338946749036  0.5764132189554729  1.0000
  O   O21       1.0  0.09617232598424151  0.4599826775497178  0.1649924777424943  1.0000
  O   O22       1.0  0.9038271107779466  0.5400177063134919  0.8350072923025849  1.0000
  O   O23       1.0  0.7347888323325195  0.5702093050683956  0.09244928363520444  1.0000
  O   O24       1.0  0.26521059815630116  0.4297910796137073  0.9075513131936646  1.0000
  O   O25       1.0  0.0006755965891187971  0.5116746131298909  0.37953531147782366  1.0000
  O   O26       1.0  0.999319463717143  0.4883276502804249  0.6204648734181646  1.0000
  O   O27       1.0  0.6054823093082079  0.5708445608985285  0.2867857536756802  1.0000
  O   O28       1.0  0.3945141012856864  0.4291539609943981  0.7132142691099401  1.0000
  O   O29       1.0  0.0323082922667766  0.24846662331901828  0.2704361859453144  1.0000
  O   O30       1.0  0.9676911000167224  0.7515328275995969  0.7295651478409368  1.0000
