data_image0
_chemical_formula_structural       Cu4H16C20N4Cl4
_chemical_formula_sum              "Cu4 H16 C20 N4 Cl4"
_cell_length_a       3.6866331726135537
_cell_length_b       11.223895077742213
_cell_length_c       12.66497454239646
_cell_angle_alpha    89.99821068222705
_cell_angle_beta     89.99867554119476
_cell_angle_gamma    92.22361336002452

_space_group_name_H-M_alt    "P 1"
_space_group_IT_number       1

loop_
  _space_group_symop_operation_xyz
  'x, y, z'

loop_
  _atom_site_type_symbol
  _atom_site_label
  _atom_site_symmetry_multiplicity
  _atom_site_fract_x
  _atom_site_fract_y
  _atom_site_fract_z
  _atom_site_occupancy
  Cu  Cu1       1.0  0.7117495581635255  0.9488809617113885  0.5712638146228813  1.0000
  Cu  Cu2       1.0  0.2883140920282444  0.5511596924347231  0.07128402590559091  1.0000
  Cu  Cu3       1.0  0.2882541543308933  0.05113206729210871  0.42872081262981254  1.0000
  Cu  Cu4       1.0  0.7116791478754081  0.44884091775935536  0.9287290264060035  1.0000
  H   H1        1.0  0.8793679955660427  0.13914255976708026  0.7260746046602335  1.0000
  H   H2        1.0  0.12067235099699054  0.36088795672256424  0.2260842487000617  1.0000
  H   H3        1.0  0.12062862383620401  0.8608615958674192  0.2739234455862203  1.0000
  H   H4        1.0  0.8793449383542795  0.6391106869157639  0.7739343306083344  1.0000
  H   H5        1.0  0.8006217856172102  0.1680177155134146  0.917811147919281  1.0000
  H   H6        1.0  0.19939277183783594  0.3319791606126898  0.4178194599018853  1.0000
  H   H7        1.0  0.19937369344143716  0.831965917649043  0.08218690261571032  1.0000
  H   H8        1.0  0.8006595722745544  0.6680183264197552  0.5821943818242233  1.0000
  H   H9        1.0  0.2637564734978143  0.8167759143188177  0.9265162587078848  1.0000
  H   H10       1.0  0.7362005630544532  0.6832256915828622  0.4265383406922397  1.0000
  H   H11       1.0  0.7361980308165886  0.1832062424965528  0.0734636316709896  1.0000
  H   H12       1.0  0.26379926739254245  0.31678111761213756  0.5734715531935707  1.0000
  H   H13       1.0  0.3651809389257112  0.8048421277719199  0.7351994568899658  1.0000
  H   H14       1.0  0.634834365677925  0.6951928584005244  0.23522350016831692  1.0000
  H   H15       1.0  0.6348205979535423  0.19515931325102537  0.2647772747394086  1.0000
  H   H16       1.0  0.36514345490055433  0.3048123312376845  0.764787972975718  1.0000
  C   C1        1.0  0.7448029136087799  0.07012378774466299  0.7743532738014668  1.0000
  C   C2        1.0  0.2552253041492137  0.42988986865474743  0.2743568990769916  1.0000
  C   C3        1.0  0.2551861110057843  0.9298688205385301  0.2256471453692939  1.0000
  C   C4        1.0  0.7447781037604742  0.5701070943328831  0.7256561532494034  1.0000
  C   C5        1.0  0.697816024660199  0.08517506645739562  0.8820557762100238  1.0000
  C   C6        1.0  0.30221457561970066  0.4148355014786773  0.3820721214983892  1.0000
  C   C7        1.0  0.3021867146487054  0.9148183313681525  0.1179343783724178  1.0000
  C   C8        1.0  0.6978172649116702  0.5851683884868137  0.6179464576860669  1.0000
  C   C9        1.0  0.5255736824374753  0.9941334629492217  0.9425547584265531  1.0000
  C   C10       1.0  0.4744252533289527  0.5058663447607544  0.44256622982939586  1.0000
  C   C11       1.0  0.4743945356231408  0.0058494829798547985  0.05743855473890851  1.0000
  C   C12       1.0  0.5255915028571253  0.4941439075371078  0.557445243107452  1.0000
  C   C13       1.0  0.4041870232377748  0.891457976392786  0.8872236908683961  1.0000
  C   C14       1.0  0.595818517564581  0.6085554218641036  0.3872425149200042  1.0000
  C   C15       1.0  0.5958089273740655  0.1085426139938974  0.11275619910908571  1.0000
  C   C16       1.0  0.4041867317072845  0.39145134654447133  0.6127657997889813  1.0000
  C   C17       1.0  0.45994668851388815  0.8834631155569923  0.7793631439278246  1.0000
  C   C18       1.0  0.540060195401239  0.6165587045356773  0.2793860864406881  1.0000
  C   C19       1.0  0.5400536766152869  0.11653208566431769  0.22061595652967725  1.0000
  C   C20       1.0  0.4599167881226053  0.3834420280605357  0.7206293346638972  1.0000
  N   N1        1.0  0.6305402736587384  0.9705261737389537  0.7220197290552904  1.0000
  N   N2        1.0  0.36950351502077455  0.5295108683482894  0.22203286297972372  1.0000
  N   N3        1.0  0.3694849464714096  0.029485800596141608  0.2779656877155148  1.0000
  N   N4        1.0  0.6304958131618292  0.47049326660722096  0.7779801892615907  1.0000
  Cl  Cl1       1.0  0.8159854277916526  0.15261313066094573  0.5009127196578262  1.0000
  Cl  Cl2       1.0  0.18394091457611958  0.34740153439398824  0.0009594020454031003  1.0000
  Cl  Cl3       1.0  0.18400694510467022  0.8473973058188021  0.49907032851238853  1.0000
  Cl  Cl4       1.0  0.8160523255487534  0.6525990759001062  0.9990481232120489  1.0000
