data_image0
_chemical_formula_structural       Zn4H48C72S10Br8N20O30
_chemical_formula_sum              "Zn4 H48 C72 S10 Br8 N20 O30"
_cell_length_a       20.01943731043107
_cell_length_b       20.232289284579775
_cell_length_c       20.289556122941512
_cell_angle_alpha    108.44478935318317
_cell_angle_beta     104.69009032614622
_cell_angle_gamma    113.03553233078647

_space_group_name_H-M_alt    "P 1"
_space_group_IT_number       1

loop_
  _space_group_symop_operation_xyz
  'x, y, z'

loop_
  _atom_site_type_symbol
  _atom_site_label
  _atom_site_symmetry_multiplicity
  _atom_site_fract_x
  _atom_site_fract_y
  _atom_site_fract_z
  _atom_site_occupancy
  Zn  Zn1       1.0  0.6106032879518324  0.6062228778146662  0.4926497269964402  1.0000
  Zn  Zn2       1.0  0.3937739068404724  0.4035575084358883  0.5102067043840821  1.0000
  Zn  Zn3       1.0  0.5028846919183748  0.6094147571777312  0.6020468504676303  1.0000
  Zn  Zn4       1.0  0.5037349894326724  0.4004476249144062  0.4186939115049669  1.0000
  H   H1        1.0  0.7644281059835834  0.7968684770940369  0.6068558460783748  1.0000
  H   H2        1.0  0.08882975631320279  0.6123309091232584  0.6079773079489216  1.0000
  H   H3        1.0  0.044083873667972305  0.5241747736853809  0.5185667775951119  1.0000
  H   H4        1.0  0.9249865138655551  0.3947829645931122  0.6409535326069999  1.0000
  H   H5        1.0  0.8702766945685383  0.3699420010540351  0.5450653982998831  1.0000
  H   H6        1.0  0.0931723722270448  0.5129899366657256  0.7330059353102032  1.0000
  H   H7        1.0  0.9804628696523136  0.39302761771706657  0.5148175950401067  1.0000
  H   H8        1.0  0.644288776889084  0.6345467159605462  0.7501047973970786  1.0000
  H   H9        1.0  0.4962516295425416  0.047647173838974724  0.52503788407779  1.0000
  H   H10       1.0  0.4021638655435211  0.9409637161557425  0.3190149406585832  1.0000
  H   H11       1.0  0.405063480335933  0.8338055090910003  0.32596035948766666  1.0000
  H   H12       1.0  0.22212427478535096  0.37363459436372887  0.5358168087575308  1.0000
  H   H13       1.0  0.26602979680913547  0.908892674434085  0.41822444590071234  1.0000
  H   H14       1.0  0.2857393763332611  0.8071041027991156  0.4318375382643965  1.0000
  H   H15       1.0  0.3955493521245472  0.9041275963906369  0.5423202129798952  1.0000
  H   H16       1.0  0.6211281026912802  0.37326406444385896  0.5290930769521937  1.0000
  H   H17       1.0  0.2881969336821157  0.7752318465875091  0.3411534034485371  1.0000
  H   H18       1.0  0.6555263892295643  0.6113116761375252  0.8667101767838974  1.0000
  H   H19       1.0  0.7674483005099617  0.6000093877657804  0.17207400312939555  1.0000
  H   H20       1.0  0.7407584785437039  0.601376123003902  0.2852917908645196  1.0000
  H   H21       1.0  0.6083756424544899  0.3742842291873102  0.7219289598761307  1.0000
  H   H22       1.0  0.571035942135339  0.34255550681733393  0.15116189245298983  1.0000
  H   H23       1.0  0.3578665968726683  0.6118631721850321  0.49659914008741185  1.0000
  H   H24       1.0  0.2359424935354113  0.3596052827012101  0.1565145363287144  1.0000
  H   H25       1.0  0.4979571259116824  0.37133962568870527  0.6266517718894066  1.0000
  H   H26       1.0  0.11015377043086971  0.26379323079881084  0.0338531615473059  1.0000
  H   H27       1.0  0.8395410098033339  0.04818390067715947  0.9382057606610134  1.0000
  H   H28       1.0  0.7187930940480457  0.9258595610791929  0.8252051802034617  1.0000
  H   H29       1.0  0.8556021324988307  0.9333247981059926  0.6905951915805562  1.0000
  H   H30       1.0  0.4748609915825385  0.21555443225113885  0.37597911209758195  1.0000
  H   H31       1.0  0.6131260419458684  0.8002957867942297  0.7260605553938291  1.0000
  H   H32       1.0  0.6692780360404244  0.6091308178025941  0.3550642679134484  1.0000
  H   H33       1.0  0.5341965087512789  0.7715135001714158  0.35855137645936  1.0000
  H   H34       1.0  0.3892030064280334  0.36665456556870163  0.25598475076020577  1.0000
  H   H35       1.0  0.29669247075228367  0.6946188696708261  0.6355516513064359  1.0000
  H   H36       1.0  0.0278433754049843  0.34700264265469366  0.6995655563396711  1.0000
  H   H37       1.0  0.4889034209290416  0.006506438760077166  0.6733759133969955  1.0000
  H   H38       1.0  0.1366921889963422  0.7414002452557114  0.23456457398088312  1.0000
  H   H39       1.0  0.3162233312494961  0.052691191170111916  0.49989891334099223  1.0000
  H   H40       1.0  0.5917255249158586  0.5982990201097563  0.024901822168445213  1.0000
  H   H41       1.0  0.5804983393361456  0.35434094425160373  0.9447789860039821  1.0000
  H   H42       1.0  0.18077627915275227  0.061932314275637196  0.2001437667743744  1.0000
  H   H43       1.0  0.05115044812213652  0.1532182898786658  0.9072073753546164  1.0000
  H   H44       1.0  0.2321234129953496  0.34851366534446976  0.3706827854036447  1.0000
  H   H45       1.0  0.13781862628683678  0.6080078404072394  0.734122199289459  1.0000
  H   H46       1.0  0.9130319023515624  0.4846698993303773  0.509539698559081  1.0000
  H   H47       1.0  0.32468437421998436  0.2156797286050605  0.49703713752024475  1.0000
  H   H48       1.0  0.956823223474238  0.586501119228231  0.5789748547352147  1.0000
  C   C1        1.0  0.7183498197794905  0.7845608173254772  0.6276874830909094  1.0000
  C   C2        1.0  0.5030463534813805  0.6675613144278855  0.4430703250326928  1.0000
  C   C3        1.0  0.5789020223850014  0.41506787486728286  0.3038599239089733  1.0000
  C   C4        1.0  0.36468206043880963  0.22914109934310284  0.4695446194587873  1.0000
  C   C5        1.0  0.346582701245893  0.570102974051693  0.6247012110728534  1.0000
  C   C6        1.0  0.6250874878593607  0.47601260301561865  0.2876838825885457  1.0000
  C   C7        1.0  0.26875256958295785  0.5069324772089416  0.602546840624079  1.0000
  C   C8        1.0  0.43925307267397073  0.6774968931857329  0.45212394301341874  1.0000
  C   C9        1.0  0.28078880707870013  0.3383281043844449  0.28154984516571363  1.0000
  C   C10       1.0  0.009841460451582398  0.554760783719722  0.7055494974845474  1.0000
  C   C11       1.0  0.9600552056890451  0.5314527672116256  0.5677134315223427  1.0000
  C   C12       1.0  0.39199401253098637  0.18113834404161366  0.4321033128831716  1.0000
  C   C13       1.0  0.04385796480991637  0.547033009789068  0.5752992497023613  1.0000
  C   C14       1.0  0.20419233446862253  0.5121075240527304  0.6133906798428941  1.0000
  C   C15       1.0  0.937869854854121  0.4994518038031189  0.6242277197869016  1.0000
  C   C16       1.0  0.6010916778157521  0.5707810505367589  0.7099562783696457  1.0000
  C   C17       1.0  0.08329733881044629  0.5477087722797266  0.7037631946724191  1.0000
  C   C18       1.0  0.07034590863801071  0.5046373336600425  0.6193552114863723  1.0000
  C   C19       1.0  0.9980035715778615  0.4152525667995163  0.5770980783900371  1.0000
  C   C20       1.0  0.9277957353546141  0.41363454001361777  0.5961399387278661  1.0000
  C   C21       1.0  0.14408115899721  0.5100175052508719  0.6177334861235765  1.0000
  C   C22       1.0  0.8633583375337893  0.49610412258260794  0.6214636378159002  1.0000
  C   C23       1.0  0.5911635578887838  0.5008551164288588  0.7170660354056366  1.0000
  C   C24       1.0  0.7994683676038792  0.49399894778002823  0.6053458341111978  1.0000
  C   C25       1.0  0.4346270452539542  0.0006957181130005078  0.5091439516249423  1.0000
  C   C26       1.0  0.4338823894224504  0.9577774585089144  0.3794619993350068  1.0000
  C   C27       1.0  0.4415309610425382  0.885612443575894  0.38391324466250154  1.0000
  C   C28       1.0  0.648006106118359  0.436829249595071  0.5426427918671095  1.0000
  C   C29       1.0  0.420100484460704  0.734646058347536  0.4426205878078449  1.0000
  C   C30       1.0  0.3840878562572954  0.9757205428842893  0.42332993933423074  1.0000
  C   C31       1.0  0.43682915262552063  0.9291792644189056  0.5184519800180426  1.0000
  C   C32       1.0  0.4061514058264706  0.8587222309080431  0.43722499196593395  1.0000
  C   C33       1.0  0.314620735075856  0.8280156219253028  0.39739148071373614  1.0000
  C   C34       1.0  0.7296974708571825  0.49836108873781626  0.5813878092317284  1.0000
  C   C35       1.0  0.3017962915050775  0.8955594033954166  0.3889508315328314  1.0000
  C   C36       1.0  0.4135924818354653  0.7911685188928599  0.4402332952288717  1.0000
  C   C37       1.0  0.3750298811431349  0.042164345997043946  0.41911472846216213  1.0000
  C   C38       1.0  0.37921417607249447  0.10550823954477549  0.4248658590849815  1.0000
  C   C39       1.0  0.650218722352527  0.47280396918439743  0.22615076169109477  1.0000
  C   C40       1.0  0.5269167688877161  0.43635561496461134  0.6463722514874846  1.0000
  C   C41       1.0  0.6145011499956328  0.40008225160861605  0.1574661004406438  1.0000
  C   C42       1.0  0.6311355665616604  0.39883292464511305  0.09496943974778567  1.0000
  C   C43       1.0  0.6846465288730954  0.4728928513036904  0.09838879098763435  1.0000
  C   C44       1.0  0.7254027752106468  0.5441761379913926  0.16973087709668988  1.0000
  C   C45       1.0  0.6386573361360278  0.5471652625826094  0.3458155617314773  1.0000
  C   C46       1.0  0.7091017053340067  0.54454636427252  0.2320456555045567  1.0000
  C   C47       1.0  0.6709642126571963  0.542358969772529  0.9235564111927062  1.0000
  C   C48       1.0  0.6531822058335807  0.5546008194080231  0.8590661731389349  1.0000
  C   C49       1.0  0.6610561401277196  0.4661516882037945  0.9157665567106438  1.0000
  C   C50       1.0  0.6260918531115963  0.49344302326504424  0.7847701117409758  1.0000
  C   C51       1.0  0.6245876774195125  0.4214844504656126  0.7777417220218226  1.0000
  C   C52       1.0  0.7270935613648034  0.5669237750042978  0.5803096279729231  1.0000
  C   C53       1.0  0.6413138859675556  0.40851701738524326  0.8416037508239214  1.0000
  C   C54       1.0  0.7794152183521348  0.9168191591390026  0.7508115834070497  1.0000
  C   C55       1.0  0.8510920141133625  0.9572465459488413  0.7444865431506855  1.0000
  C   C56       1.0  0.2699215836970339  0.4366754794952356  0.5627147041680517  1.0000
  C   C57       1.0  0.9185416046255384  0.02569173664510757  0.8077390332044985  1.0000
  C   C58       1.0  0.9160501237895886  0.05677819277418899  0.8795722888226648  1.0000
  C   C59       1.0  0.8418477510161891  0.021883854277056983  0.8835615065569158  1.0000
  C   C60       1.0  0.7750101193625412  0.9536659427381905  0.8203793436748937  1.0000
  C   C61       1.0  0.12217939760748922  0.24825371565244578  0.08060176255204253  1.0000
  C   C62       1.0  0.19253292669095154  0.3008058155878004  0.14819468859560916  1.0000
  C   C63       1.0  0.06260836851357962  0.17643742380536048  0.07329364971457861  1.0000
  C   C64       1.0  0.4417151625339103  0.2293211739077208  0.407634089869241  1.0000
  C   C65       1.0  0.20890761805549124  0.2807991202363951  0.20832487403160374  1.0000
  C   C66       1.0  0.152366531751845  0.20405940346824986  0.1976720755965573  1.0000
  C   C67       1.0  0.40712950808241993  0.6231274749484326  0.4800563888545639  1.0000
  C   C68       1.0  0.07655088815013042  0.15622443800809546  0.13416738576227522  1.0000
  C   C69       1.0  0.6415545527182617  0.7864422202549404  0.6890074144226334  1.0000
  C   C70       1.0  0.7155280365986274  0.8362671502224046  0.6911143860224274  1.0000
  C   C71       1.0  0.36223962392564596  0.371463828212647  0.29619614288294116  1.0000
  C   C72       1.0  0.28219986221350984  0.36147072184476764  0.35516791627276945  1.0000
  S   S1        1.0  0.5833484744867974  0.7301809433262035  0.4305948529344761  1.0000
  S   S2        1.0  0.010706257254625498  0.0608051852467213  0.7973612011040532  1.0000
  S   S3        1.0  0.39215406920523327  0.6748913988585558  0.6779344746025019  1.0000
  S   S4        1.0  0.016730355162209797  0.3377374331562492  0.5890854394419309  1.0000
  S   S5        1.0  0.536806986155767  0.9669544905583007  0.5959700142383754  1.0000
  S   S6        1.0  0.23951792093404117  0.8609396607972568  0.28844064048593765  1.0000
  S   S7        1.0  0.41173442890713113  0.05864279024282838  0.580850137212245  1.0000
  S   S8        1.0  0.6994837833897591  0.6282456338007804  0.01113347631191167  1.0000
  S   S9        1.0  0.5854193517477312  0.2996624257427028  0.015757454907948307  1.0000
  S   S10       1.0  0.18418751671682534  0.16906194897252647  0.26470521779075545  1.0000
  Br  Br1       1.0  0.5350270142009707  0.30211185458117024  0.2563734060448369  1.0000
  Br  Br2       1.0  0.0360306984378482  0.6687122746279355  0.7410043070387432  1.0000
  Br  Br3       1.0  0.9798192526952362  0.5223888010203621  0.7811438176793644  1.0000
  Br  Br4       1.0  0.5348352758661788  0.05826203477467114  0.4152196440294277  1.0000
  Br  Br5       1.0  0.5493519106463013  0.9007740274715629  0.4070460276718394  1.0000
  Br  Br6       1.0  0.637642132509498  0.3100927425820571  0.8285155767002124  1.0000
  Br  Br7       1.0  0.9903065971730742  0.06487161754309784  0.12582965185426084  1.0000
  Br  Br8       1.0  0.8157006535991442  0.6705187711981608  0.6192818556269232  1.0000
  N   N1        1.0  0.6526812504836953  0.7105750942687761  0.5919481667072759  1.0000
  N   N2        1.0  0.6561464797576162  0.438418532088839  0.9705009377642639  1.0000
  N   N3        1.0  0.9890260952112371  0.11578649191302054  0.9444413569317407  1.0000
  N   N4        1.0  0.3961959662644361  0.2999834187279403  0.467695655530406  1.0000
  N   N5        1.0  0.9886481709405076  0.1216512695221041  0.008616956147811418  1.0000
  N   N6        1.0  0.5462472990448572  0.5485887082534757  0.6408027514403685  1.0000
  N   N7        1.0  0.6021804846767792  0.46684157474094673  0.5201912008727732  1.0000
  N   N8        1.0  0.500285754787363  0.4660562920372938  0.6021004741257984  1.0000
  N   N9        1.0  0.6509822442817709  0.5475594066534056  0.5438778628186328  1.0000
  N   N10       1.0  0.4438359827982411  0.3001435615666068  0.4294377770666956  1.0000
  N   N11       1.0  0.6043563379452338  0.7117954025285796  0.6297328843863214  1.0000
  N   N12       1.0  0.34241177545618484  0.4580754232866226  0.5619356864532677  1.0000
  N   N13       1.0  0.6039096968671914  0.5298864522072009  0.39116210180782224  1.0000
  N   N14       1.0  0.4496198633846689  0.5856625313021836  0.48825113472696563  1.0000
  N   N15       1.0  0.40805915122931674  0.40893557846690937  0.3729350867633627  1.0000
  N   N16       1.0  0.35854864519036056  0.4031504086569342  0.4089360791896652  1.0000
  N   N17       1.0  0.5070928118875174  0.6115128936360178  0.4633282852213157  1.0000
  N   N18       1.0  0.5672181299932576  0.4475220830925932  0.36540636592895487  1.0000
  N   N19       1.0  0.38981814362227857  0.5403138466500864  0.5996496602131887  1.0000
  N   N20       1.0  0.6993784266112825  0.4909794586865884  0.041001217598392266  1.0000
  O   O1        1.0  0.6220390790058871  0.8124848055669103  0.4889270617032082  1.0000
  O   O2        1.0  0.5588223303106119  0.9063878525797687  0.5823758408227278  1.0000
  O   O3        1.0  0.5902886872807259  0.047600017877989904  0.6096449340458677  1.0000
  O   O4        1.0  0.5136559268225368  0.9721539122839997  0.6665002516218124  1.0000
  O   O5        1.0  0.2261526757129317  0.923230974198475  0.28082437506660807  1.0000
  O   O6        1.0  0.2667084535952143  0.8204331591306083  0.23855368239333788  1.0000
  O   O7        1.0  0.1576972397358603  0.791387411103507  0.2814055750443957  1.0000
  O   O8        1.0  0.4126170186655926  0.029460400135526782  0.6374203788313366  1.0000
  O   O9        1.0  0.4603743755883584  0.14328336262802568  0.6041875868341793  1.0000
  O   O10       1.0  0.3184123989504782  0.028390166614379056  0.5353256736358816  1.0000
  O   O11       1.0  0.7782442170132241  0.6587967172730769  0.0671735276616159  1.0000
  O   O12       1.0  0.6294311546515203  0.6906370005538561  0.42166884177392927  1.0000
  O   O13       1.0  0.6797186271525603  0.6817844992206472  0.9889698141048344  1.0000
  O   O14       1.0  0.6356896129442545  0.5888119189187434  0.04315449461928716  1.0000
  O   O15       1.0  0.6505932631228076  0.29127509825671166  0.004596351725929312  1.0000
  O   O16       1.0  0.5287824789730564  0.24172763024736102  0.029534790548382355  1.0000
  O   O17       1.0  0.5360761571039347  0.306550304482407  0.9471533337630904  1.0000
  O   O18       1.0  0.2690470016388318  0.19879874509546616  0.2889812433936925  1.0000
  O   O19       1.0  0.151053775560186  0.18104918753034127  0.3194028127462546  1.0000
  O   O20       1.0  0.1401305156786634  0.0723937431807329  0.21167775420810395  1.0000
  O   O21       1.0  0.047262379213258016  0.017743924442505908  0.8196937233652052  1.0000
  O   O22       1.0  0.9945402495098038  0.05710075784239187  0.7227208631031987  1.0000
  O   O23       1.0  0.541133626695128  0.7235326129500236  0.3488526997263932  1.0000
  O   O24       1.0  0.06098190868985397  0.1535138166589505  0.8597481299503045  1.0000
  O   O25       1.0  0.381871117417127  0.6960018609089641  0.7475309965486545  1.0000
  O   O26       1.0  0.4706952134429799  0.709184319999977  0.6783933109326128  1.0000
  O   O27       1.0  0.3414116837031784  0.6974258425416053  0.6226035812120332  1.0000
  O   O28       1.0  0.9398010197556843  0.2679025452209415  0.5645268861581627  1.0000
  O   O29       1.0  0.0717315730864456  0.33079266891849096  0.55776407391091  1.0000
  O   O30       1.0  0.06459783564415741  0.3772568501696866  0.6820618756743003  1.0000
