data_image0
_chemical_formula_structural       Li2H12C20N2O8
_chemical_formula_sum              "Li2 H12 C20 N2 O8"
_cell_length_a       4.904827247009988
_cell_length_b       7.287305068057581
_cell_length_c       13.467109279865612
_cell_angle_alpha    98.29447569772049
_cell_angle_beta     89.99999912319703
_cell_angle_gamma    90.00022883718638

_space_group_name_H-M_alt    "P 1"
_space_group_IT_number       1

loop_
  _space_group_symop_operation_xyz
  'x, y, z'

loop_
  _atom_site_type_symbol
  _atom_site_label
  _atom_site_symmetry_multiplicity
  _atom_site_fract_x
  _atom_site_fract_y
  _atom_site_fract_z
  _atom_site_occupancy
  Li  Li1       1.0  0.6379175537475136  0.375072851565939  0.4986781512186269  1.0000
  Li  Li2       1.0  0.13790883938577284  0.6249259022132634  0.5013218830466073  1.0000
  H   H1        1.0  0.65745781983793  0.48553543382266895  0.299158893166819  1.0000
  H   H2        1.0  0.1574565962503343  0.5144647603643904  0.7008412533270132  1.0000
  H   H3        1.0  0.32449989061476  0.40719228854313644  0.1568705892582472  1.0000
  H   H4        1.0  0.8245037639820794  0.5928055907075276  0.843129375925443  1.0000
  H   H5        1.0  0.29083976310444365  0.6047836330738434  0.0227809897330573  1.0000
  H   H6        1.0  0.7908444970726692  0.39521415398924375  0.9772197109717737  1.0000
  H   H7        1.0  0.583142426899748  0.8845824260483611  0.02452976506860692  1.0000
  H   H8        1.0  0.08314697890934042  0.11541756413457452  0.9754703658703574  1.0000
  H   H9        1.0  0.42266571633541633  0.16179820768601877  0.2777368542380501  1.0000
  H   H10       1.0  0.9226628955966802  0.838199940610835  0.7222616463593639  1.0000
  H   H11       1.0  0.4207998159372083  0.03065451458608951  0.3785891841143467  1.0000
  H   H12       1.0  0.9207916613116327  0.969342241610214  0.6214084653875602  1.0000
  C   C1        1.0  0.009521597298586901  0.8129716423697673  0.3124599997521571  1.0000
  C   C2        1.0  0.509518993485429  0.18702675980544836  0.6875429779049823  1.0000
  C   C3        1.0  0.8007051776736772  0.7286956765025822  0.23981987340921757  1.0000
  C   C4        1.0  0.30070658668822153  0.2713049107178379  0.7601795605023156  1.0000
  C   C5        1.0  0.640617523991466  0.5715587817934492  0.2396054659859388  1.0000
  C   C6        1.0  0.1406178262088247  0.42843997941014317  0.7603945688453919  1.0000
  C   C7        1.0  0.45569345528716815  0.528942133948384  0.1598263614766324  1.0000
  C   C8        1.0  0.9556945678544652  0.47105749220885684  0.8401737393055199  1.0000
  C   C9        1.0  0.435862305845241  0.6409465242315309  0.0838435742376262  1.0000
  C   C10       1.0  0.935864789356522  0.3590530474867394  0.9161565223936776  1.0000
  C   C11       1.0  0.5990571067027305  0.7994702677478571  0.08447354229768679  1.0000
  C   C12       1.0  0.09906216632464293  0.20052976612506515  0.9155265919725436  1.0000
  C   C13       1.0  0.7802664631634144  0.8405807198097437  0.1635344724258019  1.0000
  C   C14       1.0  0.28026924381575213  0.15941981130379904  0.8364649572077099  1.0000
  C   C15       1.0  0.9755011218347035  0.9970517075721049  0.18649323377290733  1.0000
  C   C16       1.0  0.4755009366758359  0.0029507466859257994  0.8135078299972845  1.0000
  C   C17       1.0  0.2900839047821222  0.1015891873354917  0.3300421738497903  1.0000
  C   C18       1.0  0.7900753271803751  0.8984127576844188  0.6699581085418701  1.0000
  C   C19       1.0  0.13332247444778034  0.2578278919122853  0.395224256766852  1.0000
  C   C20       1.0  0.6333129731638394  0.7421694624960867  0.6047756683987657  1.0000
  N   N1        1.0  0.1111240036810628  0.9674376441656494  0.2745381721234139  1.0000
  N   N2        1.0  0.6111245595497651  0.0325651965535485  0.7254629235142431  1.0000
  O   O1        1.0  0.08688809290264742  0.7651694098147885  0.3916269857881716  1.0000
  O   O2        1.0  0.5868898539275875  0.23483336329481125  0.6083703919432324  1.0000
  O   O3        1.0  0.0184556672211471  0.12893982632296297  0.1413232980501462  1.0000
  O   O4        1.0  0.5184571126628583  0.8710627597868739  0.8586770356238702  1.0000
  O   O5        1.0  0.2807938988036227  0.38608871306261966  0.44213211264724345  1.0000
  O   O6        1.0  0.7807775225245664  0.6139090472560796  0.5578715562193182  1.0000
  O   O7        1.0  0.8776157373916079  0.2493138297452688  0.3979352265611808  1.0000
  O   O8        1.0  0.377595531432938  0.7506911290632701  0.6020652904265801  1.0000
