data_image0
_chemical_formula_structural       Ca2H32C40N4O20
_chemical_formula_sum              "Ca2 H32 C40 N4 O20"
_cell_length_a       7.321793695317974
_cell_length_b       9.220712189674241
_cell_length_c       15.955368494929628
_cell_angle_alpha    106.19229647101136
_cell_angle_beta     99.02160145251977
_cell_angle_gamma    91.3265052240238

_space_group_name_H-M_alt    "P 1"
_space_group_IT_number       1

loop_
  _space_group_symop_operation_xyz
  'x, y, z'

loop_
  _atom_site_type_symbol
  _atom_site_label
  _atom_site_symmetry_multiplicity
  _atom_site_fract_x
  _atom_site_fract_y
  _atom_site_fract_z
  _atom_site_occupancy
  Ca  Ca1       1.0  0.7392486455532747  0.6508962549194165  0.0009040022530725769  1.0000
  Ca  Ca2       1.0  0.2607740541850774  0.3490915804385181  0.9990987929567583  1.0000
  H   H1        1.0  0.8721457240970876  0.9679711156310089  0.08201600716882497  1.0000
  H   H2        1.0  0.6227348465917117  0.882864023752262  0.9163876595187475  1.0000
  H   H3        1.0  0.12784032747765647  0.03202753802244019  0.9179796544143388  1.0000
  H   H4        1.0  0.3772605540183703  0.11709387345969446  0.0835993439104072  1.0000
  H   H5        1.0  0.06508702247947437  0.904042539687097  0.07123446764740748  1.0000
  H   H6        1.0  0.4231615913814437  0.8270573139438184  0.922351614590184  1.0000
  H   H7        1.0  0.9349022161098616  0.09595879923020327  0.9287737280169495  1.0000
  H   H8        1.0  0.5768318041993724  0.17290875867013258  0.07764463742479681  1.0000
  H   H9        1.0  0.8185781434653236  0.6846241412940228  0.502613751415943  1.0000
  H   H10       1.0  0.6815645364722374  0.18462085526306277  0.4958757575606115  1.0000
  H   H11       1.0  0.18143937462691886  0.3153711953324886  0.4973785405182056  1.0000
  H   H12       1.0  0.31845193310665104  0.8154344493385749  0.5041261557568504  1.0000
  H   H13       1.0  0.803271235057423  0.9518456975165318  0.5014275188722266  1.0000
  H   H14       1.0  0.6950601688144431  0.45329619080247596  0.49695840468322683  1.0000
  H   H15       1.0  0.19673835277451698  0.04815315979457319  0.49857040617220605  1.0000
  H   H16       1.0  0.3049796087517008  0.5467437926210079  0.5030189612158296  1.0000
  H   H17       1.0  0.9551886858652165  0.16142358235529738  0.630760180614196  1.0000
  H   H18       1.0  0.5409886128935142  0.5323118448630879  0.3678958007462968  1.0000
  H   H19       1.0  0.04480986669367577  0.8385742466188403  0.3692424779692871  1.0000
  H   H20       1.0  0.4590381142319018  0.46770195612172205  0.6320748358369812  1.0000
  H   H21       1.0  0.11675471670231727  0.10525329763697747  0.7686730204772518  1.0000
  H   H22       1.0  0.37755710610922216  0.337084156897383  0.23054101227585727  1.0000
  H   H23       1.0  0.8832268885524498  0.894738869336031  0.23133138713110674  1.0000
  H   H24       1.0  0.6224521781239502  0.6629142161891151  0.7694424006568923  1.0000
  H   H25       1.0  0.28627142049872845  0.5583137673467958  0.831992696776972  1.0000
  H   H26       1.0  0.21374025536212563  0.7214498606358715  0.16523646651781124  1.0000
  H   H27       1.0  0.7137241166448618  0.44168165005566346  0.1680056302232202  1.0000
  H   H28       1.0  0.7862536234161721  0.2785744322031504  0.8347842922267361  1.0000
  H   H29       1.0  0.13447780514000837  0.4204234655713535  0.7487471386478008  1.0000
  H   H30       1.0  0.36208267807409555  0.6694703689638998  0.249799927546789  1.0000
  H   H31       1.0  0.8655228580477328  0.5795663564267315  0.2512513190408684  1.0000
  H   H32       1.0  0.6378866871339143  0.33055635220376434  0.7502301827680853  1.0000
  C   C1        1.0  0.9960178143334701  0.600975528158706  0.6594501594437008  1.0000
  C   C2        1.0  0.5004683813101991  0.9429148242559081  0.34000053612579967  1.0000
  C   C3        1.0  0.003993728530140596  0.39901307946024644  0.3405438419110922  1.0000
  C   C4        1.0  0.499528449280362  0.057114770530958495  0.6600099417632849  1.0000
  C   C5        1.0  0.966766701782795  0.7463975326562958  0.637633699195469  1.0000
  C   C6        1.0  0.5300931681252478  0.1104210532527361  0.36144939546647953  1.0000
  C   C7        1.0  0.03324219766071219  0.25359224852419254  0.36236217986274266  1.0000
  C   C8        1.0  0.46991220991543514  0.8896129861487266  0.6385579493818199  1.0000
  C   C9        1.0  0.8800302614074409  0.7753744348346886  0.5609071324162826  1.0000
  C   C10       1.0  0.618373116883248  0.2167374118253989  0.4378111614300267  1.0000
  C   C11       1.0  0.1199855881810876  0.22461644772467787  0.4390868798215521  1.0000
  C   C12       1.0  0.3816368682734677  0.7833063625378286  0.5621835512977569  1.0000
  C   C13       1.0  0.8750016754913544  0.9272778799292494  0.5605200959729971  1.0000
  C   C14       1.0  0.6227324587543493  0.36904440821638207  0.43803474164200656  1.0000
  C   C15       1.0  0.12500069579993317  0.07271645929571949  0.4394785342961214  1.0000
  C   C16       1.0  0.3772912384277873  0.6309811215089596  0.5619506258230232  1.0000
  C   C17       1.0  0.9588746068549908  0.044710049249481194  0.6339684603084805  1.0000
  C   C18       1.0  0.5374191940437639  0.41240096693768885  0.36475585931996335  1.0000
  C   C19       1.0  0.04112070349281535  0.9552820146054513  0.3660305979801636  1.0000
  C   C20       1.0  0.462610167172663  0.5876268063630049  0.6352283531347709  1.0000
  C   C21       1.0  0.04777432036902951  0.015126993456092901  0.7114924373959186  1.0000
  C   C22       1.0  0.44725648922301525  0.3045752392357173  0.28758547218015457  1.0000
  C   C23       1.0  0.9522210743773414  0.9848662022835056  0.28850679777082894  1.0000
  C   C24       1.0  0.5527508003786467  0.695433320383202  0.7123999715581064  1.0000
  C   C25       1.0  0.047503407519791076  0.864658571424485  0.7118806628745561  1.0000
  C   C26       1.0  0.4477114127805065  0.15379883609509895  0.2873801266401799  1.0000
  C   C27       1.0  0.9524876805016544  0.135332349374707  0.2881185614091351  1.0000
  C   C28       1.0  0.5522868452493553  0.8462146811503074  0.7126204954777224  1.0000
  C   C29       1.0  0.12828867178078696  0.7960117265212787  0.7817249106216125  1.0000
  C   C30       1.0  0.36608396044037045  0.014478499932643298  0.21789057407922746  1.0000
  C   C31       1.0  0.8717024558404987  0.20397925743764486  0.21827620654622143  1.0000
  C   C32       1.0  0.6339194580345976  0.9855284795029106  0.7821156805014413  1.0000
  C   C33       1.0  0.14327711179025465  0.5338355148306562  0.7957778772735014  1.0000
  C   C34       1.0  0.3549551153766187  0.7384876213851683  0.20351743977964526  1.0000
  C   C35       1.0  0.8567193290711258  0.46615316411169505  0.20422074641022905  1.0000
  C   C36       1.0  0.6450291778376142  0.26153575912454124  0.7965113033402389  1.0000
  C   C37       1.0  0.012798705204112082  0.5337627749571608  0.8626869483342432  1.0000
  C   C38       1.0  0.4920097765960064  0.6851558864929713  0.1392609440412329  1.0000
  C   C39       1.0  0.9871968319394852  0.46623264244529855  0.13731137866595594  1.0000
  C   C40       1.0  0.5079768363088704  0.3148255098769041  0.8607572219767549  1.0000
  N   N1        1.0  0.09902273981416695  0.6403489433405481  0.7457993691806949  1.0000
  N   N2        1.0  0.39495797520049064  0.8949566341255631  0.25427741485567884  1.0000
  N   N3        1.0  0.9009752403536381  0.3596419890593411  0.2541990733272712  1.0000
  N   N4        1.0  0.605051940896594  0.10506189660164719  0.7457366712760563  1.0000
  O   O1        1.0  0.9451315388465672  0.47065625822075663  0.6151131250291756  1.0000
  O   O2        1.0  0.5528627221887276  0.8575708867668721  0.3843197583185401  1.0000
  O   O3        1.0  0.0548894023851574  0.5293299713397064  0.384875516122847  1.0000
  O   O4        1.0  0.44712552242055636  0.14247135725350543  0.615700195521768  1.0000
  O   O5        1.0  0.20861817095145332  0.8592342526642157  0.8579976357817076  1.0000
  O   O6        1.0  0.28616694337310367  0.0004999997612386998  0.1414948913217629  1.0000
  O   O7        1.0  0.7913658429265664  0.1407543717117008  0.14200138556013542  1.0000
  O   O8        1.0  0.713826063951025  0.999495775116742  0.8585146009244158  1.0000
  O   O9        1.0  0.05024598326934888  0.4430375112244533  0.9088795591058344  1.0000
  O   O10       1.0  0.46256378802964077  0.5497918345328046  0.08927124507943064  1.0000
  O   O11       1.0  0.9497783676425511  0.5569709085900171  0.0911327295236575  1.0000
  O   O12       1.0  0.5374298383655755  0.4501606443928097  0.9107900435094508  1.0000
  O   O13       1.0  0.8809618064264697  0.6195983179012147  0.8672514369567565  1.0000
  O   O14       1.0  0.6226899698343972  0.7759427608178768  0.13875961601748094  1.0000
  O   O15       1.0  0.11900771250071779  0.38036501359357533  0.13273399534284644  1.0000
  O   O16       1.0  0.37726367776894426  0.22403058663524425  0.8612249939094456  1.0000
  O   O17       1.0  0.9319018224578028  0.8782467879756409  0.05137932142542212  1.0000
  O   O18       1.0  0.5548132501350409  0.8172677802371097  0.9422991455790566  1.0000
  O   O19       1.0  0.0680928161668959  0.12175637345213629  0.9486151000010852  1.0000
  O   O20       1.0  0.4451835911142936  0.18267406048662585  0.0576786330402896  1.0000
