data_image0
_chemical_formula_structural       K2P2H48C30S4O6
_chemical_formula_sum              "K2 P2 H48 C30 S4 O6"
_cell_length_a       8.20267208660762
_cell_length_b       11.21107721987155
_cell_length_c       11.336602702305202
_cell_angle_alpha    96.76636279942387
_cell_angle_beta     102.8611405831159
_cell_angle_gamma    111.5231923524162

_space_group_name_H-M_alt    "P 1"
_space_group_IT_number       1

loop_
  _space_group_symop_operation_xyz
  'x, y, z'

loop_
  _atom_site_type_symbol
  _atom_site_label
  _atom_site_symmetry_multiplicity
  _atom_site_fract_x
  _atom_site_fract_y
  _atom_site_fract_z
  _atom_site_occupancy
  K   K1        1.0  0.552169133976861  0.3631992925099751  0.6024733062367177  1.0000
  K   K2        1.0  0.44783051368709453  0.6368006988040805  0.3975247604739992  1.0000
  P   P1        1.0  0.434577855090687  0.3116102235343802  0.27024127892067906  1.0000
  P   P2        1.0  0.5654210945233514  0.6883907461625185  0.7297585553623096  1.0000
  H   H1        1.0  0.5852797004092737  0.46498767166070126  0.10339302938711378  1.0000
  H   H2        1.0  0.4147186968766763  0.5350123151333649  0.8966066005470242  1.0000
  H   H3        1.0  0.58336724981627  0.4082536567557256  0.8843875155260721  1.0000
  H   H4        1.0  0.41663475523252214  0.5917483019874225  0.11561204299268013  1.0000
  H   H5        1.0  0.34052756554282865  0.9960491055827492  0.8868317938470728  1.0000
  H   H6        1.0  0.6594719356157341  0.0039528479825037  0.11316736267351504  1.0000
  H   H7        1.0  0.33466904817775855  0.05486306807508609  0.10363888582252662  1.0000
  H   H8        1.0  0.6653311525978299  0.9451379051762817  0.8963602673482928  1.0000
  H   H9        1.0  0.38811959733493506  0.051831393687002986  0.5851626077303538  1.0000
  H   H10       1.0  0.6118799046071856  0.9481705589127358  0.4148374309014785  1.0000
  H   H11       1.0  0.23270771224854783  0.9955895674997067  0.6760508689050443  1.0000
  H   H12       1.0  0.7672924893106058  0.004411404786139901  0.3239491663770267  1.0000
  H   H13       1.0  0.45441868712931943  0.9890071968063838  0.7167825121815526  1.0000
  H   H14       1.0  0.5455822132633016  0.0109927961310987  0.283216637639498  1.0000
  H   H15       1.0  0.082742271444836  0.5138516780153495  0.20289963718775542  1.0000
  H   H16       1.0  0.9172568262416977  0.4861473274993104  0.7971008715078729  1.0000
  H   H17       1.0  0.8939937424521036  0.38782083196746  0.08892050552819343  1.0000
  H   H18       1.0  0.1060071587240686  0.6121791600045087  0.9110795264041163  1.0000
  H   H19       1.0  0.11083099999317624  0.4509552676362958  0.05947782519120893  1.0000
  H   H20       1.0  0.8891693496384648  0.5490437404673187  0.9405228845035016  1.0000
  H   H21       1.0  0.04928451224366635  0.3777127351226143  0.36477863247368003  1.0000
  H   H22       1.0  0.9507163889325058  0.6222872568493472  0.6352213994586224  1.0000
  H   H23       1.0  0.03614120241965676  0.214302441495981  0.3322060102744332  1.0000
  H   H24       1.0  0.963856644105313  0.7856965604642171  0.6677951795333643  1.0000
  H   H25       1.0  0.8516481038407732  0.25388383796665437  0.25627989697155584  1.0000
  H   H26       1.0  0.14835154695739314  0.7461161494853245  0.7437216981841676  1.0000
  H   H27       1.0  0.05580616942702929  0.11891078791030907  0.12379265568190333  1.0000
  H   H28       1.0  0.9441947317491429  0.8810892040616524  0.876207376250399  1.0000
  H   H29       1.0  0.095981224609254  0.21945117802786024  0.013470478582490796  1.0000
  H   H30       1.0  0.9040178730772721  0.7805478274868064  0.9865300301131372  1.0000
  H   H31       1.0  0.8795139840422268  0.1612654215337201  0.04280575297479323  1.0000
  H   H32       1.0  0.1204862183004778  0.8387355497866124  0.9571951644185293  1.0000
  H   H33       1.0  0.9806181092486881  0.35370598525479124  0.5609228230339413  1.0000
  H   H34       1.0  0.019382094661118423  0.6462949841345066  0.4390798585818845  1.0000
  H   H35       1.0  0.785716087147698  0.2096306650601676  0.47191363527166913  1.0000
  H   H36       1.0  0.2142848132449232  0.7903693278773148  0.5280855145493819  1.0000
  H   H37       1.0  0.9158967102710491  0.0672821424225916  0.5676218874994491  1.0000
  H   H38       1.0  0.08410293896001525  0.932717846960422  0.43237794343377106  1.0000
  H   H39       1.0  0.12070495586634422  0.19800905952558168  0.5669896846810334  1.0000
  H   H40       1.0  0.8792941410366308  0.8019899469545987  0.43300994190334313  1.0000
  H   H41       1.0  0.16364398621495013  0.3063076472517778  0.7799256809475994  1.0000
  H   H42       1.0  0.8363538587429107  0.6936913566394481  0.22007374463769488  1.0000
  H   H43       1.0  0.08158266617783738  0.1375481030012153  0.7889210103785874  1.0000
  H   H44       1.0  0.9184164307251377  0.862450903478965  0.2110786162057892  1.0000
  H   H45       1.0  0.7732692958241288  0.11882729765276419  0.7619782866812559  1.0000
  H   H46       1.0  0.226729802645956  0.8811717068963818  0.23802310412561684  1.0000
  H   H47       1.0  0.8945535970922833  0.28614272473399177  0.8464627222921025  1.0000
  H   H48       1.0  0.10544549981069204  0.7138562817461889  0.1535369042922668  1.0000
  C   C1        1.0  0.4555875559258666  0.26306575622822237  0.11708946959736014  1.0000
  C   C2        1.0  0.5444131979613689  0.7369361989604643  0.8829107700335614  1.0000
  C   C3        1.0  0.528907260074334  0.3623257084311646  0.05494704951504301  1.0000
  C   C4        1.0  0.47109349302934334  0.637676247723043  0.9450523080046198  1.0000
  C   C5        1.0  0.5299259180970352  0.3311522480722147  0.9332201598401543  1.0000
  C   C6        1.0  0.47007678578522444  0.6688487313225694  0.06677851321757804  1.0000
  C   C7        1.0  0.4581532886690313  0.19887216480678657  0.870696935036307  1.0000
  C   C8        1.0  0.5418481656187809  0.8011288091024936  0.12930418335609775  1.0000
  C   C9        1.0  0.3927448532377654  0.0988972623862665  0.933035389165909  1.0000
  C   C10       1.0  0.6072565994829446  0.9011037134540487  0.06696396500399261  1.0000
  C   C11       1.0  0.3912109308252596  0.1320717845180539  0.05552145012789821  1.0000
  C   C12       1.0  0.6087905218954506  0.8679291913222615  0.9444779040420033  1.0000
  C   C13       1.0  0.37725300040622767  0.044862405321751495  0.6789221385488349  1.0000
  C   C14       1.0  0.6227472011529187  0.9551385669640952  0.321077896733236  1.0000
  C   C15       1.0  0.08748442684161972  0.3196447932998793  0.18694565083180956  1.0000
  C   C16       1.0  0.9125157755010777  0.6803561780204531  0.813055266561513  1.0000
  C   C17       1.0  0.042367193774005434  0.4250326735055198  0.13139225900165746  1.0000
  C   C18       1.0  0.9576319039125281  0.57496633200914  0.8686082496939636  1.0000
  C   C19       1.0  0.0011053993643202697  0.28895752210909365  0.2916563744674009  1.0000
  C   C20       1.0  0.9988936983222064  0.7110414834055733  0.7083441342282202  1.0000
  C   C21       1.0  0.027563219331071327  0.19719944010762452  0.08586269200438323  1.0000
  C   C22       1.0  0.9724369837951841  0.8028015302471873  0.9141391075001909  1.0000
  C   C23       1.0  0.8903063650624649  0.25329629373958806  0.5622783885264014  1.0000
  C   C24       1.0  0.10969328416860002  0.7467036956434259  0.4377214424068258  1.0000
  C   C25       1.0  0.00022237844400050495  0.1733244059617221  0.6016009025254692  1.0000
  C   C26       1.0  0.9997779696205317  0.8266746040729204  0.3983980429467311  1.0000
  C   C27       1.0  0.04764109223911115  0.20992430024314504  0.7433764571251235  1.0000
  C   C28       1.0  0.9523580046638642  0.7900747062370355  0.25662316945925323  1.0000
  C   C29       1.0  0.8725978284215898  0.21677104672495762  0.7615518051283134  1.0000
  C   C30       1.0  0.12740126848138553  0.783227959755223  0.23844782145605598  1.0000
  S   S1        1.0  0.34173496281678684  0.15533403287540887  0.3425713822803545  1.0000
  S   S2        1.0  0.6582659375758341  0.8446659600620734  0.6574277675406963  1.0000
  S   S3        1.0  0.6688176702098901  0.4607315263255174  0.36895526370984316  1.0000
  S   S4        1.0  0.33118323096628194  0.5392684656464509  0.6310447682224594  1.0000
  O   O1        1.0  0.29040373803450586  0.38280281447782016  0.24217209669101447  1.0000
  O   O2        1.0  0.7095953588684695  0.6171961920023606  0.7578275298933621  1.0000
  O   O3        1.0  0.4546793819966268  0.1781161720232447  0.7488563418306456  1.0000
  O   O4        1.0  0.5453220699405252  0.8218848047825917  0.2511421302279971  1.0000
  O   O5        1.0  0.7972214233250839  0.26124226199107164  0.656048923572506  1.0000
  O   O6        1.0  0.20277531697660592  0.7387547760944884  0.3439500933150868  1.0000
