data_image0
_chemical_formula_structural       Zn2H16C18N10O8
_chemical_formula_sum              "Zn2 H16 C18 N10 O8"
_cell_length_a       9.78688431804556
_cell_length_b       10.89215923285117
_cell_length_c       11.948684253745041
_cell_angle_alpha    84.89733723602986
_cell_angle_beta     91.16677656659562
_cell_angle_gamma    93.93895837571768

_space_group_name_H-M_alt    "P 1"
_space_group_IT_number       1

loop_
  _space_group_symop_operation_xyz
  'x, y, z'

loop_
  _atom_site_type_symbol
  _atom_site_label
  _atom_site_symmetry_multiplicity
  _atom_site_fract_x
  _atom_site_fract_y
  _atom_site_fract_z
  _atom_site_occupancy
  Zn  Zn1       1.0  0.6597302435297365  0.5130365171806943  0.49865344450432064  1.0000
  Zn  Zn2       1.0  0.35637590845573186  0.500571798164252  0.4907875701920405  1.0000
  H   H1        1.0  0.3048686904683393  0.80415532015936  0.36852733178540137  1.0000
  H   H2        1.0  0.07817689058867931  0.2893195634653409  0.6954469397996167  1.0000
  H   H3        1.0  0.8310244431425032  0.7316601304263131  0.3906197989662062  1.0000
  H   H4        1.0  0.8047437467778309  0.6303222047156256  0.2977681355056206  1.0000
  H   H5        1.0  0.23351938500928068  0.5856498016640475  0.2913164330780021  1.0000
  H   H6        1.0  0.0917741617897718  0.6746944194616447  0.26465735995861195  1.0000
  H   H7        1.0  0.7777810674639196  0.4037254818844788  0.6851484438627864  1.0000
  H   H8        1.0  0.8295484603705033  0.27245232103631883  0.6458582299469813  1.0000
  H   H9        1.0  0.2376311315286799  0.9449990291588012  0.34500020263006803  1.0000
  H   H10       1.0  0.7425073334459995  0.0555817813219122  0.7076986248803508  1.0000
  H   H11       1.0  0.6317130910435864  0.16219345621298234  0.7248134272111457  1.0000
  H   H12       1.0  0.31984180583152266  0.2320987500206826  0.3853708073074531  1.0000
  H   H13       1.0  0.3230264260537936  0.12498594440175745  0.2930467927916568  1.0000
  H   H14       1.0  0.6959729506335037  0.7809505902173228  0.6289744676094176  1.0000
  H   H15       1.0  0.6702125618416515  0.8718653915950582  0.732065846089718  1.0000
  H   H16       1.0  0.2303421045214478  0.304330967509344  0.6154598208707613  1.0000
  C   C1        1.0  0.5163192014419453  0.7438000440648979  0.4844977882308472  1.0000
  C   C2        1.0  0.5927221912770477  0.061143324191135724  0.589040365422804  1.0000
  C   C3        1.0  0.41238372277501156  0.07544241540467314  0.4441123221269479  1.0000
  C   C4        1.0  0.5982696868825386  0.9343678211263369  0.5776206996730552  1.0000
  C   C5        1.0  0.5030362531612481  0.1313442778877416  0.5200232042722278  1.0000
  C   C6        1.0  0.5112089300755259  0.877057268074921  0.4971105787944199  1.0000
  C   C7        1.0  0.0724450111393153  0.4116277491028412  0.5589509283449419  1.0000
  C   C8        1.0  0.9410367412215237  0.581525437853351  0.42082848715917026  1.0000
  C   C9        1.0  0.07945334616530178  0.5613953546900987  0.4059206339822695  1.0000
  C   C10       1.0  0.930590827508901  0.42936206038849895  0.5733717739852795  1.0000
  C   C11       1.0  0.5098888584762306  0.26879792969008076  0.5184930408328798  1.0000
  C   C12       1.0  0.5050816476769809  0.5006071771405304  0.27401714734693183  1.0000
  C   C13       1.0  0.4927656715393098  0.5115285615547904  0.7135668036439358  1.0000
  C   C14       1.0  0.5040760204106149  0.5053299945948808  0.15287832487273798  1.0000
  C   C15       1.0  0.4911070846995145  0.5127402027983052  0.8344554737494578  1.0000
  C   C16       1.0  0.4994338525264936  0.5087269700726722  0.050175856858508915  1.0000
  C   C17       1.0  0.4949965715688549  0.5113715828561426  0.9370612381136713  1.0000
  C   C18       1.0  0.41423106739631504  0.9468489019605074  0.43377053541850347  1.0000
  N   N1        1.0  0.8701927019852818  0.5132203345703843  0.5037776134098666  1.0000
  N   N2        1.0  0.8620629093683901  0.36160447659605677  0.662234132776341  1.0000
  N   N3        1.0  0.14564139814916638  0.48101509165977757  0.4786883482408087  1.0000
  N   N4        1.0  0.3236335144032978  0.8976341207521018  0.3563343267608802  1.0000
  N   N5        1.0  0.6815491217520347  0.11825892775465262  0.6675915494917464  1.0000
  N   N6        1.0  0.31767598190104  0.14013389575296736  0.3758011781971861  1.0000
  N   N7        1.0  0.6907907953469703  0.8696242842319678  0.6489295491876634  1.0000
  N   N8        1.0  0.131639939002504  0.32489803000678563  0.626943250095316  1.0000
  N   N9        1.0  0.8790707874530455  0.671037132681562  0.34668598468748973  1.0000
  N   N10       1.0  0.150905978319507  0.6248911607045289  0.3200900314302828  1.0000
  O   O1        1.0  0.629879363683628  0.6933568580759301  0.5082418121312033  1.0000
  O   O2        1.0  0.3980604233170552  0.31953566398939875  0.535500715662849  1.0000
  O   O3        1.0  0.6231600840610196  0.327636959648153  0.4950794590201257  1.0000
  O   O4        1.0  0.40933895287471955  0.6824995767550774  0.45056983243056  1.0000
  O   O5        1.0  0.6186265030123508  0.5267611421214939  0.3223694966666103  1.0000
  O   O6        1.0  0.3820588261799002  0.53229260746798  0.6602886211437851  1.0000
  O   O7        1.0  0.6068302385216385  0.4890572608853604  0.6724717138046404  1.0000
  O   O8        1.0  0.3901035603305231  0.47044390940871506  0.3212357846541566  1.0000
