data_image0
_chemical_formula_structural       Zn8H12C30S18O26
_chemical_formula_sum              "Zn8 H12 C30 S18 O26"
_cell_length_a       13.383419505552213
_cell_length_b       15.119406296475274
_cell_length_c       14.47490870286603
_cell_angle_alpha    69.49051973375008
_cell_angle_beta     66.15972492630499
_cell_angle_gamma    68.01578338028072

_space_group_name_H-M_alt    "P 1"
_space_group_IT_number       1

loop_
  _space_group_symop_operation_xyz
  'x, y, z'

loop_
  _atom_site_type_symbol
  _atom_site_label
  _atom_site_symmetry_multiplicity
  _atom_site_fract_x
  _atom_site_fract_y
  _atom_site_fract_z
  _atom_site_occupancy
  Zn  Zn1       1.0  0.05782234363794459  0.0156282146045683  0.028385681240529016  1.0000
  Zn  Zn2       1.0  0.8157287448124889  0.0248247611428383  0.03393620065013186  1.0000
  Zn  Zn3       1.0  0.013718437400086715  0.8218263170294692  0.022760252039922962  1.0000
  Zn  Zn4       1.0  0.026144375554473208  0.0068205350180151  0.8247296898667502  1.0000
  Zn  Zn5       1.0  0.4016985180721449  0.40275854699655866  0.40932537282694886  1.0000
  Zn  Zn6       1.0  0.6346768804295662  0.40981731309871344  0.4079619776595111  1.0000
  Zn  Zn7       1.0  0.4369274691790607  0.39119194482852043  0.6210179476009048  1.0000
  Zn  Zn8       1.0  0.4168245305112066  0.5963125326148883  0.4474474279114206  1.0000
  H   H1        1.0  0.8240440288266766  0.2544790926703442  0.19951075920199218  1.0000
  H   H2        1.0  0.6438391768397694  0.24351302907907516  0.16180219483294422  1.0000
  H   H3        1.0  0.2399161628522322  0.7824452398569265  0.2424128795386905  1.0000
  H   H4        1.0  0.18518231067392327  0.633361291822858  0.22867209573513494  1.0000
  H   H5        1.0  0.31259155401701844  0.16310637837964487  0.7909371844680069  1.0000
  H   H6        1.0  0.24696852104047198  0.15994971700986582  0.6335669341564343  1.0000
  H   H7        1.0  0.6365331814397095  0.8011538562681791  0.28166770020058635  1.0000
  H   H8        1.0  0.8066168478115968  0.6433302844384697  0.2225517565404403  1.0000
  H   H9        1.0  0.6431618716924206  0.23832847581293493  0.8050644112756943  1.0000
  H   H10       1.0  0.8050747149219788  0.17117066807951895  0.6366314614760145  1.0000
  H   H11       1.0  0.22355044818923628  0.7742506635821016  0.6546206207611295  1.0000
  H   H12       1.0  0.16174559704106165  0.6176961352080498  0.8013286987852343  1.0000
  C   C1        1.0  0.7624818981843404  0.43614676573831446  0.98220298160706  1.0000
  C   C2        1.0  0.8050976142076891  0.26800777553267346  0.127669596696265  1.0000
  C   C3        1.0  0.8580121317154976  0.17111213718327892  0.09427980272213429  1.0000
  C   C4        1.0  0.6761149333965689  0.3044922625580568  0.15142474880290283  1.0000
  C   C5        1.0  0.6150465042230167  0.3428287649026915  0.2496539738422855  1.0000
  C   C6        1.0  0.9906750329907934  0.735912171671018  0.44619502099943287  1.0000
  C   C7        1.0  0.15636460191418408  0.7703165887536728  0.26407460046360154  1.0000
  C   C8        1.0  0.111310352021242  0.8260229836561379  0.17187414533132994  1.0000
  C   C9        1.0  0.16796586053009574  0.6604849563945195  0.29629454289494833  1.0000
  C   C10       1.0  0.2604215294290455  0.5991329752787706  0.3470565124628493  1.0000
  C   C11       1.0  0.4985411723643409  0.9764760854931038  0.6585415749786068  1.0000
  C   C12       1.0  0.31821241796822625  0.10490871272546799  0.7586175540943857  1.0000
  C   C13       1.0  0.21319134464522443  0.0680227491200043  0.8230011371014643  1.0000
  C   C14       1.0  0.3293924940350692  0.14614465191865383  0.6431960812483484  1.0000
  C   C15       1.0  0.3615167356187996  0.2428679060125489  0.5963875745677145  1.0000
  C   C16       1.0  0.6201306515922695  0.7442391271904258  0.06841871143004852  1.0000
  C   C17       1.0  0.6778216303985545  0.7817283886405519  0.20583810240767525  1.0000
  C   C18       1.0  0.7714351791032428  0.833890733115922  0.1420928234500495  1.0000
  C   C19       1.0  0.7191847293808493  0.670577063543618  0.21986879229156403  1.0000
  C   C20       1.0  0.6465419761365893  0.6120932316215504  0.3143327836978572  1.0000
  C   C21       1.0  0.854708517511611  0.3697546025672692  0.6750967531257505  1.0000
  C   C22       1.0  0.7336515132622947  0.2352519784941194  0.7700748394923668  1.0000
  C   C23       1.0  0.8013986911733041  0.1425473171020784  0.8272972796771683  1.0000
  C   C24       1.0  0.7703534354819938  0.24443300358142034  0.6532795205318751  1.0000
  C   C25       1.0  0.6755592270729878  0.3010545894523772  0.6046146336819409  1.0000
  C   C26       1.0  0.39714142207326825  0.6594405881319788  0.8228530774636204  1.0000
  C   C27       1.0  0.23175082153029078  0.743201569238991  0.7328327586436674  1.0000
  C   C28       1.0  0.13480223736077326  0.80347578383698  0.80641165365649  1.0000
  C   C29       1.0  0.2453783997356638  0.6328210444839684  0.7641219774246226  1.0000
  C   C30       1.0  0.3098330972138611  0.5820243654334831  0.6732506263327594  1.0000
  S   S1        1.0  0.7782225816201986  0.5292627725931993  0.8824272375160622  1.0000
  S   S2        1.0  0.8716894788520974  0.3637281024690182  0.035160606240062044  1.0000
  S   S3        1.0  0.6374567405701868  0.3994046374159624  0.04216677676495094  1.0000
  S   S4        1.0  0.8872477377984609  0.7460308827589228  0.5551629529494735  1.0000
  S   S5        1.0  0.066912507188178  0.8231555376452561  0.37672228464474966  1.0000
  S   S6        1.0  0.033147935806446996  0.6380991385212909  0.38871256279524863  1.0000
  S   S7        1.0  0.6061784644705737  0.8815042172249505  0.6321249634372211  1.0000
  S   S8        1.0  0.4445249049677996  0.007053098484640002  0.7780792998787762  1.0000
  S   S9        1.0  0.42851100013376  0.05476971910753291  0.5687628731593865  1.0000
  S   S10       1.0  0.5734003515494238  0.7581576704172974  0.97454976271289  1.0000
  S   S11       1.0  0.5700836326247157  0.8323815258784251  0.1399276236482762  1.0000
  S   S12       1.0  0.7242395261168042  0.6404438910325111  0.1051791145127367  1.0000
  S   S13       1.0  0.9185566731535741  0.4528446326132425  0.6498305102337838  1.0000
  S   S14       1.0  0.7490135847854376  0.341254228258407  0.7923762316413702  1.0000
  S   S15       1.0  0.8858446051360289  0.303679123095975  0.5853473678218108  1.0000
  S   S16       1.0  0.496542374841809  0.6412081262826421  0.8707773773857073  1.0000
  S   S17       1.0  0.36187254805076213  0.7632406279574087  0.7263317387002817  1.0000
  S   S18       1.0  0.3196099188114374  0.5752215349690745  0.8612917247525547  1.0000
  O   O1        1.0  0.9785934618173185  0.9654512433277064  0.9768308324133558  1.0000
  O   O2        1.0  0.7904872826630225  0.1248040111200694  0.10500066081724665  1.0000
  O   O3        1.0  0.9658749804918543  0.14293616390783373  0.06286007047260962  1.0000
  O   O4        1.0  0.676580674375131  0.3501191503050479  0.29299166499270524  1.0000
  O   O5        1.0  0.5074859376531079  0.36287811134526754  0.2802474294501779  1.0000
  O   O6        1.0  0.0944986389624205  0.7766849355420078  0.12679662656435656  1.0000
  O   O7        1.0  0.09722798018817252  0.9181865412906164  0.14806851708760146  1.0000
  O   O8        1.0  0.30860753436472527  0.6446295265786335  0.3680996354312711  1.0000
  O   O9        1.0  0.2793860063117393  0.5069128617822827  0.3639785662601795  1.0000
  O   O10       1.0  0.15114302450039926  0.06861844678912378  0.7754472209663847  1.0000
  O   O11       1.0  0.1969494580967677  0.04137725618122091  0.9203530848134565  1.0000
  O   O12       1.0  0.3848314005001328  0.27486615630910183  0.6536362094745486  1.0000
  O   O13       1.0  0.3593403857901478  0.28358501448387596  0.503849986653542  1.0000
  O   O14       1.0  0.8708553289284922  0.7822983552404851  0.10387738352581967  1.0000
  O   O15       1.0  0.7387845848486091  0.9263756335696273  0.13284058590821252  1.0000
  O   O16       1.0  0.5429849692487494  0.6553847603142131  0.3543605219826064  1.0000
  O   O17       1.0  0.6979682134091477  0.522449330079283  0.3429175266110677  1.0000
  O   O18       1.0  0.9026782737650549  0.10503900399879028  0.7752868779072559  1.0000
  O   O19       1.0  0.7502567417921  0.11172296561683484  0.9227710099882748  1.0000
  O   O20       1.0  0.5767859777026061  0.3352755699480809  0.6626790561651819  1.0000
  O   O21       1.0  0.7059502813021011  0.30820112006767897  0.5074517167810061  1.0000
  O   O22       1.0  0.10299732234206968  0.7620400838266974  0.9027630634709286  1.0000
  O   O23       1.0  0.09695345727888591  0.8927814183116639  0.7632632131952382  1.0000
  O   O24       1.0  0.33880919608652244  0.6353293197624835  0.5819428600984511  1.0000
  O   O25       1.0  0.3277299683502762  0.48920901925664845  0.6992143534258235  1.0000
  O   O26       1.0  0.4698931521623209  0.4526375351646194  0.4719937997870433  1.0000
