data_image0
_chemical_formula_structural       Zn2H38C45N6O8
_chemical_formula_sum              "Zn2 H38 C45 N6 O8"
_cell_length_a       9.86086868099067
_cell_length_b       10.924992824328893
_cell_length_c       18.938381868467363
_cell_angle_alpha    88.06160133321318
_cell_angle_beta     89.53451588343533
_cell_angle_gamma    89.20382179703888

_space_group_name_H-M_alt    "P 1"
_space_group_IT_number       1

loop_
  _space_group_symop_operation_xyz
  'x, y, z'

loop_
  _atom_site_type_symbol
  _atom_site_label
  _atom_site_symmetry_multiplicity
  _atom_site_fract_x
  _atom_site_fract_y
  _atom_site_fract_z
  _atom_site_occupancy
  Zn  Zn1       1.0  0.655484937414265  0.511175670250253  0.49739772124926407  1.0000
  Zn  Zn2       1.0  0.36275406116654824  0.50649726724685  0.5005710427335612  1.0000
  H   H1        1.0  0.7257496586513669  0.43817689764719575  0.72557352896343  1.0000
  H   H2        1.0  0.27971864853312683  0.4267209326079139  0.8504152997507075  1.0000
  H   H3        1.0  0.2919013291284998  0.47180823885400947  0.7196748783021005  1.0000
  H   H4        1.0  0.6729134252432801  0.4853121248232809  0.1335540962948514  1.0000
  H   H5        1.0  0.6913618607048521  0.5507347377818447  0.2579594230848555  1.0000
  H   H6        1.0  0.29233828292657904  0.4141922712610791  0.301084178036504  1.0000
  H   H7        1.0  0.2991922296242038  0.1283299889755796  0.4882920110639546  1.0000
  H   H8        1.0  0.6344103458919719  0.7586742964467842  0.6349014918932807  1.0000
  H   H9        1.0  0.7793833658813725  0.6914773779891518  0.5968742816933384  1.0000
  H   H10       1.0  0.7975820008473493  0.7982963179518874  0.6643839909480602  1.0000
  H   H11       1.0  0.328876974192113  0.0756510695842749  0.7863530503049956  1.0000
  H   H12       1.0  0.7777001145433787  0.20263545266018204  0.46681928077305185  1.0000
  H   H13       1.0  0.3280769428557804  0.962791393937543  0.7209148360345239  1.0000
  H   H14       1.0  0.47197642722863964  0.05635727045982719  0.730211169374108  1.0000
  H   H15       1.0  0.3377875734355058  0.1302560775781032  0.6255774808106478  1.0000
  H   H16       1.0  0.3382234274228679  0.24180260809965395  0.6905463183760643  1.0000
  H   H17       1.0  0.11057735182581042  0.16469901852796195  0.7352197479067185  1.0000
  H   H18       1.0  0.10868467959738136  0.06041169418320181  0.6674433365940329  1.0000
  H   H19       1.0  0.739694210875662  0.19370203768959013  0.6778486297324162  1.0000
  H   H20       1.0  0.8665984656017331  0.07730826711654257  0.6722184641538076  1.0000
  H   H21       1.0  0.8754690817847435  0.18550924816639025  0.7393180810010731  1.0000
  H   H22       1.0  0.8162764160562691  0.7434889511451598  0.44685929718619366  1.0000
  H   H23       1.0  0.9842884022792049  0.08350183462901128  0.4997748282759174  1.0000
  H   H24       1.0  0.9505521703885408  0.730021582826474  0.3835779827808493  1.0000
  H   H25       1.0  0.8023293213631748  0.6371388488406919  0.3795889421598772  1.0000
  H   H26       1.0  0.019612606030122496  0.2652925619537214  0.08927182782353778  1.0000
  H   H27       1.0  0.9620884882766277  0.2630593623415932  0.17838344903098147  1.0000
  H   H28       1.0  0.9071831949553018  0.38133070946708586  0.11835140027941547  1.0000
  H   H29       1.0  0.08950724133509878  0.46167790712803475  0.19632794704700265  1.0000
  H   H30       1.0  0.14837706695511343  0.457605549552035  0.10798757530032078  1.0000
  H   H31       1.0  0.2595681333025084  0.2526700544998519  0.13589979779396089  1.0000
  H   H32       1.0  0.2073907870980349  0.2647184556860721  0.2251440768939758  1.0000
  H   H33       1.0  0.9617917330916443  0.893935508234534  0.5762401922551774  1.0000
  H   H34       1.0  0.2916932309175309  0.8975720806714307  0.5009088130857577  1.0000
  H   H35       1.0  0.14637072027920792  0.6387506078959999  0.430108516447774  1.0000
  H   H36       1.0  0.2571543624316419  0.319581897272151  0.5857082066382373  1.0000
  H   H37       1.0  0.7544772951946116  0.34540330298838734  0.5918590368165936  1.0000
  H   H38       1.0  0.7143122033096249  0.3873171139314805  0.8558388176639508  1.0000
  C   C1        1.0  0.5095258511284657  0.27115981528172023  0.4877851256591369  1.0000
  C   C2        1.0  0.47263177140817464  0.41127039585599323  0.14715785954665245  1.0000
  C   C3        1.0  0.7694830885252911  0.11259391518832727  0.4922558577772305  1.0000
  C   C4        1.0  0.5143013936533976  0.47857527432657304  0.6367419483457367  1.0000
  C   C5        1.0  0.8841291254651796  0.04668021939804128  0.5117632884944427  1.0000
  C   C6        1.0  0.8716174640731325  0.9371937164274509  0.5525649068129468  1.0000
  C   C7        1.0  0.7465741290783825  0.8837660290183603  0.5650137960036543  1.0000
  C   C8        1.0  0.6288976057950038  0.9399039843042867  0.5328088922613218  1.0000
  C   C9        1.0  0.6383817919633474  0.0645740427811958  0.5061590732891401  1.0000
  C   C10       1.0  0.5145825214078102  0.13355195934928327  0.49430716166722277  1.0000
  C   C11       1.0  0.3913994873252378  0.07398412803868837  0.496790119170633  1.0000
  C   C12       1.0  0.5092667632330716  0.4565441477486728  0.7151990128388588  1.0000
  C   C13       1.0  0.3861426019598611  0.9463562664814515  0.507534144846616  1.0000
  C   C14       1.0  0.5018083228010609  0.8789526571118812  0.524863110116101  1.0000
  C   C15       1.0  0.14723584169125564  0.32405793491943763  0.588034855286267  1.0000
  C   C16       1.0  0.49446487663198724  0.742455580720431  0.5180831041089248  1.0000
  C   C17       1.0  0.0755757563330519  0.24633712909059818  0.6331905141911134  1.0000
  C   C18       1.0  0.930260543831615  0.2564084319858536  0.635203462117971  1.0000
  C   C19       1.0  0.8642637408582914  0.3410832620511143  0.5913840635690304  1.0000
  C   C20       1.0  0.9355163672753125  0.42169764454227004  0.5452414194023303  1.0000
  C   C21       1.0  0.08073066715837031  0.4137995837849002  0.5448261056266404  1.0000
  C   C22       1.0  0.08591220892135  0.575996068325395  0.463002788694645  1.0000
  C   C23       1.0  0.47504793198991274  0.37696184007884875  0.07304491076416039  1.0000
  C   C24       1.0  0.942338849666726  0.5836098569110675  0.46130177488668506  1.0000
  C   C25       1.0  0.5017439333690917  0.5194759306885004  0.3626642232424543  1.0000
  C   C26       1.0  0.6287304149392553  0.43454850528912903  0.753494282263169  1.0000
  C   C27       1.0  0.6225248826423951  0.4070062771225408  0.8256490365696932  1.0000
  C   C28       1.0  0.49629015186190634  0.40330005169247585  0.860722378376117  1.0000
  C   C29       1.0  0.3767715968553063  0.4285019070458843  0.8225622848770795  1.0000
  C   C30       1.0  0.3835002630075763  0.45387448116594686  0.7503087619574484  1.0000
  C   C31       1.0  0.7384684649588209  0.7771456047953716  0.6173702999332205  1.0000
  C   C32       1.0  0.1460810556173442  0.15189818498991767  0.6804269203234338  1.0000
  C   C33       1.0  0.3009870487355287  0.1502195668172845  0.6790105011542946  1.0000
  C   C34       1.0  0.4884809822134173  0.37551341348305567  0.9368410204690104  1.0000
  C   C35       1.0  0.3605905959267163  0.05608893595166359  0.732003894991635  1.0000
  C   C36       1.0  0.848422535535974  0.1742684196396169  0.6836525490488652  1.0000
  C   C37       1.0  0.8749811139957161  0.6789834843290945  0.4149252416887279  1.0000
  C   C38       1.0  0.2375097237822104  0.31821517491020757  0.17730230478591838  1.0000
  C   C39       1.0  0.11664793700634143  0.3995813774599525  0.15359542665466816  1.0000
  C   C40       1.0  0.9946619647003276  0.32351718050295364  0.13395397226192066  1.0000
  C   C41       1.0  0.5894380879629395  0.47052146952236024  0.17075501772733756  1.0000
  C   C42       1.0  0.5996815767744721  0.5077677118188288  0.23963782231271574  1.0000
  C   C43       1.0  0.49065337255127167  0.48887482424355955  0.28643391807644036  1.0000
  C   C44       1.0  0.3744981462756343  0.43100666426669676  0.26319622018024086  1.0000
  C   C45       1.0  0.36285446095401147  0.38866290214713933  0.19455575532866476  1.0000
  N   N1        1.0  0.36522677565628914  0.3595601099666083  0.9675977879960268  1.0000
  N   N2        1.0  0.35870632156727567  0.36307407702742717  0.037032285955575596  1.0000
  N   N3        1.0  0.5977344119422271  0.3517506341375736  0.04280993431046199  1.0000
  N   N4        1.0  0.6041644294224682  0.3541420742796787  0.9734141070372213  1.0000
  N   N5        1.0  0.1528467844375143  0.49429449679762144  0.5029984850893852  1.0000
  N   N6        1.0  0.8690864966084533  0.50636112297402  0.5020449687621705  1.0000
  O   O1        1.0  0.618574013152447  0.3286025856075127  0.49941955194567095  1.0000
  O   O2        1.0  0.3952541990010162  0.32256041545026176  0.47542963655215675  1.0000
  O   O3        1.0  0.6270112593580351  0.5075832857159098  0.6085316886344925  1.0000
  O   O4        1.0  0.4035680468498129  0.46384418939118877  0.6040189867425595  1.0000
  O   O5        1.0  0.6042136910773906  0.6904067848836846  0.49825460999401366  1.0000
  O   O6        1.0  0.3806132154707171  0.690220015932965  0.5266617707134599  1.0000
  O   O7        1.0  0.6201123161641036  0.5118936846959057  0.3890873138375283  1.0000
  O   O8        1.0  0.3923692206617205  0.5459823373934399  0.39556794160996117  1.0000
