data_image0
_chemical_formula_structural       Cd4H36C40N24Cl4O4
_chemical_formula_sum              "Cd4 H36 C40 N24 Cl4 O4"
_cell_length_a       6.866929312178293
_cell_length_b       13.13641617
_cell_length_c       13.27
_cell_angle_alpha    90.0
_cell_angle_beta     100.64356716826657
_cell_angle_gamma    90.0

_space_group_name_H-M_alt    "P 1"
_space_group_IT_number       1

loop_
  _space_group_symop_operation_xyz
  'x, y, z'

loop_
  _atom_site_type_symbol
  _atom_site_label
  _atom_site_symmetry_multiplicity
  _atom_site_fract_x
  _atom_site_fract_y
  _atom_site_fract_z
  _atom_site_occupancy
  Cd  Cd1       1.0  0.19415198154615615  0.68388972180378  0.22620840106787912  1.0000
  Cd  Cd2       1.0  0.3058476406821526  0.1838895760258197  0.7737912990728334  1.0000
  Cd  Cd3       1.0  0.8058487446586255  0.3161113309947794  0.7737911408352859  1.0000
  Cd  Cd4       1.0  0.694153085522629  0.8161107155301082  0.2262089964098308  1.0000
  H   H1        1.0  0.841930794453944  0.7290009600845337  0.0662503219070274  1.0000
  H   H2        1.0  0.6580695539791392  0.2290015755491979  0.9337496737163493  1.0000
  H   H3        1.0  0.1580684500026663  0.2709985702287625  0.9337490783743976  1.0000
  H   H4        1.0  0.3419311722256425  0.7709979547640983  0.066250621766315  1.0000
  H   H5        1.0  0.8009975011355766  0.615772208745426  0.10721066643991861  1.0000
  H   H6        1.0  0.699002847297507  0.1157720629674586  0.8927900827629571  1.0000
  H   H7        1.0  0.19900322506920534  0.38422808281050175  0.8927896290427457  1.0000
  H   H8        1.0  0.3009978789072747  0.8842282285884693  0.107210212719707  1.0000
  H   H9        1.0  0.1265516663327375  0.4336213108875668  0.17358606809204963  1.0000
  H   H10       1.0  0.37344499239921464  0.9336206954228956  0.8264133488051897  1.0000
  H   H11       1.0  0.8734446146275162  0.5663797419109926  0.826413048945895  1.0000
  H   H12       1.0  0.6265512885610394  0.0663788348904006  0.1735872753917675  1.0000
  H   H13       1.0  0.1510108834478956  0.5758199117712621  0.45946187389739634  1.0000
  H   H14       1.0  0.3489946657731054  0.0758212884785578  0.5405391463097757  1.0000
  H   H15       1.0  0.8489957697495782  0.4241796185420341  0.5405382344927219  1.0000
  H   H16       1.0  0.6510105056762043  0.92417900307737  0.4594623276176081  1.0000
  H   H17       1.0  0.15677932909091652  0.367170157947271  0.490296553219089  1.0000
  H   H18       1.0  0.3432277018782557  0.8671695424826069  0.5097046086098231  1.0000
  H   H19       1.0  0.8432273241065574  0.6328308948512884  0.5097043087505355  1.0000
  H   H20       1.0  0.6567789513192182  0.1328292265880577  0.4902962533598014  1.0000
  H   H21       1.0  0.082185162494234  0.2119337545317705  0.4506176721928057  1.0000
  H   H22       1.0  0.4178114962377181  0.7119354227950012  0.5493817447044265  1.0000
  H   H23       1.0  0.9178111184660196  0.7880657757815257  0.5493814448451388  1.0000
  H   H24       1.0  0.5821862664707141  0.2880663912461898  0.4506182675347575  1.0000
  H   H25       1.0  0.0814991130894782  0.0287468054538635  0.4055686800768541  1.0000
  H   H26       1.0  0.4184990273906451  0.5287477124744626  0.5944308784421182  1.0000
  H   H27       1.0  0.9184971678707754  0.9712519636168011  0.5944311905405968  1.0000
  H   H28       1.0  0.5815002170659582  0.4712533403240968  0.4055677682598002  1.0000
  H   H29       1.0  0.1309302321881489  0.9733994290773111  0.23519596952353083  1.0000
  H   H30       1.0  0.3690679082919814  0.4734000445419824  0.764804342574948  1.0000
  H   H31       1.0  0.8690675305202831  0.026600862478609603  0.7648040427156603  1.0000
  H   H32       1.0  0.6309298544164508  0.5265994857713139  0.2351941625052376  1.0000
  H   H33       1.0  0.1885346742169247  0.2859394793366974  0.14750949346345982  1.0000
  H   H34       1.0  0.3114664297595553  0.7859396251146649  0.852491101878492  1.0000
  H   H35       1.0  0.8114645702396786  0.7140600509765989  0.852489906817965  1.0000
  H   H36       1.0  0.6885298512007056  0.2140591439560069  0.14750876873895183  1.0000
  C   C1        1.0  0.1291150906744818  0.44370396952793817  0.25498480391851075  1.0000
  C   C2        1.0  0.37088453155381984  0.9437041153059056  0.7450171569607065  1.0000
  C   C3        1.0  0.8708841537821215  0.5562970832706213  0.7450161035219197  1.0000
  C   C4        1.0  0.6291132311546123  0.0562961762500223  0.2549851160169823  1.0000
  C   C5        1.0  0.14416965212659963  0.5144903992486718  0.40454802140148166  1.0000
  C   C6        1.0  0.3558344153462301  0.0144887309854482  0.595454364342956  1.0000
  C   C7        1.0  0.8558370010708816  0.48551141479251925  0.5954535941476422  1.0000
  C   C8        1.0  0.6441692743549012  0.9855077543573287  0.40454847512169323  1.0000
  C   C9        1.0  0.1436436315246823  0.41135115773360553  0.42049096346872256  1.0000
  C   C10       1.0  0.3563530272072768  0.9113528259968363  0.5795107141670215  1.0000
  C   C11       1.0  0.8563526494355784  0.5886476113370591  0.5795089071487283  1.0000
  C   C12       1.0  0.6436432537529839  0.0886482268017232  0.4204921707684406  1.0000
  C   C13       1.0  0.1339811516792793  0.2612211698831999  0.3015131903865722  1.0000
  C   C14       1.0  0.366016988800844  0.7612220769037918  0.6984878752914058  1.0000
  C   C15       1.0  0.866018092777324  0.7387783604300963  0.6984869634743518  1.0000
  C   C16       1.0  0.6339822556557595  0.2387782146521289  0.3015130321490247  1.0000
  C   C17       1.0  0.1070726048318065  0.18890311998999473  0.3750935626715943  1.0000
  C   C18       1.0  0.39292553564832394  0.6889047882532182  0.624905995847378  1.0000
  C   C19       1.0  0.8929251578766257  0.8110941265954139  0.6249041888290847  1.0000
  C   C20       1.0  0.6070722270601081  0.3110970257879728  0.37509326281230676  1.0000
  C   C21       1.0  0.1069214665180169  0.0857364737402335  0.3498168715873292  1.0000
  C   C22       1.0  0.3930766739621134  0.5857373807608255  0.6501834405111495  1.0000
  C   C23       1.0  0.8930733326940654  0.9142638178156943  0.6501821038288754  1.0000
  C   C24       1.0  0.6069210887463188  0.4142629107950953  0.34981581814853513  1.0000
  C   C25       1.0  0.13343142310657194  0.054194385347337  0.2533069185029788  1.0000
  C   C26       1.0  0.3665681991217298  0.5541945311253045  0.7466927816377337  1.0000
  C   C27       1.0  0.8665678213500314  0.9458051449659592  0.7466917281989397  1.0000
  C   C28       1.0  0.6334310453348735  0.4458057604306234  0.2533058650641919  1.0000
  C   C29       1.0  0.1618824698036221  0.1268922953131408  0.17997269336277813  1.0000
  C   C30       1.0  0.3381171524246795  0.6268924410911083  0.8200277603574407  1.0000
  C   C31       1.0  0.8381152929048099  0.8731095187280431  0.8200265652969065  1.0000
  C   C32       1.0  0.6618791285355743  0.3731070892221879  0.17997060310100474  1.0000
  C   C33       1.0  0.1616409448511931  0.2305567942432205  0.2043701063818446  1.0000
  C   C34       1.0  0.33835719562893735  0.7305569400211809  0.7956286985576284  1.0000
  C   C35       1.0  0.8383582996054173  0.7694427360700759  0.7956277867405744  1.0000
  C   C36       1.0  0.6616450123240156  0.269443351534747  0.20437023138777016  1.0000
  C   C37       1.0  0.19742219976709663  0.095408822602792  0.07947649905450051  1.0000
  C   C38       1.0  0.3025759407130267  0.5954082071381279  0.9205230594644719  1.0000
  C   C39       1.0  0.8025770446895069  0.9045914689531358  0.9205229012269244  1.0000
  C   C40       1.0  0.6974218219954054  0.40459056193253673  0.07947619919521288  1.0000
  N   N1        1.0  0.13514432399620094  0.5332755836404033  0.3014359685757811  1.0000
  N   N2        1.0  0.3648582617284504  0.0332761991050745  0.6985655219674173  1.0000
  N   N3        1.0  0.8648593657049235  0.46672470791552456  0.6985653637298627  1.0000
  N   N4        1.0  0.6351439462245025  0.9667240924508533  0.30143566871649347  1.0000
  N   N5        1.0  0.1334492040846627  0.36684130113091845  0.3245964853338564  1.0000
  N   N6        1.0  0.366550418143639  0.8668406856662473  0.6754032148068561  1.0000
  N   N7        1.0  0.8665500403719406  0.633159751667641  0.675401407788563  1.0000
  N   N8        1.0  0.6334473445647931  0.1331588446470491  0.32459755101183424  1.0000
  N   N9        1.0  0.19749480542764536  0.1583148686130613  0.9996025040811107  1.0000
  N   N10       1.0  0.3025062985488347  0.6583150143910217  0.0003973376813419907  1.0000
  N   N11       1.0  0.8025059207771366  0.8416854229428665  0.00039703782204729475  1.0000
  N   N12       1.0  0.6974929459077758  0.3416852771649062  0.9996013090205835  1.0000
  N   N13       1.0  0.24003579551526147  0.0987407815962911  0.9242268666101979  1.0000
  N   N14       1.0  0.2599667902093898  0.598740166131627  0.07577311677398771  1.0000
  N   N15       1.0  0.7599664124376915  0.9012587487170051  0.0757728169147001  1.0000
  N   N16       1.0  0.740033935995392  0.4012601254243009  0.9242264251291703  1.0000
  N   N17       1.0  0.2658508122100187  0.0035648992384196  0.9561471018226442  1.0000
  N   N18       1.0  0.2341517735146397  0.5035658062590116  0.04385363514104771  1.0000
  N   N19       1.0  0.7341513957429413  0.996433869832245  0.04385408886125929  1.0000
  N   N20       1.0  0.7658504344383203  0.49643448529691636  0.9561468019633567  1.0000
  N   N21       1.0  0.23989799293504183  0.9993600865037139  0.0533945548691364  1.0000
  N   N22       1.0  0.2601031110414382  0.4993599407257534  0.9466052868933164  1.0000
  N   N23       1.0  0.7601027332697399  0.0006409662948457  0.946605740613528  1.0000
  N   N24       1.0  0.739896133415165  0.5006395895875428  0.0533948669676079  1.0000
  Cl  Cl1       1.0  0.0511158667729887  0.8061544231663903  0.3452638220297218  1.0000
  Cl  Cl2       1.0  0.44888523720349144  0.30615503863105437  0.6547367733122301  1.0000
  Cl  Cl3       1.0  0.9488863411799715  0.1938458683895377  0.6547366150746825  1.0000
  Cl  Cl4       1.0  0.5511154890012904  0.6938452529248664  0.34526352217043416  1.0000
  O   O1        1.0  0.8513976835403128  0.6866576000081182  0.1303194235270553  1.0000
  O   O2        1.0  0.6486026648927707  0.1866582154727823  0.8696805720963214  1.0000
  O   O3        1.0  0.14860304266446187  0.31334193030517804  0.8696816255351083  1.0000
  O   O4        1.0  0.35139806131201123  0.8133420760831456  0.1303189698068437  1.0000
