data_image0
_chemical_formula_structural       Cd4H40C44I8N16
_chemical_formula_sum              "Cd4 H40 C44 I8 N16"
_cell_length_a       9.081768790436715
_cell_length_b       13.325647301286352
_cell_length_c       14.730036128029075
_cell_angle_alpha    89.99852338417436
_cell_angle_beta     88.92583871137188
_cell_angle_gamma    90.00062971067132

_space_group_name_H-M_alt    "P 1"
_space_group_IT_number       1

loop_
  _space_group_symop_operation_xyz
  'x, y, z'

loop_
  _atom_site_type_symbol
  _atom_site_label
  _atom_site_symmetry_multiplicity
  _atom_site_fract_x
  _atom_site_fract_y
  _atom_site_fract_z
  _atom_site_occupancy
  Cd  Cd1       1.0  0.34814956187502577  0.25258832582552765  0.4424128481308929  1.0000
  Cd  Cd2       1.0  0.15185286276400228  0.7525883379461289  0.057589822536243715  1.0000
  Cd  Cd3       1.0  0.6518700227300583  0.7474118312156931  0.5575888803034914  1.0000
  Cd  Cd4       1.0  0.8481254953167506  0.24741407012336938  0.9424195562548053  1.0000
  H   H1        1.0  0.3346989875419978  0.07311714421289389  0.8535839914721709  1.0000
  H   H2        1.0  0.16531569188725104  0.5731334605381447  0.6464078417511491  1.0000
  H   H3        1.0  0.6652960063491591  0.9268717564153094  0.14640588789661996  1.0000
  H   H4        1.0  0.8347083794124257  0.4268651956740256  0.3535925825871332  1.0000
  H   H5        1.0  0.4874344713294007  0.10087611816283731  0.6014083081560885  1.0000
  H   H6        1.0  0.012580871671047973  0.6008757302251411  0.8985971502612957  1.0000
  H   H7        1.0  0.5125653045687385  0.8991262901031264  0.3985931789159452  1.0000
  H   H8        1.0  0.9874294852289438  0.3991259275493205  0.10141125961411034  1.0000
  H   H9        1.0  0.400399311298642  0.41128728600082815  0.6315023997253635  1.0000
  H   H10       1.0  0.09962165147727829  0.9112839355195133  0.8684870239226331  1.0000
  H   H11       1.0  0.5996458388142754  0.5887196250866964  0.3684955637732302  1.0000
  H   H12       1.0  0.9003559452147769  0.0887214743558715  0.13151691045080585  1.0000
  H   H13       1.0  0.5267912734024448  0.3405767403939919  0.7892337879156559  1.0000
  H   H14       1.0  0.9732236703933808  0.8405770703057555  0.7107679472766293  1.0000
  H   H15       1.0  0.4732282688003195  0.6594211653395163  0.21076861941676844  1.0000
  H   H16       1.0  0.026778179273392783  0.15941933447776785  0.289235603295957  1.0000
  H   H17       1.0  0.7220710685534327  0.15634726675514804  0.7738117337410845  1.0000
  H   H18       1.0  0.7779464117012792  0.656347144559639  0.726193668452652  1.0000
  H   H19       1.0  0.2779296381404989  0.8436363806603566  0.22619248244397747  1.0000
  H   H20       1.0  0.22207435805839987  0.3436410055841178  0.27380671578493593  1.0000
  H   H21       1.0  0.5996589516250452  0.05866188592324309  0.7458613556662927  1.0000
  H   H22       1.0  0.9003527010901566  0.5586619034928403  0.7541435462043469  1.0000
  H   H23       1.0  0.40032545981551937  0.941333768402572  0.2541392649063426  1.0000
  H   H24       1.0  0.0996756449537699  0.441331499677588  0.24585896844090638  1.0000
  H   H25       1.0  0.18775786998217106  0.041040729928532506  0.027962476814643405  1.0000
  H   H26       1.0  0.3122366575819838  0.5410630525672318  0.472028068066706  1.0000
  H   H27       1.0  0.8122210827632086  0.9589361638268341  0.9720197339892  1.0000
  H   H28       1.0  0.687787244212565  0.45893935576808803  0.5279750717155949  1.0000
  H   H29       1.0  0.22972877697718982  0.0762570826253324  0.19178000773507625  1.0000
  H   H30       1.0  0.2702409720760457  0.5762747982346068  0.30821008977858366  1.0000
  H   H31       1.0  0.7702345994031672  0.9237145580053222  0.8082047309114204  1.0000
  H   H32       1.0  0.7297741682000022  0.42372460834784675  0.6917922639061446  1.0000
  H   H33       1.0  0.45136267259833557  0.16579958720300433  0.24161447669783345  1.0000
  H   H34       1.0  0.04859368121918099  0.6658035195664169  0.2583821923385657  1.0000
  H   H35       1.0  0.5485759423225431  0.8341960670519125  0.7583787920380092  1.0000
  H   H36       1.0  0.9514256914968297  0.3342003895879984  0.7416229304117367  1.0000
  H   H37       1.0  0.6459169363065129  0.21995239791883844  0.13101344023128556  1.0000
  H   H38       1.0  0.8540501251440702  0.7199502481820373  0.36898670489433283  1.0000
  H   H39       1.0  0.3540223977968039  0.780062017065319  0.8689859515413477  1.0000
  H   H40       1.0  0.14597475005079016  0.2800604148859732  0.6310184848153783  1.0000
  C   C1        1.0  0.477631410662404  0.17594069244556473  0.6298032797911477  1.0000
  C   C2        1.0  0.022385285270239284  0.675943450138405  0.8701983985582304  1.0000
  C   C3        1.0  0.5223761110251104  0.8240632167239212  0.3701976222445326  1.0000
  C   C4        1.0  0.9776208392633162  0.3240627102551557  0.1298072421470309  1.0000
  C   C5        1.0  0.43396128816603136  0.3356623227661686  0.6487582937354476  1.0000
  C   C6        1.0  0.06606766604236468  0.8356734685596833  0.8512438687938161  1.0000
  C   C7        1.0  0.5660662541910354  0.6643445882564407  0.35123945524208733  1.0000
  C   C8        1.0  0.9339228398035004  0.16433494302509644  0.14876497853885706  1.0000
  C   C9        1.0  0.4964175138068184  0.3022514231019144  0.7272660864949004  1.0000
  C   C10       1.0  0.003594431375354585  0.8022553446565368  0.772718308042336  1.0000
  C   C11       1.0  0.5036063455854032  0.6977487339256853  0.2727377321854477  1.0000
  C   C12       1.0  0.9964032706867413  0.19774481233338995  0.22728111562501854  1.0000
  C   C13       1.0  0.605095968389264  0.13486042092018377  0.7743801645536694  1.0000
  C   C14       1.0  0.8949084638280738  0.6348649708579899  0.7256174292759712  1.0000
  C   C15       1.0  0.3948940302061245  0.8651307308502749  0.22561916536528778  1.0000
  C   C16       1.0  0.1051111631180675  0.3651299331650576  0.27438362034751423  1.0000
  C   C17       1.0  0.5479117225340672  0.13614131425965328  0.8697829267374717  1.0000
  C   C18       1.0  0.9520945925111587  0.6361475551706943  0.6302200951134012  1.0000
  C   C19       1.0  0.45207501702167713  0.8638535896715354  0.13021568404331427  1.0000
  C   C20       1.0  0.04792490732604189  0.3638526018506241  0.36978299106478124  1.0000
  C   C21       1.0  0.39851768562695605  0.10792200691358998  0.9887400326237883  1.0000
  C   C22       1.0  0.10147529811678167  0.607934972479221  0.5112547973565285  1.0000
  C   C23       1.0  0.6014497114390734  0.8920743979191882  0.011250869212482003  1.0000
  C   C24       1.0  0.8985510166159684  0.3920734393746628  0.48874497481170226  1.0000
  C   C25       1.0  0.2874823050058595  0.0786509793819263  0.04989767487231942  1.0000
  C   C26       1.0  0.21250403278678218  0.5786679110333495  0.45009188929248733  1.0000
  C   C27       1.0  0.7124887748902252  0.9213356699289078  0.9500871574528493  1.0000
  C   C28       1.0  0.7875166523581923  0.421338999905231  0.5499098524710322  1.0000
  C   C29       1.0  0.3115603638577936  0.09944874868541119  0.14101344506732974  1.0000
  C   C30       1.0  0.18841293817912688  0.5994636183132656  0.3589781906786557  1.0000
  C   C31       1.0  0.688400430214017  0.9005371500667817  0.8589773764455517  1.0000
  C   C32       1.0  0.811605461234606  0.40054404302988905  0.6410248820048141  1.0000
  C   C33       1.0  0.43910355851598837  0.1496355087992143  0.16964581578152155  1.0000
  C   C34       1.0  0.06086167432290778  0.6496419638831767  0.3303459049304962  1.0000
  C   C35       1.0  0.5608451727117725  0.8503631472723111  0.830344179228071  1.0000
  C   C36       1.0  0.9391533388870954  0.3503679487256761  0.6696584852479294  1.0000
  C   C37       1.0  0.549120711208424  0.17946801181611247  0.10846377659900953  1.0000
  C   C38       1.0  0.9508570331032471  0.6794689615242787  0.3915320118630988  1.0000
  C   C39       1.0  0.4508286967565666  0.8205419006488128  0.8915330204064136  1.0000
  C   C40       1.0  0.049167884487808074  0.3205432024188539  0.6084724989572836  1.0000
  C   C41       1.0  0.5291067228085781  0.15612930012234466  0.016885970696940006  1.0000
  C   C42       1.0  0.9708792323843479  0.6561337679020838  0.48311386139867823  1.0000
  C   C43       1.0  0.47085500235312566  0.8438738585436523  0.9831075795106587  1.0000
  C   C44       1.0  0.02914873233888927  0.3438761446957628  0.5168947629019345  1.0000
  I   I1        1.0  0.2728158117864865  0.0557567612035896  0.41185494779529125  1.0000
  I   I2        1.0  0.22718720878277304  0.5557564743539344  0.08814418815595813  1.0000
  I   I3        1.0  0.7271884508184953  0.9442456470984978  0.5881452351632178  1.0000
  I   I4        1.0  0.7728071918496083  0.44424668435418374  0.9118551952538356  1.0000
  I   I5        1.0  0.5288996401940621  0.3721735281306521  0.33346362496098453  1.0000
  I   I6        1.0  0.9710826479871101  0.8721676125557919  0.16652294919413185  1.0000
  I   I7        1.0  0.47111914056486626  0.6278206255154402  0.6665333380322597  1.0000
  I   I8        1.0  0.028893975384292468  0.1278392982105672  0.833478935138608  1.0000
  N   N1        1.0  0.4227561837033562  0.2563851950941967  0.5887060959537822  1.0000
  N   N2        1.0  0.07726203772976697  0.7563849407044716  0.9112903197035183  1.0000
  N   N3        1.0  0.5772680148094195  0.7436209654737029  0.4112922916816616  1.0000
  N   N4        1.0  0.9227253361915186  0.24362272047534358  0.08871577192757482  1.0000
  N   N5        1.0  0.5236989033218504  0.201101662016498  0.7139622884484994  1.0000
  N   N6        1.0  0.9763161758224114  0.7011013467984881  0.7860393185918826  1.0000
  N   N7        1.0  0.47631094643796235  0.7988962437302334  0.2860366038563385  1.0000
  N   N8        1.0  0.02369435058884049  0.29889730928540803  0.21396637583078618  1.0000
  N   N9        1.0  0.6198107576432007  0.17191143698804015  0.9409065456784238  1.0000
  N   N10       1.0  0.8801859404050704  0.6719116684396126  0.5591002768967713  1.0000
  N   N11       1.0  0.3801580775548742  0.8280939728648419  0.059096602562583214  1.0000
  N   N12       1.0  0.11984109332631475  0.3280929911658461  0.4409056185696871  1.0000
  N   N13       1.0  0.4149838053558382  0.09724250476499915  0.8956831793785799  1.0000
  N   N14       1.0  0.08501573405442998  0.597254911904386  0.6043099424752045  1.0000
  N   N15       1.0  0.5849981099070262  0.9027508984399049  0.10430450243142532  1.0000
  N   N16       1.0  0.9150048662797656  0.402746745986171  0.39569315709312053  1.0000
