data_image0
_chemical_formula_structural       Zn4H16C12S4N16O12
_chemical_formula_sum              "Zn4 H16 C12 S4 N16 O12"
_cell_length_a       6.634285168666209
_cell_length_b       8.588994242000588
_cell_length_c       12.742275063627417
_cell_angle_alpha    90.00003051501287
_cell_angle_beta     103.18353142266056
_cell_angle_gamma    90.00002262945941

_space_group_name_H-M_alt    "P 1"
_space_group_IT_number       1

loop_
  _space_group_symop_operation_xyz
  'x, y, z'

loop_
  _atom_site_type_symbol
  _atom_site_label
  _atom_site_symmetry_multiplicity
  _atom_site_fract_x
  _atom_site_fract_y
  _atom_site_fract_z
  _atom_site_occupancy
  Zn  Zn1       1.0  0.9925738572645386  0.5131348652022967  0.3096151607645793  1.0000
  Zn  Zn2       1.0  0.007422641981762  0.0131366553778349  0.19038368825132318  1.0000
  Zn  Zn3       1.0  0.007425347587982899  0.48686403082614765  0.6903836023379525  1.0000
  Zn  Zn4       1.0  0.9925750157272902  0.9868645692119603  0.809615676420286  1.0000
  H   H1        1.0  0.8858223580786773  0.6397830364448824  0.47395175521133837  1.0000
  H   H2        1.0  0.1141773240926369  0.13978705888189322  0.02604751614570229  1.0000
  H   H3        1.0  0.11417529864999662  0.36021236674123003  0.5260468245537524  1.0000
  H   H4        1.0  0.8858218817398581  0.860216494269558  0.9739520318630922  1.0000
  H   H5        1.0  0.918327144365918  0.7774359143107857  0.3948865981007045  1.0000
  H   H6        1.0  0.08167728029675911  0.2774376604916711  0.1051164233911237  1.0000
  H   H7        1.0  0.08167670974606268  0.2225618174394981  0.6051166395377621  1.0000
  H   H8        1.0  0.9183265728380262  0.7225635641003194  0.8948860293428779  1.0000
  H   H9        1.0  0.3823115234055622  0.8803301517277616  0.024795598136634605  1.0000
  H   H10       1.0  0.6176821318827876  0.3803253749742979  0.47520383050777326  1.0000
  H   H11       1.0  0.6176814889587589  0.11967572998346301  0.9752024316207367  1.0000
  H   H12       1.0  0.3823108814563269  0.619670028211175  0.5247949841525353  1.0000
  H   H13       1.0  0.4695079508850384  0.712628714390853  0.9664870823594709  1.0000
  H   H14       1.0  0.530486034206149  0.21262472461265247  0.5335129123233671  1.0000
  H   H15       1.0  0.5304866105799136  0.2873760030403219  0.033511915639550714  1.0000
  H   H16       1.0  0.4695069791329658  0.7873706785728203  0.4664859023369344  1.0000
  C   C1        1.0  0.6767629984456605  0.7919892734488201  0.1144058888504844  1.0000
  C   C2        1.0  0.3232398821822073  0.2919843325027004  0.38559224626862937  1.0000
  C   C3        1.0  0.3232392987414129  0.2080177725437338  0.885590101306256  1.0000
  C   C4        1.0  0.676767059368416  0.7080099064034046  0.614404293895312  1.0000
  C   C5        1.0  0.46009273316018817  0.7674601456772835  0.04307664091827951  1.0000
  C   C6        1.0  0.5399008468366303  0.2674576583803727  0.45692430792588806  1.0000
  C   C7        1.0  0.5399033774053947  0.2325434074738411  0.9569233253223927  1.0000
  C   C8        1.0  0.46009371560351303  0.7325377448057253  0.5430754749763195  1.0000
  C   C9        1.0  0.25807369630584276  0.7005932010281911  0.18195155289085815  1.0000
  C   C10       1.0  0.741924481316282  0.20059066775939272  0.3180491316672089  1.0000
  C   C11       1.0  0.7419270586272828  0.2994091878432172  0.8180489633595867  1.0000
  C   C12       1.0  0.25807627459323607  0.7994058997089651  0.6819521694871895  1.0000
  S   S1        1.0  0.30112081993603823  0.8688737083006902  0.2553221966881836  1.0000
  S   S2        1.0  0.6988774718797259  0.3688699390302618  0.24467777693087095  1.0000
  S   S3        1.0  0.6988783868748385  0.13112984485108112  0.7446781362258434  1.0000
  S   S4        1.0  0.3011232830510123  0.6311254641571082  0.7553227393180392  1.0000
  N   N1        1.0  0.3345396272358131  0.6680154407030302  0.0937622170333015  1.0000
  N   N2        1.0  0.6654569799672174  0.1680129530387902  0.4062382698687798  1.0000
  N   N3        1.0  0.6654564833293719  0.33198694816742613  0.9062377492071219  1.0000
  N   N4        1.0  0.334540677740236  0.8319836144283032  0.593761094801806  1.0000
  N   N5        1.0  0.27900271588332975  0.5232976585199013  0.05777524185293  1.0000
  N   N6        1.0  0.7209984376197056  0.0232940526551602  0.4422265163544878  1.0000
  N   N7        1.0  0.720999587172841  0.4767058946325023  0.9422254577344373  1.0000
  N   N8        1.0  0.2790023182898125  0.9767025148131909  0.5577747847999106  1.0000
  N   N9        1.0  0.17032979742483428  0.4669977101718104  0.12118950486151898  1.0000
  N   N10       1.0  0.8296747569745475  0.9669970874715476  0.37881359995032676  1.0000
  N   N11       1.0  0.8296771509768633  0.5330035144205071  0.878812529640598  1.0000
  N   N12       1.0  0.17033064526047784  0.0330018085597246  0.6211898210250694  1.0000
  N   N13       1.0  0.1544379363445785  0.5711030589320886  0.19844725678670724  1.0000
  N   N14       1.0  0.8455663480800625  0.07110287398678851  0.30155645891780125  1.0000
  N   N15       1.0  0.8455674649124562  0.4288970013795534  0.8015553792837122  1.0000
  N   N16       1.0  0.1544390541549632  0.9288960220444837  0.698446962057595  1.0000
  O   O1        1.0  0.7388321235932409  0.7153598551764022  0.19772246251685735  1.0000
  O   O2        1.0  0.26116606315724766  0.21535832145329445  0.302277443626771  1.0000
  O   O3        1.0  0.26116708028208535  0.2846425336937558  0.8022755156812095  1.0000
  O   O4        1.0  0.7388362359841949  0.7846417388558393  0.6977201163388996  1.0000
  O   O5        1.0  0.7803947423084309  0.9012127741985979  0.07855052157930939  1.0000
  O   O6        1.0  0.21960202351698402  0.4012066645400267  0.42144928291695993  1.0000
  O   O7        1.0  0.21960136630158186  0.09879427179392758  0.9214478748516652  1.0000
  O   O8        1.0  0.7803940850882469  0.5987864100844221  0.5785491135109451  1.0000
  O   O9        1.0  0.969770635072102  0.671323392463215  0.42161717355317296  1.0000
  O   O10       1.0  0.030229069664052595  0.1713274297492973  0.07838289657244248  1.0000
  O   O11       1.0  0.0302285707576004  0.3286720107235298  0.5783823744538309  1.0000
  O   O12       1.0  0.9697716852694711  0.8286761234027866  0.9216176196782582  1.0000
