data_image0
_chemical_formula_structural       Zn2P2H26C22N4O10
_chemical_formula_sum              "Zn2 P2 H26 C22 N4 O10"
_cell_length_a       5.147591744009068
_cell_length_b       9.227004235352208
_cell_length_c       13.749552759916837
_cell_angle_alpha    99.90921211766891
_cell_angle_beta     89.99998298944402
_cell_angle_gamma    89.99973661815993

_space_group_name_H-M_alt    "P 1"
_space_group_IT_number       1

loop_
  _space_group_symop_operation_xyz
  'x, y, z'

loop_
  _atom_site_type_symbol
  _atom_site_label
  _atom_site_symmetry_multiplicity
  _atom_site_fract_x
  _atom_site_fract_y
  _atom_site_fract_z
  _atom_site_occupancy
  Zn  Zn1       1.0  0.0480692314483733  0.6654739755185943  0.09039621488371809  1.0000
  Zn  Zn2       1.0  0.5480766402026304  0.33452138300121687  0.9096033584102868  1.0000
  P   P1        1.0  0.5460989734547611  0.49394415105894046  0.13190218857712208  1.0000
  P   P2        1.0  0.0461013638475123  0.5060512058681256  0.8680995649248899  1.0000
  H   H1        1.0  0.39473506541857273  0.1055712584406407  0.1247630073491948  1.0000
  H   H2        1.0  0.8947505614914704  0.8944212635514504  0.8752430444113273  1.0000
  H   H3        1.0  0.06048491767023018  0.38648549952046807  0.45119895951435035  1.0000
  H   H4        1.0  0.5604880976011088  0.6135241306595631  0.5488059224909136  1.0000
  H   H5        1.0  0.5677917943780955  0.9583825320249347  0.23942828665970242  1.0000
  H   H6        1.0  0.0678230192690989  0.041614994947543886  0.7605700996743964  1.0000
  H   H7        1.0  0.8075829370226586  0.966229358555978  0.3998359950637179  1.0000
  H   H8        1.0  0.3075978800707517  0.0337688477692168  0.6001590160374805  1.0000
  H   H9        1.0  0.14679202810196298  0.17190522245687834  0.0012812689556511887  1.0000
  H   H10       1.0  0.6467918010279022  0.8280932547237538  0.9987209245582207  1.0000
  H   H11       1.0  0.1684976543718335  0.31452834722885836  0.2528430140201152  1.0000
  H   H12       1.0  0.6685297909623172  0.6854678958060986  0.7471567537971565  1.0000
  H   H13       1.0  0.9455470929860184  0.17792629964792891  0.27155654761617143  1.0000
  H   H14       1.0  0.44557246799289624  0.8220716425326485  0.7284458104620128  1.0000
  H   H15       1.0  0.1488540358414454  0.3232037361708464  0.0916337625287653  1.0000
  H   H16       1.0  0.6488559946525143  0.6767925386498207  0.9083674486567048  1.0000
  H   H17       1.0  0.5601101622277511  0.3414322239863523  0.6961242289732822  1.0000
  H   H18       1.0  0.0600838480571326  0.6585697243749421  0.3038717574541536  1.0000
  H   H19       1.0  0.6360379732077135  0.46062655934299096  0.22239301309294043  1.0000
  H   H20       1.0  0.13604259664491988  0.5393697384248524  0.777608191034055  1.0000
  H   H21       1.0  0.8822383559577888  0.2200784454540425  0.07246735309328052  1.0000
  H   H22       1.0  0.3822433455131531  0.7799251212968131  0.9275312484353788  1.0000
  H   H23       1.0  0.8033690095058859  0.13704179336765773  0.5944222549115709  1.0000
  H   H24       1.0  0.3033612539683617  0.8629597279185645  0.4055702300193218  1.0000
  H   H25       1.0  0.18872253021685736  0.46201508533538765  0.6250045601901987  1.0000
  H   H26       1.0  0.6887024466187058  0.5379921165663148  0.3749994089784251  1.0000
  C   C1        1.0  0.050091814029308096  0.971920779097779  0.11643032604089844  1.0000
  C   C2        1.0  0.5501200366141603  0.028077874634199407  0.883570360020954  1.0000
  C   C3        1.0  0.1868357689547722  0.12099598122794925  0.1411154698641326  1.0000
  C   C4        1.0  0.6868534804392611  0.8790024242307765  0.8588867457111746  1.0000
  C   C5        1.0  0.14776043049500487  0.1946478659208565  0.24906074824601626  1.0000
  C   C6        1.0  0.6477835385205779  0.8053539083573966  0.750942557455751  1.0000
  C   C7        1.0  0.33596882631126584  0.14670023437026458  0.3203751954707741  1.0000
  C   C8        1.0  0.8359861124336447  0.8533001146628009  0.6796229960256994  1.0000
  C   C9        1.0  0.3573451011850254  0.216019652110063  0.4221428005033871  1.0000
  C   C10       1.0  0.8573579828523209  0.7839861510415742  0.5778596791735993  1.0000
  C   C11       1.0  0.2212379403574332  0.3309143324434629  0.4810332600545237  1.0000
  C   C12       1.0  0.7212329874218922  0.6690917144496141  0.5189691446483806  1.0000
  C   C13       1.0  0.29456098892595856  0.3730811084857136  0.5791602113260907  1.0000
  C   C14       1.0  0.7945552125348315  0.6269237154646132  0.420838470089322  1.0000
  C   C15       1.0  0.5023729448863677  0.30354814864973884  0.6197057057176281  1.0000
  C   C16       1.0  0.0023612485332052003  0.6964549998579344  0.3802918312913022  1.0000
  C   C17       1.0  0.6406461579300641  0.188811783691456  0.5632221365883581  1.0000
  C   C18       1.0  0.14063288809039418  0.811188920256292  0.4367737660194138  1.0000
  C   C19       1.0  0.5654698232387574  0.14549289828519107  0.4645842118524328  1.0000
  C   C20       1.0  0.0654690174022008  0.8545079402687604  0.5354116493508982  1.0000
  C   C21       1.0  0.5244498075101235  0.038294072037210504  0.3050050875818755  1.0000
  C   C22       1.0  0.024473982017212802  0.9617057363445055  0.6949920770472388  1.0000
  N   N1        1.0  0.08321619543029608  0.21536006400195618  0.07255369404724378  1.0000
  N   N2        1.0  0.5832207983357165  0.7846396323312065  0.9274464113384224  1.0000
  N   N3        1.0  0.662109996510935  0.03799618766291251  0.39145044128377293  1.0000
  N   N4        1.0  0.1621172884047439  0.9620055763099558  0.608546328433647  1.0000
  O   O1        1.0  0.18055913327436465  0.8629483738402683  0.13786601212719765  1.0000
  O   O2        1.0  0.6805825010054535  0.13704894266586357  0.8621360718091468  1.0000
  O   O3        1.0  0.6789876451221133  0.6345303759085326  0.11266771099994338  1.0000
  O   O4        1.0  0.1789894025234844  0.36546804361801577  0.8873345002481443  1.0000
  O   O5        1.0  0.6093586597991419  0.35554421792595287  0.05521004023525217  1.0000
  O   O6        1.0  0.10936103497252958  0.6444532295137078  0.9447905502809631  1.0000
  O   O7        1.0  0.24836348740936393  0.5138929444858388  0.14315243768488267  1.0000
  O   O8        1.0  0.7483697078640503  0.48610644928479013  0.8568506670588292  1.0000
  O   O9        1.0  0.8272573299242367  0.9672744385535449  0.07916803523450254  1.0000
  O   O10       1.0  0.32727004180577524  0.03272701943640751  0.9208331880384576  1.0000
