data_image0
_chemical_formula_structural       Zn4H6C44N16Cl14F14
_chemical_formula_sum              "Zn4 H6 C44 N16 Cl14 F14"
_cell_length_a       14.906637987792525
_cell_length_b       15.030253816214858
_cell_length_c       15.095120152177392
_cell_angle_alpha    110.09001480312511
_cell_angle_beta     109.22183610800289
_cell_angle_gamma    108.51590340187151

_space_group_name_H-M_alt    "P 1"
_space_group_IT_number       1

loop_
  _space_group_symop_operation_xyz
  'x, y, z'

loop_
  _atom_site_type_symbol
  _atom_site_label
  _atom_site_symmetry_multiplicity
  _atom_site_fract_x
  _atom_site_fract_y
  _atom_site_fract_z
  _atom_site_occupancy
  Zn  Zn1       1.0  0.36477010979285757  0.503709344101104  0.8857061452344798  1.0000
  Zn  Zn2       1.0  0.47739009877069083  0.33544397201204396  0.8316745591761504  1.0000
  Zn  Zn3       1.0  0.6288563577505143  0.4852795949938484  0.07439471254411963  1.0000
  Zn  Zn4       1.0  0.49630731023081853  0.6340044683753377  0.16327623513767253  1.0000
  H   H1        1.0  0.24346669516157962  0.9457537563210682  0.8508227008060489  1.0000
  H   H2        1.0  0.22252548880690895  0.9054961150249458  0.01511921208980038  1.0000
  H   H3        1.0  0.5683206997642215  0.09247947661713599  0.0304213278214363  1.0000
  H   H4        1.0  0.40161023814609115  0.8763233582669447  0.8698082920587498  1.0000
  H   H5        1.0  0.6823232786451853  0.858119681637767  0.23401686525798468  1.0000
  H   H6        1.0  0.6704774058966833  0.52499690985686  0.40170685247275634  1.0000
  C   C1        1.0  0.559501724429829  0.6283172763474952  0.8785969293655784  1.0000
  C   C2        1.0  0.19883206679586607  0.34813975164014016  0.008374460714414101  1.0000
  C   C3        1.0  0.76450891621279  0.3032005339618138  0.9372850873561732  1.0000
  C   C4        1.0  0.3829491983081327  0.809138735461332  0.03036342829101111  1.0000
  C   C5        1.0  0.4186165245903907  0.1853966245599282  0.003770537462919827  1.0000
  C   C6        1.0  0.4786707469319963  0.027113205360862508  0.11546713718345102  1.0000
  C   C7        1.0  0.39058884748261136  0.06511321447219841  0.10481714499501044  1.0000
  C   C8        1.0  0.29530128160950403  0.24504547326370846  0.6128436203185006  1.0000
  C   C9        1.0  0.4909305812504882  0.049143556612499105  0.025686884827145203  1.0000
  C   C10       1.0  0.2989161605196172  0.9465926689439074  0.017239780930601797  1.0000
  C   C11       1.0  0.403079381240829  0.08919882225455919  0.014447046734687781  1.0000
  C   C12       1.0  0.3867622354652696  0.9067033899826813  0.027828232547300012  1.0000
  C   C13       1.0  0.31112386169122164  0.9690315861963441  0.9267546145734046  1.0000
  C   C14       1.0  0.39856632904690054  0.9310764285107923  0.937240487678203  1.0000
  C   C15       1.0  0.009573963901175389  0.12536878899199172  0.4260326942003091  1.0000
  C   C16       1.0  0.6653383487435107  0.5892289137075153  0.6994554902345912  1.0000
  C   C17       1.0  0.11400463011646879  0.17463837672369922  0.44823809983044793  1.0000
  C   C18       1.0  0.6877857132688733  0.6575293434957958  0.7996998554259849  1.0000
  C   C19       1.0  0.9221543774644798  0.021138266064312503  0.33270336104412485  1.0000
  C   C20       1.0  0.6787172077002808  0.6155517537817732  0.6191013917161502  1.0000
  C   C21       1.0  0.8069320877341896  0.7146402117950006  0.20371475803037953  1.0000
  C   C22       1.0  0.5611642579220515  0.6827221410842556  0.39951604392160084  1.0000
  C   C23       1.0  0.9168471196528215  0.9240451105216039  0.3141410361680884  1.0000
  C   C24       1.0  0.8186418258235619  0.819754156371431  0.2445124670161576  1.0000
  C   C25       1.0  0.6169385939007981  0.6455754277462304  0.55966508181659  1.0000
  C   C26       1.0  0.93350157919793  0.2910953553651723  0.021460215420290755  1.0000
  C   C27       1.0  0.0480940532373424  0.3406113270408966  0.0500453908554377  1.0000
  C   C28       1.0  0.8606454923513028  0.2960616609775429  0.9438293576322112  1.0000
  C   C29       1.0  0.09451612728528151  0.29401107185098857  0.00042988626705661666  1.0000
  C   C30       1.0  0.6078873479811476  0.6394896552606539  0.45937083290404973  1.0000
  C   C31       1.0  0.6652196452326248  0.2714139105307964  0.8492612847186011  1.0000
  C   C32       1.0  0.21597713101745336  0.34702563269283354  0.9214712843151319  1.0000
  C   C33       1.0  0.43493144756261154  0.7935638590955776  0.11541689469481037  1.0000
  C   C34       1.0  0.49152025333595617  0.29534111445822486  0.08125284617379694  1.0000
  C   C35       1.0  0.7618359761738486  0.3723699612392934  0.02578198445798547  1.0000
  C   C36       1.0  0.29964450267865317  0.4326879754667773  0.09841436140525421  1.0000
  C   C37       1.0  0.33616416043357594  0.7055029821845553  0.9418665007098855  1.0000
  C   C38       1.0  0.382141347829055  0.19183594200489307  0.9092429230948087  1.0000
  C   C39       1.0  0.7111186579215099  0.7997524127203093  0.21658393831833667  1.0000
  C   C40       1.0  0.6339328762391432  0.5745543922060605  0.3889050089015528  1.0000
  C   C41       1.0  0.6543086503141993  0.5451898349746714  0.8933982230247042  1.0000
  C   C42       1.0  0.22448345726686364  0.3517459149949573  0.6369338806994878  1.0000
  C   C43       1.0  0.644276589398693  0.6191204313964604  0.8610096224756135  1.0000
  C   C44       1.0  0.20621328864994123  0.25539722208915094  0.5563823339726852  1.0000
  N   N1        1.0  0.5215617736252227  0.5638824264927962  0.9154028100296047  1.0000
  N   N2        1.0  0.31576369825264555  0.4252805964374179  0.9580471349088032  1.0000
  N   N3        1.0  0.6103848184133723  0.3170641702969732  0.8842664191600351  1.0000
  N   N4        1.0  0.42193039795699144  0.6935673505530389  0.08154537985894444  1.0000
  N   N5        1.0  0.49688942723248886  0.3599087104493251  0.0380055360443806  1.0000
  N   N6        1.0  0.6728102827377781  0.3817669662624824  0.9959947585215405  1.0000
  N   N7        1.0  0.36862840868286634  0.47933202524058777  0.06957815311135107  1.0000
  N   N8        1.0  0.35788558500750156  0.3266656004387798  0.7159030300909422  1.0000
  N   N9        1.0  0.3584829904664346  0.6366213070439458  0.9694125514552001  1.0000
  N   N10       1.0  0.4270312117575301  0.29304464935166413  0.9271230116045219  1.0000
  N   N11       1.0  0.6430758042724349  0.6932212554336274  0.16612914574203336  1.0000
  N   N12       1.0  0.6052960144199844  0.5780117060211155  0.29735206242860823  1.0000
  N   N13       1.0  0.5800493336668423  0.5082155577668316  0.9235237545382802  1.0000
  N   N14       1.0  0.3128468546805577  0.3941820106577509  0.7314685983260177  1.0000
  N   N15       1.0  0.7023878854619807  0.640769271719691  0.15927739396733642  1.0000
  N   N16       1.0  0.5606528717921648  0.6456313000158149  0.3046327641298063  1.0000
  Cl  Cl1       1.0  0.503928691990339  0.7044297954458262  0.8507297995369714  1.0000
  Cl  Cl2       1.0  0.7575040660571446  0.7960466221668131  0.8537524462489262  1.0000
  Cl  Cl3       1.0  0.1452931611757862  0.1301134682640637  0.3464402157789125  1.0000
  Cl  Cl4       1.0  0.032423066979184484  0.9247690777684809  0.3918928527833644  1.0000
  Cl  Cl5       1.0  0.5324498462889622  0.6813703626533113  0.601979409743592  1.0000
  Cl  Cl6       1.0  0.8988611832282984  0.24848798268529754  0.10415853589488233  1.0000
  Cl  Cl7       1.0  0.12089545993892872  0.47785952741463705  0.14619725781492587  1.0000
  Cl  Cl8       1.0  0.3287621440283813  0.14639629626589826  0.5706127200820961  1.0000
  Cl  Cl9       1.0  0.8984146154990783  0.671530506384187  0.19797114488477538  1.0000
  Cl  Cl10      1.0  0.5115806280745117  0.770488297676323  0.4291569078041277  1.0000
  Cl  Cl11      1.0  0.6148716979809518  0.18872687483604275  0.7154796451797838  1.0000
  Cl  Cl12      1.0  0.1269018006442053  0.26388516406304063  0.786754578358739  1.0000
  Cl  Cl13      1.0  0.9727570338640702  0.17491108331455513  0.5228221711947967  1.0000
  Cl  Cl14      1.0  0.6017816111435296  0.4490595459145724  0.6501072374387251  1.0000
  F   F1        1.0  0.5646219294439447  0.05835239269448072  0.2108380845578425  1.0000
  F   F2        1.0  0.032038003323698695  0.1867087222366166  0.9232857464914375  1.0000
  F   F3        1.0  0.8898960039321221  0.31831519747002807  0.8736000464225813  1.0000
  F   F4        1.0  0.4936178819054148  0.8651264863368838  0.22189231964983946  1.0000
  F   F5        1.0  0.5545351529564329  0.33662941151156645  0.18717679898900746  1.0000
  F   F6        1.0  0.8373675857162579  0.4284765491248237  0.13005654264522082  1.0000
  F   F7        1.0  0.3303859934601832  0.46622765743438793  0.20272016778902477  1.0000
  F   F8        1.0  0.3854864393706022  0.13184153604274942  0.18937732097993631  1.0000
  F   F9        1.0  0.2761753871952664  0.6722463424514661  0.8367974280767358  1.0000
  F   F10       1.0  0.3119546094400576  0.10972437436254981  0.8070291430459947  1.0000
  F   F11       1.0  0.7270725875409737  0.5111394422209159  0.8970844901213796  1.0000
  F   F12       1.0  0.16654616679281284  0.40316905043727774  0.6286399444838723  1.0000
  F   F13       1.0  0.8300848566967642  0.021673536795674405  0.2739247331971982  1.0000
  F   F14       1.0  0.745396068888013  0.5845335097395647  0.5871930022810333  1.0000
