data_image0
_chemical_formula_structural       Co2H30C34Br2N8O8
_chemical_formula_sum              "Co2 H30 C34 Br2 N8 O8"
_cell_length_a       7.743831507131685
_cell_length_b       11.369356658859134
_cell_length_c       11.369329372636809
_cell_angle_alpha    71.33970295352952
_cell_angle_beta     72.4812539229584
_cell_angle_gamma    72.4809208333019

_space_group_name_H-M_alt    "P 1"
_space_group_IT_number       1

loop_
  _space_group_symop_operation_xyz
  'x, y, z'

loop_
  _atom_site_type_symbol
  _atom_site_label
  _atom_site_symmetry_multiplicity
  _atom_site_fract_x
  _atom_site_fract_y
  _atom_site_fract_z
  _atom_site_occupancy
  Co  Co1       1.0  0.6222941120529057  0.3768768261280401  0.032472948555209845  1.0000
  Co  Co2       1.0  0.3777010439884023  0.9675251993926891  0.6231296344986603  1.0000
  H   H1        1.0  0.5880646946081141  0.7753244050949705  0.973749733255566  1.0000
  H   H2        1.0  0.4119520290090152  0.026254664510688  0.22467156212706382  1.0000
  H   H3        1.0  0.4999861428287318  0.6206536557015596  0.37935231296408733  1.0000
  H   H4        1.0  0.8287358008690402  0.9018113741928959  0.344029435993079  1.0000
  H   H5        1.0  0.17126455448133976  0.6559672241244812  0.09820205839960039  1.0000
  H   H6        1.0  0.9999959855946016  0.058643310154366204  0.9413531384349552  1.0000
  H   H7        1.0  0.2121101792914928  0.5008000354119845  0.9810522727084744  1.0000
  H   H8        1.0  0.787888242498326  0.0189448759445341  0.4992052682019263  1.0000
  H   H9        1.0  0.9098102697249074  0.4056739920132131  0.15256228018865403  1.0000
  H   H10       1.0  0.0901854463368607  0.847432567714769  0.5943275038405956  1.0000
  H   H11       1.0  0.40537450372998757  0.2019169404855532  0.27744737716641044  1.0000
  H   H12       1.0  0.5946269245389075  0.72255311310861  0.7980894364027619  1.0000
  H   H13       1.0  0.10642520747744302  0.12836815742372923  0.4039185185864014  1.0000
  H   H14       1.0  0.8935772700595381  0.5960773345682496  0.8716341613602054  1.0000
  H   H15       1.0  0.9013049590688597  0.1991963292660657  0.34207745113366167  1.0000
  H   H16       1.0  0.09869629386513874  0.657916735201134  0.8008053652447699  1.0000
  H   H17       1.0  0.0603562022822715  0.3275119192295008  0.47428781223989347  1.0000
  H   H18       1.0  0.9396442143490163  0.5257083667051603  0.6724890958832075  1.0000
  H   H19       1.0  0.8590466740349996  0.3954386184755164  0.4106547056640295  1.0000
  H   H20       1.0  0.14095483588564398  0.5893392065116531  0.6045641988906781  1.0000
  H   H21       1.0  0.7087044384821013  0.22050887459094068  0.5661315664433815  1.0000
  H   H22       1.0  0.29130272586047573  0.43385917181032607  0.7794935603689339  1.0000
  H   H23       1.0  0.9065001460253868  0.15693668431885038  0.6343196532129125  1.0000
  H   H24       1.0  0.09350334900781829  0.36567347301816266  0.8430639657973558  1.0000
  H   H25       1.0  0.6256727344685657  0.5074941681610667  0.5448835033006105  1.0000
  H   H26       1.0  0.3743345688235848  0.4551109208237847  0.4925055359717375  1.0000
  H   H27       1.0  0.5033408887940993  0.5838470464725347  0.7679295100869581  1.0000
  H   H28       1.0  0.49667077391609393  0.23206176759558148  0.41615570016488584  1.0000
  H   H29       1.0  0.8158646255988201  0.2035072728509492  0.8423294385856223  1.0000
  H   H30       1.0  0.18413897879759134  0.15766850672300595  0.7964916115713123  1.0000
  C   C1        1.0  0.5000080934784065  0.9109175470776876  0.08908228907974093  1.0000
  C   C2        1.0  0.5505006004577595  0.7893319008225107  0.06916846410592105  1.0000
  C   C3        1.0  0.4495045385424988  0.9308320345442315  0.2106682506844989  1.0000
  C   C4        1.0  0.5494970603720617  0.6837755921366835  0.17505114617220838  1.0000
  C   C5        1.0  0.45050235991438103  0.8249518521280735  0.31622764716183827  1.0000
  C   C6        1.0  0.49999253349040634  0.7025810728569084  0.2974216513153891  1.0000
  C   C7        1.0  0.5960951899302247  0.5506823246302731  0.15991022925179968  1.0000
  C   C8        1.0  0.40389724973176294  0.8400935297055129  0.44932531853635277  1.0000
  C   C9        1.0  5.954556883189017e-07  0.7688210372058534  0.23118137276615158  1.0000
  C   C10       1.0  0.9043879956372152  0.8887062278451765  0.2498687653050667  1.0000
  C   C11       1.0  0.09561303379922488  0.7501313289483775  0.11129655163574637  1.0000
  C   C12       1.0  0.9049694745965129  0.9943163380117496  0.14418043887378929  1.0000
  C   C13       1.0  0.09502366863154074  0.8558196029693762  0.005686300129575228  1.0000
  C   C14       1.0  0.9999950161063961  0.9768677500117351  0.023134035567394975  1.0000
  C   C15       1.0  0.7971566046029965  0.12366854596148613  0.16340868892229565  1.0000
  C   C16       1.0  0.2028407103480915  0.8365889138900185  0.8763365245632712  1.0000
  C   C17       1.0  0.2069305415432083  0.4234976450986494  0.06685422155388919  1.0000
  C   C18       1.0  0.7930659790843537  0.9331434816679121  0.5765048097679822  1.0000
  C   C19       1.0  0.05709653431203068  0.3791408351496344  0.1504810548069386  1.0000
  C   C20       1.0  0.9429000568229212  0.8495153768096132  0.620860712545422  1.0000
  C   C21       1.0  0.31304257379053974  0.2706202720331278  0.2193950739545087  1.0000
  C   C22       1.0  0.6869562477102706  0.7805991663702229  0.7293821052381091  1.0000
  C   C23       1.0  0.016223339489165777  0.21909095210304497  0.3649253458678102  1.0000
  C   C24       1.0  0.9837760204059831  0.6350706408548561  0.7809117415637628  1.0000
  C   C25       1.0  0.9428433514622226  0.3052848473568588  0.4569015324124877  1.0000
  C   C26       1.0  0.057155319233935055  0.5430955738409223  0.694718579210189  1.0000
  C   C27       1.0  0.825122137791567  0.24478676777520994  0.5826996650499936  1.0000
  C   C28       1.0  0.17488092264471083  0.41729490649856876  0.7552123614386373  1.0000
  C   C29       1.0  0.6471947344110731  0.4554887149654335  0.6391455910549979  1.0000
  C   C30       1.0  0.3528108871719837  0.36084857045446483  0.5445102237081655  1.0000
  C   C31       1.0  0.590107956920569  0.4935901231116517  0.7507000582186975  1.0000
  C   C32       1.0  0.4099032068878116  0.2492916525087097  0.5064146150310903  1.0000
  C   C33       1.0  0.7501112627009547  0.2969971386849721  0.792676789323103  1.0000
  C   C34       1.0  0.24989411139451082  0.20732345821812  0.7029930917875618  1.0000
  Br  Br1       1.0  0.5000012984600986  0.055162294984811  0.9448450377656457  1.0000
  Br  Br2       1.0  5.37305491111594e-06  0.6251107819179468  0.3748818336649577  1.0000
  N   N1        1.0  0.36598749876026904  0.3548316523426109  0.1109833669534765  1.0000
  N   N2        1.0  0.6340088458837767  0.8890140969157657  0.6451722095946265  1.0000
  N   N3        1.0  0.12696540969677267  0.28241162085726756  0.24584869500760934  1.0000
  N   N4        1.0  0.8730363545718234  0.7541493019892016  0.7175892893057564  1.0000
  N   N5        1.0  0.7476435751223534  0.330674568554798  0.6674884198991791  1.0000
  N   N6        1.0  0.2523564733365474  0.3325075529618858  0.6693210949762403  1.0000
  N   N7        1.0  0.6564156932757967  0.3938581165068343  0.8459104287856576  1.0000
  N   N8        1.0  0.34358041065159745  0.1540861565594653  0.6061403986724726  1.0000
  O   O1        1.0  0.6410631530679962  0.5396980486210979  0.042521169323976066  1.0000
  O   O2        1.0  0.3589322395934075  0.9574862022356857  0.46030672365871056  1.0000
  O   O3        1.0  0.5911256333634398  0.4576344223581332  0.2551652890024271  1.0000
  O   O4        1.0  0.4088580239216809  0.7448382548587136  0.5423690678737643  1.0000
  O   O5        1.0  0.8026955391928255  0.21582157813706712  0.059536458876244994  1.0000
  O   O6        1.0  0.1973012828494021  0.9404632418631707  0.784182283052388  1.0000
  O   O7        1.0  0.7092145077650044  0.13535626717326474  0.27257709341652964  1.0000
  O   O8        1.0  0.29078472447785225  0.7274228971822299  0.8646433687076324  1.0000
