data_image0
_chemical_formula_structural       Zn2H32C40N12O8
_chemical_formula_sum              "Zn2 H32 C40 N12 O8"
_cell_length_a       6.542162910954866
_cell_length_b       10.010063879259402
_cell_length_c       15.597440495113144
_cell_angle_alpha    87.23659959046681
_cell_angle_beta     81.60370156372973
_cell_angle_gamma    70.94436683157878

_space_group_name_H-M_alt    "P 1"
_space_group_IT_number       1

loop_
  _space_group_symop_operation_xyz
  'x, y, z'

loop_
  _atom_site_type_symbol
  _atom_site_label
  _atom_site_symmetry_multiplicity
  _atom_site_fract_x
  _atom_site_fract_y
  _atom_site_fract_z
  _atom_site_occupancy
  Zn  Zn1       1.0  0.3479478213009841  0.3043679850585975  0.5001203347976713  1.0000
  Zn  Zn2       1.0  0.6526321694200161  0.6956245380984429  0.0001102243643841981  1.0000
  H   H1        1.0  0.9837334877187233  0.05536507383443021  0.39655487184058547  1.0000
  H   H2        1.0  0.039869963625982156  0.9447067534735608  0.896422399964969  1.0000
  H   H3        1.0  0.8084651458600829  0.9665286891890119  0.29116072334402077  1.0000
  H   H4        1.0  0.7754600157051144  0.033573535712776  0.7911023616573871  1.0000
  H   H5        1.0  0.293472611258295  0.014981032045383801  0.0837839346607367  1.0000
  H   H6        1.0  0.30840046737905136  0.9845246900457034  0.5835011405929152  1.0000
  H   H7        1.0  0.4604120578386171  0.11204908893335395  0.19067907454648036  1.0000
  H   H8        1.0  0.5726591989211797  0.8874572173402059  0.6903633001897518  1.0000
  H   H9        1.0  0.9074155677176846  0.22998241573342432  0.03451618605006252  1.0000
  H   H10       1.0  0.1364850637056987  0.7698962858835049  0.5345670807700671  1.0000
  H   H11       1.0  0.7361616600964921  0.23918193365607732  0.13491461251798847  1.0000
  H   H12       1.0  0.9742600526407869  0.7607440268734607  0.6349443357055548  1.0000
  H   H13       1.0  0.6249882984629095  0.2606098880774256  0.03605828045100169  1.0000
  H   H14       1.0  0.8844514105009721  0.7395319699342908  0.5360624897929469  1.0000
  H   H15       1.0  0.9741965555595296  0.7277285295184514  0.13728312303220488  1.0000
  H   H16       1.0  0.7024123933109008  0.2722352109375095  0.6370562873039914  1.0000
  H   H17       1.0  0.9879314964015222  0.36051850013045356  0.7618916067083248  1.0000
  H   H18       1.0  0.3487251030435843  0.6392981983877634  0.26167281627530053  1.0000
  H   H19       1.0  0.6755254170523555  0.3804487832852744  0.8801434088392383  1.0000
  H   H20       1.0  0.05603716119226477  0.619767612521379  0.3799932171714815  1.0000
  H   H21       1.0  0.2266832569562851  0.6051831827569741  0.70530546509503  1.0000
  H   H22       1.0  0.8309096153221702  0.39522297841622844  0.205484205469773  1.0000
  H   H23       1.0  0.5404429232858161  0.597398084324553  0.5908473879644517  1.0000
  H   H24       1.0  0.13702442544225588  0.4026961128604897  0.09092528795497401  1.0000
  H   H25       1.0  0.48873876465994215  0.193187932937839  0.9169800262505914  1.0000
  H   H26       1.0  0.6818601429860038  0.8070574701204125  0.41691340546542216  1.0000
  H   H27       1.0  0.4003264711996906  0.20582958814772218  0.8133379734282185  1.0000
  H   H28       1.0  0.6057815953603269  0.7945974416906196  0.3133139726063376  1.0000
  H   H29       1.0  0.2473057907568688  0.1559172398315027  0.9057323410706812  1.0000
  H   H30       1.0  0.4031365384120632  0.8441901016921138  0.4057735872489657  1.0000
  H   H31       1.0  0.06328770242377146  0.711983631847204  0.8702121410553616  1.0000
  H   H32       1.0  0.7750950089635253  0.28822619890692647  0.3704167036420997  1.0000
  C   C1        1.0  0.32665238505908417  0.16251499220206977  0.3586806695467786  1.0000
  C   C2        1.0  0.4895595533590366  0.8374636741843136  0.8585481420540404  1.0000
  C   C3        1.0  0.2319443116369726  0.09121363912435501  0.2993087681650478  1.0000
  C   C4        1.0  0.32358616206852253  0.9085790175137877  0.7991148419827354  1.0000
  C   C5        1.0  0.052968417013509815  0.04538140702086931  0.328342012854165  1.0000
  C   C6        1.0  0.0988937715825314  0.9545236798305938  0.8281752687266674  1.0000
  C   C7        1.0  0.9566530722029396  0.9926492790063864  0.26975930425986405  1.0000
  C   C8        1.0  0.9497076629184348  0.007252324716354502  0.7696116888155942  1.0000
  C   C9        1.0  0.04160203126026119  0.9855073015357618  0.18208757321424676  1.0000
  C   C10       1.0  0.027327184721954695  0.014276111422674407  0.6819185532046459  1.0000
  C   C11       1.0  0.226479853689554  0.02406701155208421  0.15228766071766128  1.0000
  C   C12       1.0  0.2507043920447175  0.9755364380265518  0.6520517220373208  1.0000
  C   C13       1.0  0.3205719224839925  0.07659237004023113  0.21154590847157806  1.0000
  C   C14       1.0  0.3974132062665632  0.9230027180207688  0.7113019786993249  1.0000
  C   C15       1.0  0.7668046930318295  0.20195822830570623  0.06760618457042972  1.0000
  C   C16       1.0  0.9678541800326597  0.7980315411400342  0.5676085185327153  1.0000
  C   C17       1.0  0.7985891301095831  0.04896904866669871  0.0668077510346023  1.0000
  C   C18       1.0  0.8471841195284139  0.9510880070648972  0.56675458389563  1.0000
  C   C19       1.0  0.8974157706782362  0.8261578918888619  0.1052695914722364  1.0000
  C   C20       1.0  0.7237742016488012  0.17386869590716714  0.6051208624117661  1.0000
  C   C21       1.0  0.9664040791309032  0.45224837935383994  0.5950210630449176  1.0000
  C   C22       1.0  0.41865543226531077  0.5473790700003891  0.09496670248123709  1.0000
  C   C23       1.0  0.7835687723698966  0.4781114108240987  0.6695092352812395  1.0000
  C   C24       1.0  0.26139124257579016  0.5217916542967204  0.16943490314816498  1.0000
  C   C25       1.0  0.8208496497173599  0.4169103797523235  0.7509932641780991  1.0000
  C   C26       1.0  0.237737661906131  0.5830391310402803  0.2508613916585816  1.0000
  C   C27       1.0  0.6472699651885275  0.42407967647789513  0.8159885145169099  1.0000
  C   C28       1.0  0.07128222756631425  0.5760606044665977  0.3158909967656385  1.0000
  C   C29       1.0  0.43443634999303515  0.49077626635533284  0.797851003787322  1.0000
  C   C30       1.0  0.9248377349574992  0.5095127627634073  0.2978528078235954  1.0000
  C   C31       1.0  0.39427530686423035  0.5561026697394169  0.7180409665331169  1.0000
  C   C32       1.0  0.9497391116669933  0.44411502953337145  0.2181298146269839  1.0000
  C   C33       1.0  0.5692068420270926  0.5513385723000968  0.6544481377513236  1.0000
  C   C34       1.0  0.1199070716352394  0.44874221976775913  0.154494850211627  1.0000
  C   C35       1.0  0.3446186040597892  0.22443110568935518  0.882993547520222  1.0000
  C   C36       1.0  0.5688957589356816  0.7758086224749123  0.3829726643855976  1.0000
  C   C37       1.0  0.2070770053420928  0.3734407727886123  0.8992439503688983  1.0000
  C   C38       1.0  0.5803297052100758  0.6267671921501261  0.39924156783121845  1.0000
  C   C39       1.0  0.08012277498295355  0.603900192550505  0.8891500905850619  1.0000
  C   C40       1.0  0.6838122444291342  0.396303338131645  0.3892655571063131  1.0000
  N   N1        1.0  0.7669173664374825  0.8445397384502729  0.04557322164868788  1.0000
  N   N2        1.0  0.6114152716644341  0.15559259421970495  0.5454672195856886  1.0000
  N   N3        1.0  0.7031270888514026  0.9847682363068628  0.021036526760148895  1.0000
  N   N4        1.0  0.6875059555822958  0.015401334905448  0.5210028302537211  1.0000
  N   N5        1.0  0.9239964519347121  0.9516766065948592  0.12027877106437049  1.0000
  N   N6        1.0  0.875716837055812  0.04825047022945481  0.6201541048690941  1.0000
  N   N7        1.0  0.9381732722966802  0.5609801402445599  0.9425741085813044  1.0000
  N   N8        1.0  0.49898249720255444  0.4391353596047767  0.4426498849761487  1.0000
  N   N9        1.0  0.016362813379544032  0.4158233964224821  0.9491456332824126  1.0000
  N   N10       1.0  0.4320499645709575  0.5842851165360942  0.44916944350420346  1.0000
  N   N11       1.0  0.25222850798424173  0.48959575098479763  0.8601573861637775  1.0000
  N   N12       1.0  0.7416086338689354  0.510655329657027  0.3602141318843266  1.0000
  O   O1        1.0  0.21325200036486797  0.19811738042760402  0.4346681638830674  1.0000
  O   O2        1.0  0.4118017910235991  0.8017615420426271  0.9345411742954468  1.0000
  O   O3        1.0  0.5012163485626785  0.18628777292386903  0.3322355059792271  1.0000
  O   O4        1.0  0.6878552172982636  0.8139386026306852  0.8321636530371919  1.0000
  O   O5        1.0  0.15435815380630658  0.3666129516882891  0.6110654756893721  1.0000
  O   O6        1.0  0.5209449533084866  0.6331244014241834  0.11089954611174588  1.0000
  O   O7        1.0  0.9293990619878584  0.506229644405579  0.5225283669292224  1.0000
  O   O8        1.0  0.4359498895843927  0.49313682865991393  0.0225736926578577  1.0000
