data_image0
_chemical_formula_structural       Cu6H8C16I2N16
_chemical_formula_sum              "Cu6 H8 C16 I2 N16"
_cell_length_a       7.9035218069461335
_cell_length_b       9.344744676893018
_cell_length_c       9.34477185391528
_cell_angle_alpha    85.39838428158365
_cell_angle_beta     64.38631488594437
_cell_angle_gamma    64.3866428329294

_space_group_name_H-M_alt    "P 1"
_space_group_IT_number       1

loop_
  _space_group_symop_operation_xyz
  'x, y, z'

loop_
  _atom_site_type_symbol
  _atom_site_label
  _atom_site_symmetry_multiplicity
  _atom_site_fract_x
  _atom_site_fract_y
  _atom_site_fract_z
  _atom_site_occupancy
  Cu  Cu1       1.0  0.5000001776530569  0.6888802914760815  0.3111118549968096  1.0000
  Cu  Cu2       1.0  0.5000002006418572  0.31111901918279716  0.6888872298163234  1.0000
  Cu  Cu3       1.0  0.9999970136811532  0.6346384271590394  0.3653662730315331  1.0000
  Cu  Cu4       1.0  1.2898040964393117e-06  0.3653620845295293  0.6346356210890816  1.0000
  Cu  Cu5       1.0  0.5991732603303178  0.29765318899936927  0.2976535341406503  1.0000
  Cu  Cu6       1.0  0.40082571061577016  0.7023461290033167  0.702346070024518  1.0000
  H   H1        1.0  0.28106866102181993  0.2985386080960025  0.2985420344330619  1.0000
  H   H2        1.0  0.7189303583143813  0.701463094992519  0.7014584283660877  1.0000
  H   H3        1.0  0.20667235498289235  0.8837323711478787  0.22206852830387183  1.0000
  H   H4        1.0  0.7933345994163901  0.7779165310746663  0.11626121710907719  1.0000
  H   H5        1.0  0.793328763200023  0.1162681258530682  0.7779323271126581  1.0000
  H   H6        1.0  0.20666645435171196  0.22208158421236854  0.8837366450568919  1.0000
  H   H7        1.0  0.18588223281902566  0.9715253918753248  0.9715145116505963  1.0000
  H   H8        1.0  0.8141181615005949  0.0284739154116238  0.02848670777911625  1.0000
  C   C1        1.0  0.2580170308542905  0.03610338284971698  0.42583256698708977  1.0000
  C   C2        1.0  0.7419912484707254  0.5741541940336743  0.9638878883902887  1.0000
  C   C3        1.0  0.7419833554529801  0.9638959261231932  0.574167585134326  1.0000
  C   C4        1.0  0.25800563164099094  0.4258463283706249  0.03611239046578871  1.0000
  C   C5        1.0  0.24536032039787872  0.08584706963161182  0.27747817255141877  1.0000
  C   C6        1.0  0.7546521985235017  0.7225148680634703  0.9141571647696191  1.0000
  C   C7        1.0  0.754644384736118  0.9141569874815474  0.7225221387818332  1.0000
  C   C8        1.0  0.24534756871304356  0.27748801968115805  0.08584613594121744  1.0000
  C   C9        1.0  0.2578402799066097  0.22770275372581486  0.22770458890956038  1.0000
  C   C10       1.0  0.7421656390157665  0.7722917557001878  0.7722917685357373  1.0000
  C   C11       1.0  0.22076206389206768  0.9930091241841904  0.18376746531144747  1.0000
  C   C12       1.0  0.7792412254719497  0.8162144615993441  0.0069861670756594186  1.0000
  C   C13       1.0  0.7792368910293207  0.006990197190418703  0.816230004237141  1.0000
  C   C14       1.0  0.22075554183484067  0.18378129400521462  0.9930102598958822  1.0000
  C   C15       1.0  0.20859992685988263  0.04243183631162849  0.0424244141883463  1.0000
  C   C16       1.0  0.7913963421934587  0.9575722631784199  0.9575800805654421  1.0000
  I   I1        1.0  0.23967998465863627  0.522339888619463  0.5223393316484459  1.0000
  I   I2        1.0  0.7603197181630964  0.4776606174112529  0.4776609758118368  1.0000
  N   N1        1.0  0.3489225534537824  0.8829863084247903  0.450128698465498  1.0000
  N   N2        1.0  0.6510855080334895  0.5498659770150027  0.11700583970232963  1.0000
  N   N3        1.0  0.6510771413556002  0.11701419929189427  0.5498705416864947  1.0000
  N   N4        1.0  0.34891210395387184  0.45013573341732627  0.882995142448855  1.0000
  N   N5        1.0  0.32617233541357404  0.8898083104008307  0.6020496897288862  1.0000
  N   N6        1.0  0.6738311277001473  0.39794693907386847  0.11018671058091196  1.0000
  N   N7        1.0  0.6738301740934746  0.11019218262823931  0.3979485117190292  1.0000
  N   N8        1.0  0.3261692425824236  0.602052373270979  0.8898113069239242  1.0000
  N   N9        1.0  0.22803083869103355  0.039446475074889485  0.6681305120352474  1.0000
  N   N10       1.0  0.7719739977222134  0.33186027008941466  0.9605522775708263  1.0000
  N   N11       1.0  0.7719709469527206  0.960552828240182  0.3318680534258433  1.0000
  N   N12       1.0  0.22802637256035738  0.668139042255426  0.03944573993401698  1.0000
  N   N13       1.0  0.18303228038313077  0.13385994681860316  0.5603962628953736  1.0000
  N   N14       1.0  0.8169804638596788  0.4395908818251185  0.8661352116720732  1.0000
  N   N15       1.0  0.816968829787435  0.8661405518683052  0.43960352521286655  1.0000
  N   N16       1.0  0.1830171077499261  0.5604084418354132  0.1338659791534268  1.0000
