data_image0
_chemical_formula_structural       Zn2H14C40Br4N2O14
_chemical_formula_sum              "Zn2 H14 C40 Br4 N2 O14"
_cell_length_a       12.253442516024352
_cell_length_b       12.990675347155735
_cell_length_c       15.950594341974641
_cell_angle_alpha    87.66497112826967
_cell_angle_beta     85.21810698468433
_cell_angle_gamma    86.93422724074685

_space_group_name_H-M_alt    "P 1"
_space_group_IT_number       1

loop_
  _space_group_symop_operation_xyz
  'x, y, z'

loop_
  _atom_site_type_symbol
  _atom_site_label
  _atom_site_symmetry_multiplicity
  _atom_site_fract_x
  _atom_site_fract_y
  _atom_site_fract_z
  _atom_site_occupancy
  Zn  Zn1       1.0  0.6212402309224458  0.5056663667439878  0.4971959511740636  1.0000
  Zn  Zn2       1.0  0.37875613114094625  0.49432422700719775  0.5028021472715309  1.0000
  H   H1        1.0  0.49430451933281455  0.6814583736052241  0.9555813838422438  1.0000
  H   H2        1.0  0.505706203415876  0.31855460669634533  0.0444132894320077  1.0000
  H   H3        1.0  0.3605685923668602  0.1754438401986889  0.5230467967386261  1.0000
  H   H4        1.0  0.6394134166687026  0.8245366866954882  0.47696812838686503  1.0000
  H   H5        1.0  0.7115179642021373  0.1814550153168852  0.5119156407481853  1.0000
  H   H6        1.0  0.28846576362217746  0.8185409585480699  0.4880886629642731  1.0000
  H   H7        1.0  0.00881330341542251  0.363613472069936  0.6391685688393308  1.0000
  H   H8        1.0  0.9911840415433701  0.6363748145301712  0.360825784049986  1.0000
  H   H9        1.0  0.2556579793618284  0.6374496634932286  0.034932454866030596  1.0000
  H   H10       1.0  0.7443481341052659  0.3625571362675615  0.9650658169597648  1.0000
  H   H11       1.0  0.2508305025876468  0.3885369516197911  0.024212627795463997  1.0000
  H   H12       1.0  0.7491693072824577  0.611483759367502  0.9757673866639393  1.0000
  H   H13       1.0  0.6952450985144978  0.6223783485276609  0.3571110369495472  1.0000
  H   H14       1.0  0.3047446679144059  0.3776261076230156  0.6428976625933701  1.0000
  C   C1        1.0  0.4754905306882479  0.6967418040311555  0.47545827082193165  1.0000
  C   C2        1.0  0.5244838029220491  0.3032464498787562  0.5245455693966576  1.0000
  C   C3        1.0  0.35265464310865724  0.9675931195141345  0.5010784077279453  1.0000
  C   C4        1.0  0.6473325637742774  0.0323989989972588  0.49892644335464803  1.0000
  C   C5        1.0  0.3609450409905578  0.863021095750419  0.4899261053984816  1.0000
  C   C6        1.0  0.6390379342588802  0.1369717748638521  0.5100883718017428  1.0000
  C   C7        1.0  0.5597295490785399  0.8657563649890747  0.48361402879181264  1.0000
  C   C8        1.0  0.44025488487269365  0.13422415862188328  0.5164038904435841  1.0000
  C   C9        1.0  0.5531504327431308  0.9730086428102065  0.49524271718225776  1.0000
  C   C10       1.0  0.44683957433917243  0.026975751006069994  0.5047697400190428  1.0000
  C   C11       1.0  0.042388196925521995  0.4125565180998193  0.5873626598776909  1.0000
  C   C12       1.0  0.9576092866478092  0.5874294564286942  0.4126305044468452  1.0000
  C   C13       1.0  0.15480662890744412  0.41637992342223373  0.5742248668986888  1.0000
  C   C14       1.0  0.8451930531415996  0.5836106804579088  0.4257686498020661  1.0000
  C   C15       1.0  0.14308087118023144  0.5240372480489555  0.4549239238968994  1.0000
  C   C16       1.0  0.8569162219440473  0.4759556669401731  0.5450702966903479  1.0000
  C   C17       1.0  0.025349402119047702  0.5286181200739292  0.4653334802744808  1.0000
  C   C18       1.0  0.9746469853389071  0.4713724779230901  0.5346621087394823  1.0000
  C   C19       1.0  0.5243786555600778  0.4650804959993734  0.3404412090711588  1.0000
  C   C20       1.0  0.4756396318619807  0.534927852432247  0.6595588146874647  1.0000
  C   C21       1.0  0.4966767760810812  0.599763958171735  0.975038099333588  1.0000
  C   C22       1.0  0.5033380054752926  0.40024979796289273  0.024955686733044  1.0000
  C   C23       1.0  0.4123002403070402  0.5494898956990681  0.04264358666871  1.0000
  C   C24       1.0  0.5877103731022473  0.450524623153008  0.9573535519364853  1.0000
  C   C25       1.0  0.5242928392344338  0.4646359958832917  0.24984451893469384  1.0000
  C   C26       1.0  0.4757179420645344  0.5353754373761034  0.7501527078718836  1.0000
  C   C27       1.0  0.5938514844623057  0.542221779381741  0.019734230920484205  1.0000
  C   C28       1.0  0.40615905135079095  0.4577942833281341  0.9802622362261104  1.0000
  C   C29       1.0  0.5094515102545644  0.49082640212335354  0.08677095042918379  1.0000
  C   C30       1.0  0.49056155981359967  0.5091881187527891  0.9132260454963868  1.0000
  C   C31       1.0  0.518380454966952  0.4772707835002664  0.17439024102016276  1.0000
  C   C32       1.0  0.4816326189817773  0.5227429596089619  0.8256105411031951  1.0000
  C   C33       1.0  0.5340893586784504  0.18841135364174016  0.5183661895187297  1.0000
  C   C34       1.0  0.4658899379831497  0.8115745773843057  0.48164495978652866  1.0000
  C   C35       1.0  0.31476207325482614  0.6076934533600493  0.0813415239461435  1.0000
  C   C36       1.0  0.6852457619296928  0.3923118049537777  0.9186566968605945  1.0000
  C   C37       1.0  0.3042185188764747  0.4067477933419212  0.9654282600566899  1.0000
  C   C38       1.0  0.6957963769554353  0.5932659818989379  0.034554233567618615  1.0000
  C   C39       1.0  0.7781137306571824  0.647164667006514  0.3653729743972605  1.0000
  C   C40       1.0  0.2218843721695549  0.3528243884820768  0.6346231909555584  1.0000
  Br  Br1       1.0  0.20945756628713502  0.03341347674566459  0.5129955805396946  1.0000
  Br  Br2       1.0  0.7905340019234618  0.9665886729286086  0.48700932588707246  1.0000
  Br  Br3       1.0  0.7903110731226234  0.4114206211998023  0.6425448217724963  1.0000
  Br  Br4       1.0  0.20967944598482555  0.5885730629743618  0.3574478751696759  1.0000
  N   N1        1.0  0.7946033390216414  0.5254329383762127  0.49060773916259137  1.0000
  N   N2        1.0  0.2053920743576256  0.4745607466617087  0.5093865544940642  1.0000
  O   O1        1.0  0.5721240022637987  0.6549373053102556  0.4674801975156909  1.0000
  O   O2        1.0  0.42784911682174714  0.34504634752059354  0.5325069314612277  1.0000
  O   O3        1.0  0.38677877946712164  0.6491743241692448  0.4805006336343851  1.0000
  O   O4        1.0  0.6131918031485455  0.35082007487523  0.5195170222948845  1.0000
  O   O5        1.0  0.6163942079262911  0.4740799121744033  0.3702687649241341  1.0000
  O   O6        1.0  0.38362981331964363  0.5258991339303734  0.6297274674428832  1.0000
  O   O7        1.0  0.4309473692603803  0.45922000646572053  0.3808992450815794  1.0000
  O   O8        1.0  0.5690639371179388  0.540796827255555  0.6190977798127051  1.0000
  O   O9        1.0  0.2977512895098543  0.6246661394871538  0.15611837064219  1.0000
  O   O10       1.0  0.7022531988819338  0.3753406610471756  0.8438787415875452  1.0000
  O   O11       1.0  0.2791617264471427  0.38398179436735785  0.8964278972159079  1.0000
  O   O12       1.0  0.7208779063312535  0.6160296943498124  0.10354884425785832  1.0000
  O   O13       1.0  0.8175994315452968  0.7213859167741175  0.326822051251149  1.0000
  O   O14       1.0  0.18240697840413841  0.2785885115734814  0.6731603031454084  1.0000
