data_image0
_chemical_formula_structural       U6H32C40N12O36
_chemical_formula_sum              "U6 H32 C40 N12 O36"
_cell_length_a       6.128377901
_cell_length_b       12.900491376637753
_cell_length_c       18.3478
_cell_angle_alpha    98.45211860076402
_cell_angle_beta     90.0
_cell_angle_gamma    90.0

_space_group_name_H-M_alt    "P 1"
_space_group_IT_number       1

loop_
  _space_group_symop_operation_xyz
  'x, y, z'

loop_
  _atom_site_type_symbol
  _atom_site_label
  _atom_site_symmetry_multiplicity
  _atom_site_fract_x
  _atom_site_fract_y
  _atom_site_fract_z
  _atom_site_occupancy
  U   U1        1.0  0.583660155718583  0.3778962795270218  0.93465692934965  1.0000
  U   U2        1.0  0.0836599844660952  0.12209746427197392  0.565347629087782  1.0000
  U   U3        1.0  0.4163303962674476  0.622092775422459  0.06535234950294473  1.0000
  U   U4        1.0  0.916338726285737  0.877899427434926  0.4346526492129925  1.0000
  U   U5        1.0  0.5000099617714469  0.500000796880677  0.4999971119701597  1.0000
  U   U6        1.0  3.263506315e-06  0.9999984590583894  2.075351922299365e-06  1.0000
  H   H1        1.0  0.152115292995866  0.0725566185686901  0.7822702615493782  1.0000
  H   H2        1.0  0.6521170960015183  0.4274457456634693  0.7177275574229895  1.0000
  H   H3        1.0  0.8478850495091237  0.9274457588684087  0.2177294936245247  1.0000
  H   H4        1.0  0.3478848782566288  0.5725550644221471  0.28226876562634834  1.0000
  H   H5        1.0  0.0353943577736331  0.8928080747498373  0.7695189027428314  1.0000
  H   H6        1.0  0.5353928972729634  0.6071943158922012  0.7304811535591896  1.0000
  H   H7        1.0  0.9646125117439935  0.1071943026872617  0.23048030740659436  1.0000
  H   H8        1.0  0.4646090769851838  0.3928064941934154  0.2695200747103925  1.0000
  H   H9        1.0  0.45358495264242993  0.0310280736511359  0.6923240886036269  1.0000
  H   H10       1.0  0.9535867556480824  0.4689711558780588  0.8076739514377352  1.0000
  H   H11       1.0  0.5464137581094022  0.9689719527587357  0.3076765136526163  1.0000
  H   H12       1.0  0.0464152186100648  0.5310280868560683  0.19232275465833482  1.0000
  H   H13       1.0  0.3661523548725397  0.8633520546370619  0.6130885371408112  1.0000
  H   H14       1.0  0.8661525261250346  0.6366456339505222  0.8869115782524873  1.0000
  H   H15       1.0  0.6338463558792853  0.1366464044213274  0.3869135382111182  1.0000
  H   H16       1.0  0.1338461846267904  0.36335204143212263  0.1130876909882161  1.0000
  H   H17       1.0  0.9458995665156492  0.7238703113813472  0.6897087070273287  1.0000
  H   H18       1.0  0.445897763509997  0.7761305119092086  0.8102928223703715  1.0000
  H   H19       1.0  0.0541040394956553  0.2761304987042692  0.3102919762177835  1.0000
  H   H20       1.0  0.5541025789949927  0.22386951450067022  0.1897094149592817  1.0000
  H   H21       1.0  0.8738560327890568  0.3412743284298331  0.5207380535610042  1.0000
  H   H22       1.0  0.3738574932897265  0.158726468450844  0.9792634186049298  1.0000
  H   H23       1.0  0.1261410462096109  0.6587280490072658  0.47926279166184566  1.0000
  H   H24       1.0  0.6261412174621057  0.8412719906075382  0.0207375666980525  1.0000
  H   H25       1.0  0.9550847050481224  0.4466395319353752  0.5658807047776193  1.0000
  H   H26       1.0  0.45508616554878495  0.0533620486210467  0.9341197583282367  1.0000
  H   H27       1.0  0.0449123739505524  0.5533636291774684  0.4341180413362055  1.0000
  H   H28       1.0  0.5449141769562047  0.9466364104373428  0.06588177199921573  1.0000
  H   H29       1.0  0.8425018958373158  0.5530548609351342  0.029461054056454793  1.0000
  H   H30       1.0  0.342501724584821  0.9469467460311594  0.4705394662811742  1.0000
  H   H31       1.0  0.1574968149145164  0.4469459491504821  0.9705401742131272  1.0000
  H   H32       1.0  0.6574920909075317  0.053055631405939614  0.5294591988437887  1.0000
  C   C1        1.0  0.9498467774074724  0.20543589369845716  0.8400907724780211  1.0000
  C   C2        1.0  0.4498482379081352  0.2945664705337094  0.6599081365432866  1.0000
  C   C3        1.0  0.0501519333443596  0.7945649163871593  0.1599099107670909  1.0000
  C   C4        1.0  0.550150472843697  0.7054359069033893  0.3400899835571991  1.0000
  C   C5        1.0  0.9985072883644291  0.11068871282063243  0.7978145888609802  1.0000
  C   C6        1.0  0.49850711711193435  0.3893120840600517  0.7021841581825896  1.0000
  C   C7        1.0  0.0014946858937179  0.8893128809407287  0.20218508532405374  1.0000
  C   C8        1.0  0.5014915936398907  0.61068794234982  0.2978142639757664  1.0000
  C   C9        1.0  0.0811731926516543  0.2884679059098332  0.8818293587383155  1.0000
  C   C10       1.0  0.5811701003978271  0.21153132361936144  0.6181697713520009  1.0000
  C   C11       1.0  0.9188271498533354  0.7115313368243009  0.118171707553536  1.0000
  C   C12       1.0  0.418828610353998  0.7884687027905102  0.3818291958308322  1.0000
  C   C13       1.0  0.890300841126276  0.8859023241117472  0.7348469341156303  1.0000
  C   C14       1.0  0.3902990381206237  0.6140992828545464  0.7651535862219987  1.0000
  C   C15       1.0  0.1097043966381861  0.1140984859738623  0.2651532041050046  1.0000
  C   C16       1.0  0.6097029361375235  0.3859023109068148  0.23484663298751232  1.0000
  C   C17       1.0  0.7503470044250448  0.9713754862593049  0.7342495884872307  1.0000
  C   C18       1.0  0.25034683317255  0.5286261207069884  0.7657492967769812  1.0000
  C   C19       1.0  0.24965496983310229  0.0286253238263043  0.2657500047089343  1.0000
  C   C20       1.0  0.7496535093324397  0.4713754730543727  0.2342492873591127  1.0000
  C   C21       1.0  0.5604778385875164  0.9638498481093338  0.6918194472003378  1.0000
  C   C22       1.0  0.0604760355818641  0.536150975181215  0.8081804471239523  1.0000
  C   C23       1.0  0.4395241356706308  0.036150178300538  0.3081817000803753  1.0000
  C   C24       1.0  0.9395243069231184  0.4638490512286566  0.1918179750344038  1.0000
  C   C25       1.0  0.6027957250151275  0.6857209762630847  0.5966971797633606  1.0000
  C   C26       1.0  0.1027988172689547  0.8142790633517194  0.9033042686454777  1.0000
  C   C27       1.0  0.3971980904772181  0.3142790501467871  0.40330560259076986  1.0000
  C   C28       1.0  0.8972031569891924  0.1857193957066698  0.0966972616819746  1.0000
  C   C29       1.0  0.6523161698869231  0.7840417185242148  0.6462808341393186  1.0000
  C   C30       1.0  0.1523143668812708  0.715956753739107  0.8537204522917821  1.0000
  C   C31       1.0  0.3476858043712241  0.2159567405341676  0.3537206961881338  1.0000
  C   C32       1.0  0.8476859756237117  0.2840409216435376  0.1462804520223315  1.0000
  C   C33       1.0  0.5119609219085604  0.8700093800649498  0.6474661352325342  1.0000
  C   C34       1.0  0.011960750656065501  0.6299898758741166  0.852534142138488  1.0000
  C   C35       1.0  0.4880377888432719  0.1299890789934395  0.3525353950949182  1.0000
  C   C36       1.0  0.9880395918489242  0.37000858318427293  0.14746520809107722  1.0000
  C   C37       1.0  0.8395647401509692  0.7918345901021979  0.6907132162906109  1.0000
  C   C38       1.0  0.3395629371453168  0.708166233188358  0.8092877680826192  1.0000
  C   C39       1.0  0.160437234107178  0.2081662199834184  0.3092874669545012  1.0000
  C   C40       1.0  0.6604374053596729  0.2918330095457762  0.190713298209225  1.0000
  N   N1        1.0  0.6352056062608042  0.13432358952218243  0.8047552190778262  1.0000
  N   N2        1.0  0.1352070667614669  0.3656772073584946  0.6952440729902207  1.0000
  N   N3        1.0  0.364793104491028  0.8656764368876895  0.19524483815394691  1.0000
  N   N4        1.0  0.8647932757435227  0.6343236027271146  0.3047549751814742  1.0000
  N   N5        1.0  0.8006392685410901  0.06932317245739482  0.777287042739637  1.0000
  N   N6        1.0  0.3006407290417528  0.4306791917747645  0.722711866281678  1.0000
  N   N7        1.0  0.1993610739638996  0.9306784213039594  0.222713176469874  1.0000
  N   N8        1.0  0.6993612452163943  0.5693231856623342  0.27728679884328505  1.0000
  N   N9        1.0  0.7277521184312477  0.2156581600764866  0.8429648478775249  1.0000
  N   N10       1.0  0.2277519471787528  0.2843426368041904  0.6570355342394691  1.0000
  N   N11       1.0  0.2722482240737421  0.7843418663333851  0.1570357543787253  1.0000
  N   N12       1.0  0.7722467635730723  0.7156573896056813  0.342965068016774  1.0000
  O   O1        1.0  0.9763643979956953  0.3528648926533151  0.9294975484292108  1.0000
  O   O2        1.0  0.4763609632368855  0.1471366879031066  0.5705023696521749  1.0000
  O   O3        1.0  0.0236359445092873  0.6471351337565636  0.07050359885150212  1.0000
  O   O4        1.0  0.5236344840086247  0.8528656895339921  0.4294968404972579  1.0000
  O   O5        1.0  0.7033737262345738  0.5135442810531075  0.020128707641411794  1.0000
  O   O6        1.0  0.2033719232289215  0.9864612442918955  0.4798689474937206  1.0000
  O   O7        1.0  0.2966249845172513  0.48645966373547384  0.9798684843878649  1.0000
  O   O8        1.0  0.7966235240165885  0.0135450515239128  0.5201284875021628  1.0000
  O   O9        1.0  0.6256957488496724  0.4534818048383614  0.8599516006129377  1.0000
  O   O10       1.0  0.1256890505845476  0.0465236940967628  0.6400383669478202  1.0000
  O   O11       1.0  0.3743094889147898  0.5465244909774469  0.1400398391137543  1.0000
  O   O12       1.0  0.8743096601672846  0.9534763323131088  0.3599567850637015  1.0000
  O   O13       1.0  0.2830422712210634  0.2949214756448129  0.8692026101748099  1.0000
  O   O14       1.0  0.7830391789672362  0.20507932123586414  0.63079450179535  1.0000
  O   O15       1.0  0.7169548077776113  0.7050793344408035  0.13079752804583222  1.0000
  O   O16       1.0  0.2169546365251165  0.7949214888497453  0.36920236627845787  1.0000
  O   O17       1.0  0.539325422386348  0.28803531690027034  0.0012409364706301006  1.0000
  O   O18       1.0  0.0393154606149011  0.21197096571059865  0.4987545623237182  1.0000
  O   O19       1.0  0.4606749201186346  0.7119725462670204  0.9987533903561572  1.0000
  O   O20       1.0  0.9606799866306089  0.7880345464294649  0.5012444267567134  1.0000
  O   O21       1.0  0.2995637719567554  0.46513036106674843  0.5653155909300907  1.0000
  O   O22       1.0  0.7995818924940039  0.0348649500837368  0.9346874944116551  1.0000
  O   O23       1.0  0.7004153577571586  0.5348633959371867  0.4346892686354593  1.0000
  O   O24       1.0  0.2004298722831024  0.9651288069202053  0.0653146400315308  1.0000
  O   O25       1.0  0.7028988860652845  0.6001091035092045  0.6030890611805262  1.0000
  O   O26       1.0  0.2028987148127896  0.8998870177268972  0.8969141623818616  1.0000
  O   O27       1.0  0.2971030881928627  0.3998893555491848  0.39691355919586613  1.0000
  O   O28       1.0  0.7971016276922002  0.1001083066285275  0.1030881340390692  1.0000
  O   O29       1.0  0.4566999694231129  0.6848746064617758  0.5466048065663003  1.0000
  O   O30       1.0  0.9566985089224502  0.8151230821258083  0.9533963988759381  1.0000
  O   O31       1.0  0.5433003730818697  0.3151238525966137  0.4533983588345691  1.0000
  O   O32       1.0  0.0433018335825395  0.1848714585538715  0.04660472650717651  1.0000
  O   O33       1.0  0.8228164257261595  0.4079761055303948  0.5485439289984413  1.0000
  O   O34       1.0  0.3228162544736648  0.09202234032305512  0.9514578452253631  1.0000
  O   O35       1.0  0.1771855485319875  0.5920247045552217  0.4514583893200879  1.0000
  O   O36       1.0  0.6771840880313249  0.907973767708107  0.04854235208654252  1.0000
