data_image0
_chemical_formula_structural       La2H20C18N6O16
_chemical_formula_sum              "La2 H20 C18 N6 O16"
_cell_length_a       8.765593892108448
_cell_length_b       9.261814254978491
_cell_length_c       9.693847835328285
_cell_angle_alpha    67.9781599316682
_cell_angle_beta     83.62052627430703
_cell_angle_gamma    79.85255708110151

_space_group_name_H-M_alt    "P 1"
_space_group_IT_number       1

loop_
  _space_group_symop_operation_xyz
  'x, y, z'

loop_
  _atom_site_type_symbol
  _atom_site_label
  _atom_site_symmetry_multiplicity
  _atom_site_fract_x
  _atom_site_fract_y
  _atom_site_fract_z
  _atom_site_occupancy
  La  La1       1.0  0.533914214248611  0.253737911602542  0.47766185666343125  1.0000
  La  La2       1.0  0.466086411779834  0.7462594596149896  0.5223325995994729  1.0000
  H   H1        1.0  0.8195963325883965  0.7434463939849607  0.26106745438023893  1.0000
  H   H2        1.0  0.18041201477742416  0.256553219394867  0.7389306084648339  1.0000
  H   H3        1.0  0.9160610781238532  0.6293002965592152  0.42279198354878395  1.0000
  H   H4        1.0  0.08395806906421652  0.37068739904679393  0.5771948624298773  1.0000
  H   H5        1.0  0.6095834104116877  0.1825915021954003  0.9778442762714548  1.0000
  H   H6        1.0  0.3904172652075104  0.817414097992291  0.022153415473567886  1.0000
  H   H7        1.0  0.7995846776228673  0.11690848081853739  0.044181843297373284  1.0000
  H   H8        1.0  0.20042190851557246  0.8830782327586348  0.9558199818098387  1.0000
  H   H9        1.0  0.8828860026539755  0.7404281136134259  0.8177684970837973  1.0000
  H   H10       1.0  0.11709643109612243  0.2595671880896404  0.18224909456061772  1.0000
  H   H11       1.0  0.01828990456701261  0.7703488151668623  0.664614845916276  1.0000
  H   H12       1.0  0.9817013368474578  0.22964048576787388  0.3354061065948174  1.0000
  H   H13       1.0  0.7759782193701311  0.21024157969753074  0.7219236003508129  1.0000
  H   H14       1.0  0.22401247613477446  0.7897524172789047  0.2780812796983413  1.0000
  H   H15       1.0  0.6323114765456309  0.3410180792854191  0.7341464680181673  1.0000
  H   H16       1.0  0.36767694236067433  0.6589759465158805  0.26585346422587725  1.0000
  H   H17       1.0  0.5105667750413261  0.460129107759279  0.15027986896183887  1.0000
  H   H18       1.0  0.48943881884659396  0.5399093190222999  0.8497045498369431  1.0000
  H   H19       1.0  0.3301791365716511  0.48183195989632577  0.1917031538891152  1.0000
  H   H20       1.0  0.6698239906501442  0.5181641917634962  0.8082811813237926  1.0000
  C   C1        1.0  0.7583599747205838  0.5110910987664494  0.3643015899360976  1.0000
  C   C2        1.0  0.24165207167663988  0.48890726934430256  0.6356759291597669  1.0000
  C   C3        1.0  0.8781766602394541  0.6240670122790348  0.3203248657028936  1.0000
  C   C4        1.0  0.12183090513610745  0.37593025167387134  0.6796607042281267  1.0000
  C   C5        1.0  0.011356722581631121  0.5867353295631259  0.23107298765692977  1.0000
  C   C6        1.0  0.9886414558782878  0.4132726375272212  0.7689003710424701  1.0000
  C   C7        1.0  0.615134128631155  0.0678333456947371  0.21581810843158422  1.0000
  C   C8        1.0  0.3848654130300417  0.9321805064627354  0.7841901463103298  1.0000
  C   C9        1.0  0.6822823767070004  0.0849011968825621  0.05769722124210121  1.0000
  C   C10       1.0  0.31771689357204735  0.9150973781243791  0.9423082823811555  1.0000
  C   C11       1.0  0.6877217194336964  0.9438802651179329  0.02455344446022428  1.0000
  C   C12       1.0  0.3122681305880093  0.0561290193538539  0.9754470700283946  1.0000
  C   C13       1.0  0.7787624208532903  0.8741918719820345  0.6077215342526903  1.0000
  C   C14       1.0  0.22123212917812654  0.12583380374118747  0.3922850295289777  1.0000
  C   C15       1.0  0.9153258659295959  0.828564545705177  0.7102290745188711  1.0000
  C   C16       1.0  0.08466605672099799  0.1714282718875495  0.2897926148297358  1.0000
  C   C17       1.0  0.9527261866054956  0.9614679953328744  0.7360899865180601  1.0000
  C   C18       1.0  0.047279262771589003  0.038535209127296396  0.2639369860777023  1.0000
  N   N1        1.0  0.11963390488691773  0.5566179972377724  0.16024952079921218  1.0000
  N   N2        1.0  0.8803705078684845  0.4433863504495291  0.8397193733714802  1.0000
  N   N3        1.0  0.6899091868283093  0.8288471444717016  0.0011754661464920817  1.0000
  N   N4        1.0  0.3100672304981984  0.17114234879618095  0.9988190001361305  1.0000
  N   N5        1.0  0.9755565790186013  0.0713368031437795  0.7577346510517771  1.0000
  N   N6        1.0  0.02444376206742763  0.9286441453861157  0.24229357164438892  1.0000
  O   O1        1.0  0.7295612275936918  0.7608246465183939  0.5928981410642465  1.0000
  O   O2        1.0  0.2704220389681354  0.23919061983991696  0.40711530937235807  1.0000
  O   O3        1.0  0.725870914723181  0.0187619690848493  0.5473307253380854  1.0000
  O   O4        1.0  0.2741518401537775  0.9812409753489817  0.452683316981215  1.0000
  O   O5        1.0  0.6311116756566406  0.5550796515896792  0.4243168914121541  1.0000
  O   O6        1.0  0.36889875033188707  0.4449128802653419  0.575681444960786  1.0000
  O   O7        1.0  0.592567958039453  0.19341466497746038  0.243393073203606  1.0000
  O   O8        1.0  0.40743158323463285  0.8065733239993235  0.7566069138871042  1.0000
  O   O9        1.0  0.7853220706587578  0.3817974439246257  0.3444161693640027  1.0000
  O   O10       1.0  0.21468878266351518  0.6182009489935749  0.6555707407029274  1.0000
  O   O11       1.0  0.5886443074376615  0.9335343172874815  0.30399268156674003  1.0000
  O   O12       1.0  0.4113617220342931  0.06644770788106771  0.6960150041387934  1.0000
  O   O13       1.0  0.6693702932756408  0.25728678159882185  0.693387476255019  1.0000
  O   O14       1.0  0.3306298875973823  0.7427141184293474  0.306602663622499  1.0000
  O   O15       1.0  0.43317874020424096  0.49185406675915977  0.21799163144329012  1.0000
  O   O16       1.0  0.5668152622997765  0.5081410555669237  0.7820104618292093  1.0000
