data_image0
_chemical_formula_structural       CuH12C10N4Cl2O4
_chemical_formula_sum              "Cu1 H12 C10 N4 Cl2 O4"
_cell_length_a       5.099725151577603
_cell_length_b       7.385902783634004
_cell_length_c       9.922486504384661
_cell_angle_alpha    73.09531825340201
_cell_angle_beta     83.62390980586562
_cell_angle_gamma    77.07330085195146

_space_group_name_H-M_alt    "P 1"
_space_group_IT_number       1

loop_
  _space_group_symop_operation_xyz
  'x, y, z'

loop_
  _atom_site_type_symbol
  _atom_site_label
  _atom_site_symmetry_multiplicity
  _atom_site_fract_x
  _atom_site_fract_y
  _atom_site_fract_z
  _atom_site_occupancy
  Cu  Cu1       1.0  0.9999974639030855  6.861954919950144e-08  6.016697326719012e-07  1.0000
  H   H1        1.0  0.3504317353292734  0.27344603175322396  0.017004171462261287  1.0000
  H   H2        1.0  0.6495671244282306  0.7265555955131333  0.9829966521567142  1.0000
  H   H3        1.0  0.6768839872645955  0.142402437476612  0.260758460197529  1.0000
  H   H4        1.0  0.32311684560073667  0.8575991776366083  0.7392402369599079  1.0000
  H   H5        1.0  0.8166977047291013  0.42815288353979497  0.34691511005225095  1.0000
  H   H6        1.0  0.18329996964542525  0.571845859480966  0.6530854018789967  1.0000
  H   H7        1.0  0.2604383614661431  0.5145504914357986  0.17156553751279796  1.0000
  H   H8        1.0  0.7395604972737289  0.48545113344992796  0.8284342788693734  1.0000
  H   H9        1.0  0.7261670830480041  0.08392975743024782  0.6606481834217417  1.0000
  H   H10       1.0  0.2738329608408563  0.9160675311896044  0.33935150106532314  1.0000
  H   H11       1.0  0.6719037328168939  0.3372169996533287  0.6357251324227275  1.0000
  H   H12       1.0  0.3280923628210459  0.6627803085115147  0.36427679051381995  1.0000
  C   C1        1.0  0.8391982401444339  0.21903237596396252  0.22074100720713824  1.0000
  C   C2        1.0  0.16079864243470612  0.7809692539329944  0.7792579139261661  1.0000
  C   C3        1.0  0.9130635851169585  0.36444574358028353  0.26396625629381276  1.0000
  C   C4        1.0  0.08693290309093987  0.6355573333257212  0.7360333802957298  1.0000
  C   C5        1.0  0.13889992971800785  0.40831328538918404  0.17847537056820068  1.0000
  C   C6        1.0  0.8611012995538375  0.5916868874762643  0.8215246256066063  1.0000
  C   C7        1.0  0.4344296349650491  0.1874440515115978  0.8083196926011311  1.0000
  C   C8        1.0  0.5655704089238115  0.8125532371082543  0.19167999188594106  1.0000
  C   C9        1.0  0.571636856485675  0.21411489461225847  0.6609302087788718  1.0000
  C   C10       1.0  0.4283651635639175  0.7858823889963561  0.3390703709570672  1.0000
  N   N1        1.0  0.009444521900391604  0.17696936632528804  0.11509577880973859  1.0000
  N   N2        1.0  0.9905582850904082  0.8230322390154471  0.8849017991229571  1.0000
  N   N3        1.0  0.18988945157999387  0.2934006121977859  0.0912991604674573  1.0000
  N   N4        1.0  0.8101137528349514  0.706599553275794  0.9087007237194199  1.0000
  Cl  Cl1       1.0  0.34983314180946934  0.25309255701830585  0.5234276119213277  1.0000
  Cl  Cl2       1.0  0.6501688782401234  0.7469047265903086  0.47657296781461156  1.0000
  O   O1        1.0  0.2062286464635505  0.1390911316968015  0.8283505134954081  1.0000
  O   O2        1.0  0.7937706066475627  0.860909046179877  0.171648587430532  1.0000
  O   O3        1.0  0.5675093658500076  0.21390218107796952  0.8990397844571656  1.0000
  O   O4        1.0  0.43249067803885316  0.7860951075418826  0.10095990002989909  1.0000
