data_image0
_chemical_formula_structural       Zn2H20C19N2O10
_chemical_formula_sum              "Zn2 H20 C19 N2 O10"
_cell_length_a       9.649249749814055
_cell_length_b       11.16475770240708
_cell_length_c       10.907655027521182
_cell_angle_alpha    88.03736398410558
_cell_angle_beta     91.87670681865211
_cell_angle_gamma    79.90358404352096

_space_group_name_H-M_alt    "P 1"
_space_group_IT_number       1

loop_
  _space_group_symop_operation_xyz
  'x, y, z'

loop_
  _atom_site_type_symbol
  _atom_site_label
  _atom_site_symmetry_multiplicity
  _atom_site_fract_x
  _atom_site_fract_y
  _atom_site_fract_z
  _atom_site_occupancy
  Zn  Zn1       1.0  0.6449895137443207  0.46922646635486126  0.48504307419509707  1.0000
  Zn  Zn2       1.0  0.3530353375797474  0.5183149597618311  0.47244304209930005  1.0000
  H   H1        1.0  0.7347264938434748  0.43966528556544654  0.10717437683197058  1.0000
  H   H2        1.0  0.3200633659096609  0.6272072525214796  0.851357618801529  1.0000
  H   H3        1.0  0.3673380111446107  0.36576126554759736  0.09892270798997058  1.0000
  H   H4        1.0  0.3321891100685689  0.40100080361565205  0.8871178116562246  1.0000
  H   H5        1.0  0.5931915257148718  0.07194720757475888  0.43171519609413156  1.0000
  H   H6        1.0  0.2788902355195546  0.9193847910268927  0.45272768140697633  1.0000
  H   H7        1.0  0.5963430169326641  0.8829688215683617  0.5239712056288893  1.0000
  H   H8        1.0  0.8868597753733171  0.4768615914610663  0.6699496156351684  1.0000
  H   H9        1.0  0.9120055479008757  0.43594131970683486  0.40727737958498267  1.0000
  H   H10       1.0  0.16072380433433148  0.4344236950489915  0.6492292482977148  1.0000
  H   H11       1.0  0.6805012135822963  0.5957284127114021  0.07011151405357197  1.0000
  H   H12       1.0  0.06493825442500878  0.5706971585746743  0.4194411757485668  1.0000
  H   H13       1.0  0.717510011470452  0.5428993049636048  0.8660486198327956  1.0000
  H   H14       1.0  0.7204240760441252  0.3869559250314437  0.9005209336084545  1.0000
  H   H15       1.0  0.5474863158703798  0.30232117694836796  0.0871950645609729  1.0000
  H   H16       1.0  0.4935669087868817  0.2980829997758292  0.8762020743354668  1.0000
  H   H17       1.0  0.4298466798277047  0.6923639601702261  0.07689314412093748  1.0000
  H   H18       1.0  0.477722834199021  0.6868603032707626  0.8711873473912487  1.0000
  H   H19       1.0  0.25187794264603264  0.20370384715282336  0.6036724411135308  1.0000
  H   H20       1.0  0.26057138323726997  0.5775528569624342  0.14765943541226528  1.0000
  C   C1        1.0  0.49189154982517636  0.7282361371302883  0.48838883092406593  1.0000
  C   C2        1.0  0.5115216950653405  0.49009950336164815  0.859463448141774  1.0000
  C   C3        1.0  0.44480198231075  0.38471675401282107  0.9143221373144993  1.0000
  C   C4        1.0  0.4243375755921548  0.6112007021277749  0.8983077619955321  1.0000
  C   C5        1.0  0.3811881626297193  0.0767381234496156  0.4823946642321528  1.0000
  C   C6        1.0  0.49585281767680556  0.12745796390799313  0.46007606958572456  1.0000
  C   C7        1.0  0.379950822072182  0.9468613380142654  0.47435519018446815  1.0000
  C   C8        1.0  0.494638740835832  0.8600014634297538  0.4968320990654431  1.0000
  C   C9        1.0  0.9364957819728943  0.46753744705969064  0.5807932470518649  1.0000
  C   C10       1.0  0.08760628880098409  0.47525317498865866  0.5739189601251409  1.0000
  C   C11       1.0  0.5038191169784129  0.5025426607793264  0.23798000036903486  1.0000
  C   C12       1.0  0.49671538162901635  0.2591385873802138  0.4684246151365342  1.0000
  C   C13       1.0  0.5101131891823699  0.4837014653483607  0.7199600291565103  1.0000
  C   C14       1.0  0.6561408357222476  0.5049356682868335  0.052914358634666286  1.0000
  C   C15       1.0  0.6620970980865836  0.4788605978779756  0.914975448291116  1.0000
  C   C16       1.0  0.4648007905089315  0.37905770883510564  0.05572795413749529  1.0000
  C   C17       1.0  0.4044323425893452  0.6081281047220557  0.03800908169733929  1.0000
  C   C18       1.0  0.5086245447603304  0.498266722316174  0.09863656572547089  1.0000
  C   C19       1.0  0.2453185602499701  0.15377499146348583  0.5176660875893261  1.0000
  N   N1        1.0  0.8599722971602191  0.4496165194601715  0.4877377583072187  1.0000
  N   N2        1.0  0.13827423267827746  0.5295352493230894  0.4852111023524086  1.0000
  O   O1        1.0  0.6105097465598064  0.6573695946766662  0.5053365719009972  1.0000
  O   O2        1.0  0.3735503300794889  0.6956329872440535  0.4655758427570971  1.0000
  O   O3        1.0  0.6186473138967871  0.4983826665491123  0.2992813540981912  1.0000
  O   O4        1.0  0.3823159861381313  0.5095504407554473  0.28469857117013925  1.0000
  O   O5        1.0  0.6157905491185217  0.292653236458058  0.4629815746275696  1.0000
  O   O6        1.0  0.37786498547410474  0.32905759012713537  0.47971160334461144  1.0000
  O   O7        1.0  0.6280839245409594  0.4532110387136683  0.6700684265904824  1.0000
  O   O8        1.0  0.3909230584194176  0.5082038670540499  0.6621450465080371  1.0000
  O   O9        1.0  0.13295585530965326  0.15506988747895176  0.46185967608406725  1.0000
  O   O10       1.0  0.2607646302180839  0.6005741650573811  0.05978010405063118  1.0000
