data_image0
_chemical_formula_structural       Cd8H40C24S8N32Cl8
_chemical_formula_sum              "Cd8 H40 C24 S8 N32 Cl8"
_cell_length_a       8.644887054
_cell_length_b       10.942352308540231
_cell_length_c       17.1947
_cell_angle_alpha    104.93751107550857
_cell_angle_beta     90.0
_cell_angle_gamma    90.0

_space_group_name_H-M_alt    "P 1"
_space_group_IT_number       1

loop_
  _space_group_symop_operation_xyz
  'x, y, z'

loop_
  _atom_site_type_symbol
  _atom_site_label
  _atom_site_symmetry_multiplicity
  _atom_site_fract_x
  _atom_site_fract_y
  _atom_site_fract_z
  _atom_site_occupancy
  Cd  Cd1       1.0  0.5458266800393545  0.16157735239710996  0.8294805153376997  1.0000
  Cd  Cd2       1.0  0.0458270880261722  0.3384224966936955  0.17052062305677398  1.0000
  Cd  Cd3       1.0  0.454172503987003  0.8384213999418576  0.1705192800002351  1.0000
  Cd  Cd4       1.0  0.9541720960001783  0.6615790931732021  0.829480219314128  1.0000
  Cd  Cd5       1.0  0.4561887246606915  0.2646751460307328  0.6297528965255808  1.0000
  Cd  Cd6       1.0  0.9561871599207592  0.23532564890271598  0.3702466522980359  1.0000
  Cd  Cd7       1.0  0.5438116161187735  0.7353273896788011  0.3702481009981255  1.0000
  Cd  Cd8       1.0  0.0438120241055984  0.7646759409641817  0.629754190072866  1.0000
  H   H1        1.0  0.264719479352955  0.054681054720113295  0.5122387244733203  1.0000
  H   H2        1.0  0.7647236983785817  0.445317848528056  0.48775993247014066  1.0000
  H   H3        1.0  0.7352797046733954  0.9453195893041411  0.4877602180211156  1.0000
  H   H4        1.0  0.2352754856477759  0.5546837413388417  0.5122426546244299  1.0000
  H   H5        1.0  0.1591229580453017  0.9194952476964602  0.5131791491472768  1.0000
  H   H6        1.0  0.659122550058477  0.5805080829465225  0.4868237234982686  1.0000
  H   H7        1.0  0.8408750692279412  0.08050539632779419  0.4868197933471521  1.0000
  H   H8        1.0  0.3408766339678806  0.41949634444829786  0.513179329054715  1.0000
  H   H9        1.0  0.7762912294955697  0.3591402338864782  0.9444344232868788  1.0000
  H   H10       1.0  0.2762916374823945  0.1408548859911249  0.055562449896257186  1.0000
  H   H11       1.0  0.22371026803701  0.64085662676721  0.05556506174545458  1.0000
  H   H12       1.0  0.7237075465439631  0.859141974662563  0.9444381982851836  1.0000
  H   H13       1.0  0.8543176971389954  0.5055954541507289  0.946868064819938  1.0000
  H   H14       1.0  0.35431694837270555  0.9944040931216945  0.053130116192505655  1.0000
  H   H15       1.0  0.1456861138998065  0.494404244030882  0.05313304881991599  1.0000
  H   H16       1.0  0.6456845491598742  0.005593713374644  0.946868942418071  1.0000
  H   H17       1.0  0.5375073116600149  0.7277738903534896  0.6544150188241389  1.0000
  H   H18       1.0  0.0375077196468396  0.7722294402894931  0.3455861090977379  1.0000
  H   H19       1.0  0.4624976561319016  0.272227699513401  0.34558524197220925  1.0000
  H   H20       1.0  0.9624960913919622  0.22776931204948167  0.6544148493893047  1.0000
  H   H21       1.0  0.4392249402776258  0.6349053848745426  0.7107392820090935  1.0000
  H   H22       1.0  0.939224532290808  0.865095108240517  0.2892607988798233  1.0000
  H   H23       1.0  0.5607777140080614  0.3650952591497116  0.2892602420598962  1.0000
  H   H24       1.0  0.0607758084886569  0.1349036440984577  0.7107395780326726  1.0000
  H   H25       1.0  0.5985885029701592  0.7339370009975851  0.7553556239733011  1.0000
  H   H26       1.0  0.0985865974507618  0.7660625462748385  0.244644883337365  1.0000
  H   H27       1.0  0.401414151315528  0.2660636430266691  0.2446444816702424  1.0000
  H   H28       1.0  0.9014160568349254  0.23393526022149297  0.7553553384223264  1.0000
  H   H29       1.0  0.1289987935104406  0.9709992169878561  0.9319715698132144  1.0000
  H   H30       1.0  0.6289983855236159  0.52900222196984  0.06802808465394608  1.0000
  H   H31       1.0  0.8710003905159169  0.0289881852394274  0.068026945265629  1.0000
  H   H32       1.0  0.3709996417496271  0.4710107180087347  0.9319728748269328  1.0000
  H   H33       1.0  0.2179357565034081  0.10179631416058749  0.9050557795058225  1.0000
  H   H34       1.0  0.7179388187759201  0.3982063724581408  0.0949458243470644  1.0000
  H   H35       1.0  0.7820564870042757  0.8981958172799054  0.09494525606070431  1.0000
  H   H36       1.0  0.2820534247317639  0.6018018383072387  0.9050537777952457  1.0000
  H   H37       1.0  0.0512094602549098  0.025961488790521497  0.8507305121242581  1.0000
  H   H38       1.0  0.5512078955149775  0.4740364686150044  0.1492674080918377  1.0000
  H   H39       1.0  0.9487874102652185  0.9740287509646919  0.14926846841299826  1.0000
  H   H40       1.0  0.4487866614989358  0.525971742150368  0.8507327756250262  1.0000
  C   C1        1.0  0.6917372040428305  0.47023039783049814  0.7321693923653712  1.0000
  C   C2        1.0  0.1917376120296481  0.0297694512603073  0.2678276750072257  1.0000
  C   C3        1.0  0.30826429348974926  0.5297702461937489  0.2678318764272873  1.0000
  C   C4        1.0  0.808262728749817  0.9702302469213108  0.732171112334406  1.0000
  C   C5        1.0  0.2651740833258529  0.0042875046884063  0.6181790414618432  1.0000
  C   C6        1.0  0.765171361832806  0.49571234440239914  0.3818244232308601  1.0000
  C   C7        1.0  0.7348285709598342  0.9957140851784841  0.381820056185397  1.0000
  C   C8        1.0  0.234826665440437  0.5042864079365756  0.6181829325762963  1.0000
  C   C9        1.0  0.2956140414602118  0.9646734214096353  0.7336498610322478  1.0000
  C   C10       1.0  0.7956101632140502  0.5353280175480606  0.2663521197331349  1.0000
  C   C11       1.0  0.7043851425661458  0.0353281684572551  0.2663492366149924  1.0000
  C   C12       1.0  0.2043901775654149  0.46467168063355047  0.7336484123321583  1.0000
  C   C13       1.0  0.7324965566866481  0.4260813009099564  0.8454452752356616  1.0000
  C   C14       1.0  0.23249233766102856  0.07391665649556958  0.1545584607259869  1.0000
  C   C15       1.0  0.2675084111052612  0.5739174514290184  0.1545591726987183  1.0000
  C   C16       1.0  0.76750106259977  0.9260830416860415  0.8454449792120826  1.0000
  C   C17       1.0  0.5510991607224796  0.6737728964917408  0.6996177241201521  1.0000
  C   C18       1.0  0.05110072546241179  0.8262304341512348  0.3003834038017317  1.0000
  C   C19       1.0  0.4489046503163223  0.3262286933751497  0.3003825366761959  1.0000
  C   C20       1.0  0.9489007720701679  0.17376831818773297  0.6996169731107643  1.0000
  C   C21       1.0  0.1574491362926693  0.0119251840087031  0.8818185660120575  1.0000
  C   C22       1.0  0.6574498850589592  0.4880746650821024  0.11818140923330839  1.0000
  C   C23       1.0  0.8425465774743515  0.9880660015891465  0.11818115125255699  1.0000
  C   C24       1.0  0.342544671954947  0.5119325998406339  0.8818186193307511  1.0000
  S   S1        1.0  0.28175498242895  0.8970078389237058  0.8150775779836009  1.0000
  S   S2        1.0  0.7817522609359031  0.6029936000339973  0.18492498435633556  1.0000
  S   S3        1.0  0.7182465151036297  0.1029918592579051  0.1849194646343619  1.0000
  S   S4        1.0  0.2182457663373398  0.3970108273608162  0.8150774866220871  1.0000
  S   S5        1.0  0.6854317428309571  0.5473667026735995  0.6553827997518481  1.0000
  S   S6        1.0  0.185434464324004  0.9526366279693832  0.34461542029725917  1.0000
  S   S7        1.0  0.314568597948508  0.4526339413506547  0.3446184690408103  1.0000
  S   S8        1.0  0.8145658764554611  0.047363070212235  0.6553833670443723  1.0000
  N   N1        1.0  0.6476209538688522  0.3304726893021055  0.7997032834849094  1.0000
  N   N2        1.0  0.14762483211501376  0.16952621394606376  0.20029304716032928  1.0000
  N   N3        1.0  0.3523759166512761  0.6695260630368693  0.2002953487039179  1.0000
  N   N4        1.0  0.8523778221706806  0.8304744300781906  0.7997064769086605  1.0000
  N   N5        1.0  0.6220613371127541  0.3600718888871626  0.7274104443182807  1.0000
  N   N6        1.0  0.12206058834646429  0.1399279602036501  0.27258720462887  1.0000
  N   N7        1.0  0.377939003666711  0.6399287551370918  0.27258966132526297  1.0000
  N   N8        1.0  0.8779409091861083  0.8600689004500451  0.727412861978017  1.0000
  N   N9        1.0  0.22162464217661437  0.9221975201197522  0.6618198303749948  1.0000
  N   N10       1.0  0.7216219206835675  0.5778058105232304  0.3381830422705504  1.0000
  N   N11       1.0  0.7783710715904064  0.07780406974713829  0.33817810412313076  1.0000
  N   N12       1.0  0.278377263342783  0.4221929418157443  0.6618173346419453  1.0000
  N   N13       1.0  0.7635785127979986  0.5145213711470901  0.8045960905745771  1.0000
  N   N14       1.0  0.2635789207848234  0.9854791219679696  0.19540166401611708  1.0000
  N   N15       1.0  0.2364218279814665  0.4854783270345209  0.1954050230652769  1.0000
  N   N16       1.0  0.736423733500871  0.0145224678989209  0.8045962704820084  1.0000
  N   N17       1.0  0.3811871664043593  0.0662874897590413  0.7345983263514171  1.0000
  N   N18       1.0  0.8811844449113124  0.4337161427023304  0.2654022695051665  1.0000
  N   N19       1.0  0.6188108608688836  0.9337122084225767  0.2654010425647684  1.0000
  N   N20       1.0  0.11881473911503798  0.5662826096366445  0.7345975258327684  1.0000
  N   N21       1.0  0.3619145028103432  0.0933357517432469  0.661238002869311  1.0000
  N   N22       1.0  0.8619117813172963  0.4066650431902019  0.3387615459543056  1.0000
  N   N23       1.0  0.6380835244628997  0.9066648922810074  0.3387615211996788  1.0000
  N   N24       1.0  0.1380920297215056  0.5933337091487729  0.6612376678090754  1.0000
  N   N25       1.0  0.2096418366925263  0.0017233252905982  0.5446108825615852  1.0000
  N   N26       1.0  0.7096414287057016  0.4982765238002074  0.4553890926837881  1.0000
  N   N27       1.0  0.7903561905807166  0.9982773187336561  0.4553880599328508  1.0000
  N   N28       1.0  0.2903612255799857  0.5017260119093264  0.5446078338180342  1.0000
  N   N29       1.0  0.7765179531054611  0.43643165692258623  0.9220126942749545  1.0000
  N   N30       1.0  0.2765229881047304  0.0635681921682192  0.0779797205011974  1.0000
  N   N31       1.0  0.2234812309208891  0.5635680412590318  0.07798376676845459  1.0000
  N   N32       1.0  0.7234808229340715  0.9364333976986714  0.9220153061241517  1.0000
  Cl  Cl1       1.0  0.4540059315389158  0.2101908265798045  0.48237746734854176  1.0000
  Cl  Cl2       1.0  0.954011307317657  0.28980713082572856  0.5176187081438925  1.0000
  Cl  Cl3       1.0  0.5459932524874347  0.7898098174444499  0.5176226382950019  1.0000
  Cl  Cl4       1.0  0.04599250372114479  0.7101916215132461  0.4823787608958198  1.0000
  Cl  Cl5       1.0  0.5045525722608275  0.20828779118755136  0.9746729057390908  1.0000
  Cl  Cl6       1.0  0.0045541370007598  0.2917177329590999  0.02532741884854769  1.0000
  Cl  Cl7       1.0  0.4954489252717522  0.7917119069940667  0.02532646317709457  1.0000
  Cl  Cl8       1.0  0.9954473605318198  0.7082838569077976  0.974673423522354  1.0000
