data_image0
_chemical_formula_structural       Zn8C48Br24O26
_chemical_formula_sum              "Zn8 C48 Br24 O26"
_cell_length_a       18.68667674202832
_cell_length_b       18.686607415663527
_cell_length_c       18.686581758236958
_cell_angle_alpha    90.00028098205885
_cell_angle_beta     120.00011460530149
_cell_angle_gamma    119.99981875925936

_space_group_name_H-M_alt    "P 1"
_space_group_IT_number       1

loop_
  _space_group_symop_operation_xyz
  'x, y, z'

loop_
  _atom_site_type_symbol
  _atom_site_label
  _atom_site_symmetry_multiplicity
  _atom_site_fract_x
  _atom_site_fract_y
  _atom_site_fract_z
  _atom_site_occupancy
  Zn  Zn1       1.0  0.5857169820298295  0.6285748270890963  0.042861853243131375  1.0000
  Zn  Zn2       1.0  0.41428009601651183  0.45714071806641954  0.8714258723043711  1.0000
  Zn  Zn3       1.0  0.41428901260762513  0.45714324248862676  0.042857175804897375  1.0000
  Zn  Zn4       1.0  0.5857120442500371  0.457144136214559  0.042860423216232596  1.0000
  Zn  Zn5       1.0  0.41428025445231476  0.871424557892503  0.4571396729869474  1.0000
  Zn  Zn6       1.0  0.585711161838354  0.04285695076764281  0.45714304967331976  1.0000
  Zn  Zn7       1.0  0.585718904714575  0.042859145642260954  0.6285752776651702  1.0000
  Zn  Zn8       1.0  0.414286894349324  0.04285482119088606  0.4571407897625403  1.0000
  C   C1        1.0  0.49999970027604923  0.6371782935536173  0.8628200732806445  1.0000
  C   C2        1.0  0.22564590497264447  0.36282199085719924  0.8628316882948962  1.0000
  C   C3        1.0  0.49999995529766  0.6371850816790283  0.13718347518926047  1.0000
  C   C4        1.0  0.4999911932827032  0.36282262609888244  0.13717711714390632  1.0000
  C   C5        1.0  0.7743591078104826  0.6371792843597889  0.13718005377389614  1.0000
  C   C6        1.0  0.49999909017314775  0.3628154695389156  0.8628140452004655  1.0000
  C   C7        1.0  0.49999872910009924  0.8628209945176127  0.36281984530990025  1.0000
  C   C8        1.0  0.7743703356924809  0.13718593701534584  0.6371861088478421  1.0000
  C   C9        1.0  0.49999538253838693  0.8628184711139399  0.6371749305915485  1.0000
  C   C10       1.0  0.5000027131767694  0.13718391973213065  0.6371869006516204  1.0000
  C   C11       1.0  0.22564060037576178  0.8628225723314316  0.36282110289053543  1.0000
  C   C12       1.0  0.4999957979910048  0.13718601258327107  0.36281598161036016  1.0000
  C   C13       1.0  0.8901531820424962  0.6950789343915249  0.19507694356278885  1.0000
  C   C14       1.0  0.10984678209899795  0.8049218674293429  0.30492487621957304  1.0000
  C   C15       1.0  0.9463688617405802  0.6582228272543063  0.22318529212957078  1.0000
  C   C16       1.0  0.053630047531982174  0.8417775751089638  0.27681600021521996  1.0000
  C   C17       1.0  0.053625560319702156  0.7118493632055377  0.27681493263375495  1.0000
  C   C18       1.0  0.9463744038290114  0.788151438620652  0.2231879574389309  1.0000
  C   C19       1.0  0.10984622543793422  0.30492328965281257  0.8049255741280558  1.0000
  C   C20       1.0  0.8901533932146605  0.19507719197994078  0.6950748145186193  1.0000
  C   C21       1.0  0.05362565120564266  0.2768125244371761  0.8417782907977908  1.0000
  C   C22       1.0  0.9463745853865289  0.2231885751329726  0.658224012251821  1.0000
  C   C23       1.0  0.9463696455111188  0.22318471513577995  0.7881479264461713  1.0000
  C   C24       1.0  0.053630410088892744  0.27681554803049124  0.711853750960941  1.0000
  C   C25       1.0  0.4999971788544996  0.6950734749495949  0.19507462124364133  1.0000
  C   C26       1.0  0.4999990777073576  0.8049236192895179  0.3049242744436567  1.0000
  C   C27       1.0  0.4350367720710366  0.6582235308937855  0.2231863270277826  1.0000
  C   C28       1.0  0.5649604644074911  0.8417758540851494  0.2768146640571414  1.0000
  C   C29       1.0  0.4350356443444025  0.7118501223477691  0.276813725986109  1.0000
  C   C30       1.0  0.5649606122174475  0.7881469718913438  0.2231851697011819  1.0000
  C   C31       1.0  0.5000007057291568  0.3049239491406225  0.8049233889769095  1.0000
  C   C32       1.0  0.4999993498527857  0.19507631401233283  0.6950756127044071  1.0000
  C   C33       1.0  0.564962759253703  0.27681487294803736  0.8417776245340319  1.0000
  C   C34       1.0  0.43503667840312227  0.2231847722781809  0.658221603324989  1.0000
  C   C35       1.0  0.5649637809440334  0.22318555381061592  0.7881485671182983  1.0000
  C   C36       1.0  0.4350367115817093  0.27681449087319276  0.7118511881782862  1.0000
  C   C37       1.0  0.5000022772700632  0.6950788002014152  0.8049265344535711  1.0000
  C   C38       1.0  0.49999713107803956  0.8049222899959363  0.695075448497256  1.0000
  C   C39       1.0  0.4350365456147641  0.6582230912542003  0.7118534359927223  1.0000
  C   C40       1.0  0.5649618078608041  0.8417775994828958  0.7881474843753791  1.0000
  C   C41       1.0  0.43503425660558986  0.7118493674841844  0.6582230776890083  1.0000
  C   C42       1.0  0.5649636599261783  0.7881515417220585  0.8417770890638179  1.0000
  C   C43       1.0  0.4999969492362764  0.30492258745235284  0.19507803332056975  1.0000
  C   C44       1.0  0.5000002416167958  0.19507724385098163  0.30492444635839155  1.0000
  C   C45       1.0  0.5649603605324599  0.2768155399937555  0.22318549454019612  1.0000
  C   C46       1.0  0.4350365743689719  0.2231853461826034  0.27681685716599685  1.0000
  C   C47       1.0  0.5649622875536976  0.22318759095335844  0.27681406641374184  1.0000
  C   C48       1.0  0.4350329745464663  0.27681227783335055  0.22318691374226762  1.0000
  Br  Br1       1.0  0.8828887800585999  0.5350018301745862  0.19144420120915118  1.0000
  Br  Br2       1.0  0.1171113650714375  0.9649998080474874  0.3085577090705556  1.0000
  Br  Br3       1.0  0.11710636469564398  0.6521081041921376  0.3085547099464917  1.0000
  Br  Br4       1.0  0.8828942173709676  0.8478933155554602  0.1914468836581659  1.0000
  Br  Br5       1.0  0.1171059816629949  0.3085550676489248  0.9649998192370643  1.0000
  Br  Br6       1.0  0.8828910153521005  0.19144672481735367  0.5349997937341012  1.0000
  Br  Br7       1.0  0.8828896018210484  0.1914454105404886  0.8478899128881346  1.0000
  Br  Br8       1.0  0.11711001684238903  0.3085550711002582  0.6521120811940262  1.0000
  Br  Br9       1.0  0.343556449731821  0.5350021140428893  0.19144655893270354  1.0000
  Br  Br10      1.0  0.6564445692894335  0.9649990872435552  0.3085573937227079  1.0000
  Br  Br11      1.0  0.3435549393711809  0.6521088401897615  0.30855321592932217  1.0000
  Br  Br12      1.0  0.6564423720523674  0.84788865350162  0.19144513690522275  1.0000
  Br  Br13      1.0  0.6564457710425343  0.30855568871486844  0.9650022613422419  1.0000
  Br  Br14      1.0  0.3435532296813264  0.19144417498848304  0.5349978183369826  1.0000
  Br  Br15      1.0  0.656446301475661  0.1914466718201879  0.8478919035125183  1.0000
  Br  Br16      1.0  0.34355455303079196  0.3085550456687116  0.6521085679239177  1.0000
  Br  Br17      1.0  0.3435528695736778  0.5350003367051529  0.6521116854282168  1.0000
  Br  Br18      1.0  0.6564436301229148  0.9649985002490524  0.8478893783278276  1.0000
  Br  Br19      1.0  0.3435520681873852  0.6521075327327424  0.5350003654574207  1.0000
  Br  Br20      1.0  0.6564471591685574  0.8478927210607311  0.9650009918508996  1.0000
  Br  Br21      1.0  0.6564417078697032  0.3085549667526307  0.19144516295047231  1.0000
  Br  Br22      1.0  0.34355689984384696  0.19144693682138583  0.30856016574139017  1.0000
  Br  Br23      1.0  0.6564434580813907  0.19144544249386536  0.3085542816111156  1.0000
  Br  Br24      1.0  0.34354984419988444  0.3085498448238511  0.1914446483302753  1.0000
  O   O1        1.0  0.4999995227463642  0.5000044414177013  9.478266207140941e-07  1.0000
  O   O2        1.0  0.5599644446114312  0.674647287395942  0.9452804335498822  1.0000
  O   O3        1.0  0.2706303796771151  0.38531876363989437  0.8253644745851714  1.0000
  O   O4        1.0  0.4400330483187529  0.5547177863398715  0.11467881089873068  1.0000
  O   O5        1.0  0.4400509741746672  0.5547305165285435  0.825364031974814  1.0000
  O   O6        1.0  0.5599560016724962  0.6746390099800337  0.11468556678306623  1.0000
  O   O7        1.0  0.270625746963148  0.3853053974239985  0.9452706587793072  1.0000
  O   O8        1.0  0.4400428767846023  0.3853133225877769  0.11468958700631035  1.0000
  O   O9        1.0  0.7293668563143781  0.5547314722894897  0.11468518463828996  1.0000
  O   O10       1.0  0.5599473605647842  0.3853136086185245  0.11468296574418685  1.0000
  O   O11       1.0  0.729369864795096  0.6746480908107984  0.11468547976430425  1.0000
  O   O12       1.0  0.4400365095496069  0.3853122462701465  0.8253562397298705  1.0000
  O   O13       1.0  0.5599630815317908  0.385321954540835  0.945277190390797  1.0000
  O   O14       1.0  0.499998150675964  0.999994725092087  0.5000007968735715  1.0000
  O   O15       1.0  0.44003724022684304  0.8253531033511335  0.38531449726815464  1.0000
  O   O16       1.0  0.7293651146038866  0.11468370547903817  0.5547167889784956  1.0000
  O   O17       1.0  0.5599530905784604  0.9452719530193859  0.6746386737609311  1.0000
  O   O18       1.0  0.5599492079439725  0.9452705508818369  0.3853146900163649  1.0000
  O   O19       1.0  0.4400406750322999  0.8253555816255514  0.5547260104943843  1.0000
  O   O20       1.0  0.7293718167231089  0.1146869173912606  0.6746382732435802  1.0000
  O   O21       1.0  0.5599580907172594  0.11468518320694447  0.6746427099920421  1.0000
  O   O22       1.0  0.27063125400115234  0.9452674757138696  0.3853098216449451  1.0000
  O   O23       1.0  0.44004024467876207  0.11468223465769262  0.5547229114799915  1.0000
  O   O24       1.0  0.2706290445136118  0.8253523115791027  0.3853211640320778  1.0000
  O   O25       1.0  0.5599696691141743  0.11468810011223246  0.3853227108002171  1.0000
  O   O26       1.0  0.4400437569902634  0.11468277103960392  0.385311125830526  1.0000
