data_image0
_chemical_formula_structural       Al2H10C20S2O17
_chemical_formula_sum              "Al2 H10 C20 S2 O17"
_cell_length_a       6.587432397809549
_cell_length_b       11.120776199815559
_cell_length_c       12.553850040328943
_cell_angle_alpha    83.12767926027801
_cell_angle_beta     77.71504027138981
_cell_angle_gamma    71.89695738785743

_space_group_name_H-M_alt    "P 1"
_space_group_IT_number       1

loop_
  _space_group_symop_operation_xyz
  'x, y, z'

loop_
  _atom_site_type_symbol
  _atom_site_label
  _atom_site_symmetry_multiplicity
  _atom_site_fract_x
  _atom_site_fract_y
  _atom_site_fract_z
  _atom_site_occupancy
  Al  Al1       1.0  0.511276710265491  0.49662677159455654  0.527218868339766  1.0000
  Al  Al2       1.0  0.010184863375243844  0.49617087843400765  0.528913136133049  1.0000
  H   H1        1.0  0.23756764280990691  0.43623913608193726  0.6600996841746253  1.0000
  H   H2        1.0  0.7691046326653959  0.5920432642584503  0.402336178439576  1.0000
  H   H3        1.0  0.7635475120745168  0.42614670902459295  0.1879232338933718  1.0000
  H   H4        1.0  0.08604235481093529  0.5620354959584404  0.9112461687587939  1.0000
  H   H5        1.0  0.7673372626665937  0.7897497649953421  0.5638879763836898  1.0000
  H   H6        1.0  0.571593798635277  0.21621014562020954  0.5649781657479451  1.0000
  H   H7        1.0  0.4396831304520601  0.7016934817094979  0.3823553288476376  1.0000
  H   H8        1.0  0.7147456018042245  0.7872422156523985  0.2018190219071271  1.0000
  H   H9        1.0  0.5098070824920028  0.22826419720585278  0.2019459575975233  1.0000
  H   H10       1.0  0.16279618319313727  0.3031185351477461  0.37769952033699644  1.0000
  C   C1        1.0  0.8926554553965217  0.266641292529016  0.5043124582630725  1.0000
  C   C2        1.0  0.6654717803725274  0.503831345667912  0.7223018587862172  1.0000
  C   C3        1.0  0.13432263451326765  0.7309726275631976  0.5041212300847846  1.0000
  C   C4        1.0  0.3557851193295177  0.48773355800025103  0.3316965599284742  1.0000
  C   C5        1.0  0.3963461014609138  0.5261474250671371  0.9028704618969314  1.0000
  C   C6        1.0  0.6190801368908581  0.45604797928076835  0.15111834613447425  1.0000
  C   C7        1.0  0.6070827865941337  0.4993447041403558  0.8406088142767061  1.0000
  C   C8        1.0  0.4105146147585683  0.48733168043679614  0.21246385989179825  1.0000
  C   C9        1.0  0.6136249589819798  0.46900413071539054  0.038681543119544415  1.0000
  C   C10       1.0  0.40139015781882376  0.5101555000340101  0.016382844031937793  1.0000
  C   C11       1.0  0.9471118622113224  0.1366419835765811  0.4708077972553539  1.0000
  C   C12       1.0  0.1509378952895872  0.07023606134669791  0.4027711827045267  1.0000
  C   C13       1.0  0.7930398850399454  0.07102120474315401  0.5143679157975427  1.0000
  C   C14       1.0  0.278851442356725  0.13457903295464044  0.32695002371492876  1.0000
  C   C15       1.0  0.4693971996667584  0.07176886804121102  0.2576985516938493  1.0000
  C   C16       1.0  0.07005951503537496  0.8662424766332746  0.4708718463890306  1.0000
  C   C17       1.0  0.8550826655248613  0.9351934526397586  0.5141534478769643  1.0000
  C   C18       1.0  0.2147754071542918  0.9331367975836216  0.4031142696090129  1.0000
  C   C19       1.0  0.40312134732338467  0.8732910447434179  0.3281015886478897  1.0000
  C   C20       1.0  0.5316162530323538  0.9400512675387134  0.25821629069324104  1.0000
  S   S1        1.0  0.8079715331040019  0.44958499052767553  0.9209316222789711  1.0000
  S   S2        1.0  0.20773946553898523  0.5320144613747146  0.1343368494293316  1.0000
  O   O1        1.0  0.6916273202934773  0.3241489518315035  0.544264944721398  1.0000
  O   O2        1.0  0.8669259084217769  0.48219106350760654  0.6774157807244237  1.0000
  O   O3        1.0  0.9863081269794591  0.6745219646691325  0.5413185566578704  1.0000
  O   O4        1.0  0.5151191832721551  0.46324813272092763  0.38141341977073034  1.0000
  O   O5        1.0  0.33771120304670194  0.6696313027114372  0.4991859241825694  1.0000
  O   O6        1.0  0.15562337919847377  0.5137874592930345  0.378026171972742  1.0000
  O   O7        1.0  0.04098899943802785  0.3214819456372241  0.500076797120748  1.0000
  O   O8        1.0  0.5094082822735403  0.5283308801735842  0.6702433803301205  1.0000
  O   O9        1.0  0.2686062365350565  0.44045809459061774  0.5806172282307146  1.0000
  O   O10       1.0  0.7538173210767236  0.5527562923279776  0.4757795719865144  1.0000
  O   O11       1.0  0.21724823005647648  0.5633943465770415  0.8574062993690673  1.0000
  O   O12       1.0  0.7001053041942098  0.8838002139529596  0.5665099056277398  1.0000
  O   O13       1.0  0.5906713954430385  0.12301108955427516  0.5669902808776257  1.0000
  O   O14       1.0  0.4743622891493897  0.745713028384408  0.30955092774319587  1.0000
  O   O15       1.0  0.7107845181955099  0.8766398910171701  0.18784004049371114  1.0000
  O   O16       1.0  0.5868233257724  0.1391273897388317  0.18709215355468703  1.0000
  O   O17       1.0  0.2239239821101719  0.2638063232552454  0.3060984103716464  1.0000
