data_image0
_chemical_formula_structural       Ba2H42C50N2O20
_chemical_formula_sum              "Ba2 H42 C50 N2 O20"
_cell_length_a       7.922704930358036
_cell_length_b       12.62020515923803
_cell_length_c       14.082717419018785
_cell_angle_alpha    115.68347054428943
_cell_angle_beta     94.35947570581098
_cell_angle_gamma    104.67534201826922

_space_group_name_H-M_alt    "P 1"
_space_group_IT_number       1

loop_
  _space_group_symop_operation_xyz
  'x, y, z'

loop_
  _atom_site_type_symbol
  _atom_site_label
  _atom_site_symmetry_multiplicity
  _atom_site_fract_x
  _atom_site_fract_y
  _atom_site_fract_z
  _atom_site_occupancy
  Ba  Ba1       1.0  0.5395493429543095  0.6640789906772184  0.17744556950421492  1.0000
  Ba  Ba2       1.0  0.460451401210939  0.3359215690581721  0.8225541875906686  1.0000
  H   H1        1.0  0.7155453961498565  0.88728302460472  0.10781920656813773  1.0000
  H   H2        1.0  0.28445365270270156  0.11271937683805078  0.8921804721791631  1.0000
  H   H3        1.0  0.4850201968855642  0.5391793152173746  0.7224544474203539  1.0000
  H   H4        1.0  0.514980963908272  0.4608221536619864  0.2775435456696726  1.0000
  H   H5        1.0  0.22571482577534133  0.7585381381170037  0.17009663274289713  1.0000
  H   H6        1.0  0.7742850726706861  0.24146335167780114  0.8299041539477017  1.0000
  H   H7        1.0  0.1038575967335973  0.687430676169754  0.22327783164963927  1.0000
  H   H8        1.0  0.896142726928815  0.3125689560102032  0.7767215519110806  1.0000
  H   H9        1.0  0.46055112695145783  0.2849144201194632  0.12651582273156237  1.0000
  H   H10       1.0  0.5394458172561867  0.7150861409907279  0.8734851900349837  1.0000
  H   H11       1.0  0.6219712127234729  0.1405557069040171  0.12001035082813159  1.0000
  H   H12       1.0  0.37802953531603106  0.8594448712428288  0.879991543805765  1.0000
  H   H13       1.0  0.03588799811706874  0.4765169070280634  0.07774013443437157  1.0000
  H   H14       1.0  0.9641152849493935  0.5234836783851193  0.922261873102421  1.0000
  H   H15       1.0  0.605403140924288  0.2198920680490346  0.4626627016036337  1.0000
  H   H16       1.0  0.39459380328335664  0.7801084930611567  0.5373383111629124  1.0000
  H   H17       1.0  0.9016951361503514  0.5814148479962568  0.41001486891774147  1.0000
  H   H18       1.0  0.0983051896427796  0.4185819867390919  0.5899813129529292  1.0000
  H   H19       1.0  0.006139584146964678  0.22387570367069287  0.26544698882673856  1.0000
  H   H20       1.0  0.9938531451530818  0.7761183425068122  0.7345492152102151  1.0000
  H   H21       1.0  0.7542042559497587  0.6106053600611148  0.5647969106933316  1.0000
  H   H22       1.0  0.24579775185471678  0.38939518489598157  0.4352007653139863  1.0000
  H   H23       1.0  0.7384931081950937  0.18756692549865758  0.3022696167806486  1.0000
  H   H24       1.0  0.2615034215146819  0.8124299290229615  0.6977299583007053  1.0000
  H   H25       1.0  0.13582431405932724  0.8822333418517443  0.10930053729520475  1.0000
  H   H26       1.0  0.8641726322790292  0.11776442181384536  0.8906972737812922  1.0000
  H   H27       1.0  0.9749899178499105  0.028731286096864  0.11971256392666868  1.0000
  H   H28       1.0  0.02500871650476444  0.9712674087573275  0.8802856771354398  1.0000
  H   H29       1.0  0.9887750909508167  0.8587169088542763  0.28455780962000427  1.0000
  H   H30       1.0  0.011227764316423382  0.14128552189945506  0.7154441760206609  1.0000
  H   H31       1.0  0.0007368644141009993  0.2091348045938943  0.4337212965688479  1.0000
  H   H32       1.0  0.9992655690588846  0.7908666924672544  0.566279603024654  1.0000
  H   H33       1.0  0.08080273133100484  0.1941781970698101  0.5476767463898823  1.0000
  H   H34       1.0  0.9191975889092772  0.8058242264175914  0.4523251263478796  1.0000
  H   H35       1.0  0.8544640072746006  0.10973187503197582  0.4728810485726669  1.0000
  H   H36       1.0  0.1455371573934911  0.890269612258848  0.5271190820563733  1.0000
  H   H37       1.0  0.2594772692440726  0.974244478150254  0.34799277353882707  1.0000
  H   H38       1.0  0.7405268535366502  0.02575795623665299  0.6520092685532859  1.0000
  H   H39       1.0  0.31283321670379394  0.10205413189492417  0.48135236685731536  1.0000
  H   H40       1.0  0.6871692180606104  0.8979473713033742  0.5186492452491862  1.0000
  H   H41       1.0  0.2849091895875019  0.1273690737979152  0.36639404815077364  1.0000
  H   H42       1.0  0.7150932451769022  0.8726324294003833  0.6336075639557207  1.0000
  C   C1        1.0  0.22545085906661202  0.327127310741524  0.004363266831823891  1.0000
  C   C2        1.0  0.7745515756977922  0.6728741924567743  0.9956383452746774  1.0000
  C   C3        1.0  0.12002424457222816  0.33321412085688  0.09016244812208637  1.0000
  C   C4        1.0  0.8799748141595388  0.6667855199642078  0.9098383040131993  1.0000
  C   C5        1.0  0.4876462429093563  0.9152366051205902  0.11293996968675656  1.0000
  C   C6        1.0  0.5123523867317772  0.0847648749038967  0.8870600480393874  1.0000
  C   C7        1.0  0.6692781550407004  0.41659516667338176  0.5225904182070309  1.0000
  C   C8        1.0  0.3307230096273912  0.5834063206174421  0.47740971242200897  1.0000
  C   C9        1.0  0.812383171500947  0.5195263572020961  0.209909246867653  1.0000
  C   C10       1.0  0.1876133543345729  0.4804704789080602  0.7900881906746803  1.0000
  C   C11       1.0  0.10697415431950218  0.2576336760386297  0.14117812683311118  1.0000
  C   C12       1.0  0.8930257475486553  0.7423650224487303  0.8588201706804454  1.0000
  C   C13       1.0  0.3877458082681142  0.19740296314824232  0.12342373174309529  1.0000
  C   C14       1.0  0.6122507154366944  0.8025966704065085  0.8765769074892873  1.0000
  C   C15       1.0  0.5763018828661542  0.4290036840964787  0.6122947645992197  1.0000
  C   C16       1.0  0.42370182541669266  0.5709950437018493  0.3877058398076941  1.0000
  C   C17       1.0  0.48023868647325685  0.11654196243820539  0.12080661855587488  1.0000
  C   C18       1.0  0.519758257734395  0.883458598671986  0.8791943942106714  1.0000
  C   C19       1.0  0.02779513618322231  0.4199859717438628  0.11886198790146098  1.0000
  C   C20       1.0  0.9722077237975666  0.5800136738395735  0.8811382210751616  1.0000
  C   C21       1.0  0.6685026588544573  0.2980151257077566  0.44910377909589266  1.0000
  C   C22       1.0  0.33149639987730234  0.701984515113331  0.5508969730393929  1.0000
  C   C23       1.0  0.8267076277020705  0.3821273705737553  0.34320214699773993  1.0000
  C   C24       1.0  0.17329058614977544  0.6178703967250029  0.656795720530205  1.0000
  C   C25       1.0  0.8319450303775252  0.5012753322443186  0.4192737657622486  1.0000
  C   C26       1.0  0.16805529328488678  0.49872429993563105  0.5807256177984711  1.0000
  C   C27       1.0  0.005383241444910354  0.27594164237042657  0.22077130226447383  1.0000
  C   C28       1.0  0.9946111711579063  0.724056120165983  0.7792271084221338  1.0000
  C   C29       1.0  0.39208716062367427  0.003191052280527599  0.1175171278108991  1.0000
  C   C30       1.0  0.6079118968166737  0.9968085824034107  0.8824829118113796  1.0000
  C   C31       1.0  0.9143657863138159  0.36322153860238865  0.2509465105790341  1.0000
  C   C32       1.0  0.08563412285072049  0.6367743869889821  0.7490514352964864  1.0000
  C   C33       1.0  0.9223775912524272  0.43454169065986276  0.19589024772402297  1.0000
  C   C34       1.0  0.07762104310224759  0.5654570041943286  0.8041079933380855  1.0000
  C   C35       1.0  0.7525576960691751  0.5183913860598821  0.5071633740952066  1.0000
  C   C36       1.0  0.24744474211735923  0.4816073258309641  0.4928357488342456  1.0000
  C   C37       1.0  0.7446545694709598  0.280892615401001  0.3602176055554622  1.0000
  C   C38       1.0  0.2553436495465462  0.7191051764463694  0.6397831120244959  1.0000
  C   C39       1.0  0.20540541054271694  0.16817643864690265  0.1254387135698352  1.0000
  C   C40       1.0  0.7945919575899012  0.8318222587112771  0.8745601835538251  1.0000
  C   C41       1.0  0.2084133782194398  0.9715219627264275  0.11565154239355016  1.0000
  C   C42       1.0  0.7915835707017465  0.028475813213475493  0.8843476937089534  1.0000
  C   C43       1.0  0.11729796338972419  0.053774678185945404  0.1210477710498594  1.0000
  C   C44       1.0  0.8826989842400506  0.9462230916167939  0.8789507525396444  1.0000
  C   C45       1.0  0.9276220658975161  0.9279755771301906  0.33366779449516315  1.0000
  C   C46       1.0  0.07238290389383906  0.07202593333444439  0.6663339305142344  1.0000
  C   C47       1.0  0.9928128323372007  0.14426003474648746  0.46726049310799306  1.0000
  C   C48       1.0  0.0071896011357850086  0.8557414623146541  0.5327404064855017  1.0000
  C   C49       1.0  0.23719916178643527  0.062265183722786284  0.3984396386331071  1.0000
  C   C50       1.0  0.7628049622856989  0.9377372568012632  0.601563115972006  1.0000
  N   N1        1.0  0.04757289157337399  0.0400291071786398  0.39807206503053993  1.0000
  N   N2        1.0  0.95242954319103  0.9599723960196581  0.6019295470759614  1.0000
  O   O1        1.0  0.32449274713769666  0.4297247445123559  0.014717615573793781  1.0000
  O   O2        1.0  0.6755075791075454  0.5702748999419  0.9852831930129325  1.0000
  O   O3        1.0  0.20551006883903258  0.22251770026193898  0.923208216399473  1.0000
  O   O4        1.0  0.7944894078127333  0.7774828558402832  0.0767914842439552  1.0000
  O   O5        1.0  0.6442171207620218  0.4753122529211423  0.20025372199337702  1.0000
  O   O6        1.0  0.3557827798147173  0.5246864394290681  0.7997438630071727  1.0000
  O   O7        1.0  0.6640178700240966  0.9586614149598844  0.12635638204967842  1.0000
  O   O8        1.0  0.33598329722683223  0.041340084605245395  0.8736451736053751  1.0000
  O   O9        1.0  0.886948775599066  0.6287608565454049  0.22447565908318975  1.0000
  O   O10       1.0  0.11305239378257424  0.37123784557512346  0.7755226948818148  1.0000
  O   O11       1.0  0.4096197423475089  0.8081291561881442  0.09709364016992326  1.0000
  O   O12       1.0  0.590380162103486  0.1918695545735218  0.9029060823696395  1.0000
  O   O13       1.0  0.5695677240909659  0.5426716317957628  0.6722703114828263  1.0000
  O   O14       1.0  0.4304325982800279  0.4573279942470379  0.3277283595648938  1.0000
  O   O15       1.0  0.5072957782530023  0.3398389999311958  0.6284229044861291  1.0000
  O   O16       1.0  0.4927096081669474  0.6601634196774099  0.3715770565184187  1.0000
  O   O17       1.0  0.22980603063323446  0.7283733440973561  0.22331488567137103  1.0000
  O   O18       1.0  0.7701934486013684  0.2716272242791717  0.7766862399980707  1.0000
  O   O19       1.0  0.7626441622440437  0.900645788341947  0.32834892008388994  1.0000
  O   O20       1.0  0.2373565819212118  0.09935477139343618  0.6716508370109936  1.0000
