data_image0
_chemical_formula_structural       Co2H26Pt2C38N14O2
_chemical_formula_sum              "Co2 H26 Pt2 C38 N14 O2"
_cell_length_a       9.639028844431952
_cell_length_b       9.639021005590791
_cell_length_c       11.555341868112487
_cell_angle_alpha    81.0118104784129
_cell_angle_beta     81.01220001255744
_cell_angle_gamma    70.94753101037911

_space_group_name_H-M_alt    "P 1"
_space_group_IT_number       1

loop_
  _space_group_symop_operation_xyz
  'x, y, z'

loop_
  _atom_site_type_symbol
  _atom_site_label
  _atom_site_symmetry_multiplicity
  _atom_site_fract_x
  _atom_site_fract_y
  _atom_site_fract_z
  _atom_site_occupancy
  Co  Co1       1.0  0.24290978255810106  0.7570854949131415  0.24999990251085083  1.0000
  Co  Co2       1.0  0.7570891117289098  0.24290771957992527  0.7499995872231225  1.0000
  H   H1        1.0  0.41736999301868866  0.47672441986987474  0.27354661410610254  1.0000
  H   H2        1.0  0.5232768365088705  0.5826295515621923  0.22645669279830835  1.0000
  H   H3        1.0  0.582621023724258  0.5232777290186023  0.7264492874740824  1.0000
  H   H4        1.0  0.47672114328134557  0.4173767870235777  0.7735491303270623  1.0000
  H   H5        1.0  0.9340668894806472  0.23907205921408095  0.08061000022981092  1.0000
  H   H6        1.0  0.76092592822031  0.06593363574867789  0.41938961384617107  1.0000
  H   H7        1.0  0.06593064665758427  0.7609190544331171  0.919382977911404  1.0000
  H   H8        1.0  0.23908044310181256  0.9340693333739837  0.5806138792641493  1.0000
  H   H9        1.0  0.5379994259818733  0.8386907336377121  0.8516728714430217  1.0000
  H   H10       1.0  0.16130885368869508  0.46199775287701755  0.6483271341141406  1.0000
  H   H11       1.0  0.4620060039792693  0.16128821844215216  0.14831801919051915  1.0000
  H   H12       1.0  0.8387081922519004  0.5379973208985759  0.3516820861683315  1.0000
  H   H13       1.0  0.13950465794619057  0.18722050740743162  0.9456205227456425  1.0000
  H   H14       1.0  0.8127811014799848  0.8604966275264445  0.5543803192687237  1.0000
  H   H15       1.0  0.8605065215709975  0.8127704086251982  0.054375179307633935  1.0000
  H   H16       1.0  0.18722582575831134  0.1394975384273209  0.4456232920020896  1.0000
  H   H17       1.0  0.36633556182422217  0.0955557193430394  0.8055579086106945  1.0000
  H   H18       1.0  0.904444985605622  0.6336649040717788  0.6944431570930052  1.0000
  H   H19       1.0  0.6336756284426318  0.9044352074443508  0.19443692535830343  1.0000
  H   H20       1.0  0.09556086650815841  0.3663292514371578  0.3055623146932476  1.0000
  H   H21       1.0  0.4832900006905735  0.6904898750998854  0.040865549622623114  1.0000
  H   H22       1.0  0.3095070656408583  0.5167088772851969  0.45913274821701583  1.0000
  H   H23       1.0  0.5167055720931799  0.30949023804968334  0.9591298402760274  1.0000
  H   H24       1.0  0.6905081037043036  0.4832961797591225  0.540871177552262  1.0000
  H   H25       1.0  0.7353007141389797  0.264699063669994  0.24999900080165827  1.0000
  H   H26       1.0  0.26470212206548654  0.735298513526196  0.7499994984224472  1.0000
  Pt  Pt1       1.0  0.49999686894377515  1.4222436007597336e-05  0.49999779680757683  1.0000
  Pt  Pt2       1.0  0.999986718624186  0.5000071148877225  5.704538246283356e-06  1.0000
  C   C1        1.0  0.42442284764728566  0.9135787432352986  0.38853009561287893  1.0000
  C   C2        1.0  0.08642449277409987  0.5755816382717214  0.11147119335829106  1.0000
  C   C3        1.0  0.5755779143175205  0.08643978608282768  0.6114652864557542  1.0000
  C   C4        1.0  0.9135622876601205  0.42442701997406124  0.8885356888480447  1.0000
  C   C5        1.0  0.5462730430523666  0.8095973627088072  0.6025790748149333  1.0000
  C   C6        1.0  0.1904033387008327  0.4537284683653126  0.8974221158161058  1.0000
  C   C7        1.0  0.453718691304829  0.1904235286685108  0.3974119091352294  1.0000
  C   C8        1.0  0.8095753602542576  0.5462824333274481  0.1025889247677227  1.0000
  C   C9        1.0  0.19375254595423316  0.9888544427628501  0.06695546012616661  1.0000
  C   C10       1.0  0.011144680072021637  0.8062489608271478  0.43304582593473395  1.0000
  C   C11       1.0  0.8062411662042593  0.011138913091628  0.9330377066679105  1.0000
  C   C12       1.0  0.9888596374394258  0.19376057080675227  0.5669623225180161  1.0000
  C   C13       1.0  0.9434055663106025  0.1531337036348006  0.15498485993478542  1.0000
  C   C14       1.0  0.8468674794603147  0.05659391815091648  0.345017358025487  1.0000
  C   C15       1.0  0.05659402332963752  0.8468573341092736  0.8450122099340974  1.0000
  C   C16       1.0  0.15313818053840594  0.9434079682845462  0.654985483541303  1.0000
  C   C17       1.0  0.44030867413539454  0.8848409470946097  0.9116674429732328  1.0000
  C   C18       1.0  0.11515764649593055  0.5596897699407037  0.5883329966444536  1.0000
  C   C19       1.0  0.5596930335048641  0.11515007927486212  0.08832851011761991  1.0000
  C   C20       1.0  0.8848472324608639  0.44030772059760886  0.41167046239159794  1.0000
  C   C21       1.0  0.21795585446451338  0.07800126911758548  0.9636304766617912  1.0000
  C   C22       1.0  0.9219993216429007  0.7820451023681231  0.5363710466603707  1.0000
  C   C23       1.0  0.7820416438955391  0.9219930501920289  0.03636991330946426  1.0000
  C   C24       1.0  0.07800466462511225  0.2179590471642854  0.4636282625284097  1.0000
  C   C25       1.0  0.06725364600442421  0.0275814104193799  0.15677448111157594  1.0000
  C   C26       1.0  0.972418237832969  0.9327458957476509  0.34322496507733297  1.0000
  C   C27       1.0  0.9327477085843869  0.972410698947222  0.8432231159539686  1.0000
  C   C28       1.0  0.02758603176796733  0.06725385757768268  0.6567739691495476  1.0000
  C   C29       1.0  0.34379198542249173  0.026254497716784907  0.8854779445189891  1.0000
  C   C30       1.0  0.9737460739652452  0.6562100372791234  0.61452308111938  1.0000
  C   C31       1.0  0.6562097811866254  0.9737398311078991  0.11451760764335724  1.0000
  C   C32       1.0  0.026261270513856537  0.34378959681415466  0.3854824247411486  1.0000
  C   C33       1.0  0.41036986404603976  0.8006903604314459  0.016382016956150425  1.0000
  C   C34       1.0  0.1993084037622524  0.5896281536929919  0.4836173889872627  1.0000
  C   C35       1.0  0.5896255596213393  0.19929752666366338  0.9836072703859031  1.0000
  C   C36       1.0  0.8006993257086426  0.41037691627554546  0.516392615715823  1.0000
  C   C37       1.0  0.8326846832517493  0.16731139840206313  0.24999884631972694  1.0000
  C   C38       1.0  0.1673156659310707  0.8326840137296543  0.749999342248465  1.0000
  N   N1        1.0  0.37540369052118205  0.8639870493566731  0.3242609301368447  1.0000
  N   N2        1.0  0.13602112005337122  0.6246002617823622  0.17573810462007347  1.0000
  N   N3        1.0  0.6246047409024558  0.13602701705639933  0.6757323384575002  1.0000
  N   N4        1.0  0.8639757256434709  0.3754027639033809  0.824269979949243  1.0000
  N   N5        1.0  0.5731045929757814  0.6983395651069415  0.6650327907784617  1.0000
  N   N6        1.0  0.3016596662189175  0.42689459098815513  0.8349657738344974  1.0000
  N   N7        1.0  0.4268798682813826  0.3016782625892063  0.3349464432640731  1.0000
  N   N8        1.0  0.6983179791109964  0.573116321769284  0.16504539109620714  1.0000
  N   N9        1.0  0.07905898162604807  0.9209397803039178  0.24999989783547968  1.0000
  N   N10       1.0  0.9209417365783923  0.0790578082668745  0.7499997181666557  1.0000
  N   N11       1.0  0.29139441186236353  0.8517091919685386  0.0938654125526952  1.0000
  N   N12       1.0  0.14828618502882315  0.7086058161015601  0.4061345276462234  1.0000
  N   N13       1.0  0.7086047765072437  0.148279637072207  0.9061328341351002  1.0000
  N   N14       1.0  0.851718111291952  0.29139720741471814  0.5938666099049998  1.0000
  O   O1        1.0  0.41966945907518055  0.5803345080722054  0.2500192634154814  1.0000
  O   O2        1.0  0.5803307500532499  0.4196672508558379  0.7499989573184893  1.0000
