data_image0
_chemical_formula_structural       Ag2H24C24N6O4
_chemical_formula_sum              "Ag2 H24 C24 N6 O4"
_cell_length_a       6.761566274585814
_cell_length_b       6.761736195877672
_cell_length_c       14.341613934596754
_cell_angle_alpha    76.0922285278427
_cell_angle_beta     76.09177527704591
_cell_angle_gamma    80.85621623422679

_space_group_name_H-M_alt    "P 1"
_space_group_IT_number       1

loop_
  _space_group_symop_operation_xyz
  'x, y, z'

loop_
  _atom_site_type_symbol
  _atom_site_label
  _atom_site_symmetry_multiplicity
  _atom_site_fract_x
  _atom_site_fract_y
  _atom_site_fract_z
  _atom_site_occupancy
  Ag  Ag1       1.0  0.07217092382210671  0.489273836555796  0.8942319797091683  1.0000
  Ag  Ag2       1.0  0.4892642631776738  0.07217039210070908  0.3942379832774634  1.0000
  H   H1        1.0  0.7182152086516923  0.25230933591718235  0.863438203143545  1.0000
  H   H2        1.0  0.25231834358829996  0.7182084234489634  0.3634292602122501  1.0000
  H   H3        1.0  0.8959658117917615  0.028252161059597804  0.5946274855563515  1.0000
  H   H4        1.0  0.028243252859205432  0.8959329746920944  0.09462786996587619  1.0000
  H   H5        1.0  0.9973712485357071  0.6883114860094323  0.6934569694932193  1.0000
  H   H6        1.0  0.6882976757728801  0.9973673508820439  0.19345718071943446  1.0000
  H   H7        1.0  0.6816072297380488  0.48937119055503325  0.7112613302784893  1.0000
  H   H8        1.0  0.48937286164366617  0.6815762596339212  0.2112586151987301  1.0000
  H   H9        1.0  0.6305856134137784  0.37444035648127977  0.6215327517275427  1.0000
  H   H10       1.0  0.3744416518004954  0.6305486200581002  0.12153287947862168  1.0000
  H   H11       1.0  0.8798934880950641  0.4371642825922493  0.6109064447225308  1.0000
  H   H12       1.0  0.43718506980501093  0.8798538158691259  0.1108977835619385  1.0000
  H   H13       1.0  0.24542156514709035  0.33404794015878986  0.6971455075432047  1.0000
  H   H14       1.0  0.3340445773832884  0.24540052390693032  0.1971393261054004  1.0000
  H   H15       1.0  0.4641935655064843  0.6974802279285724  0.7656445294218983  1.0000
  H   H16       1.0  0.6974627565001867  0.46420288064445714  0.26564690797589213  1.0000
  H   H17       1.0  0.40185417048542854  0.7219285601889285  0.9440864584148939  1.0000
  H   H18       1.0  0.721930885269316  0.4018642718461861  0.4440822902812869  1.0000
  H   H19       1.0  0.26449310719040403  0.06588535389783347  0.9871534765478102  1.0000
  H   H20       1.0  0.06588775299018583  0.2645023429226184  0.4871454439868046  1.0000
  H   H21       1.0  0.7423454864999144  0.0007807457996164961  0.010119004199218287  1.0000
  H   H22       1.0  0.0007907741060649258  0.742350762398857  0.5101174381042809  1.0000
  H   H23       1.0  0.825071800774495  0.7399477273501133  0.012461539471900127  1.0000
  H   H24       1.0  0.7399523345440858  0.8251025603349259  0.5124609030591073  1.0000
  C   C1        1.0  0.8351698023776705  0.9317558987527407  0.8748494669024324  1.0000
  C   C2        1.0  0.9317605892893539  0.8351744024223107  0.3748415683125401  1.0000
  C   C3        1.0  0.7791775937157225  0.13095428670878556  0.822755120959833  1.0000
  C   C4        1.0  0.13095756618982796  0.7791670326058407  0.32274733219058044  1.0000
  C   C5        1.0  0.8009456340968273  0.17050870996953194  0.7218176117839831  1.0000
  C   C6        1.0  0.17051344174759467  0.8009367437296645  0.221813646052766  1.0000
  C   C7        1.0  0.8791678172341976  0.006851540882294699  0.6736333917381501  1.0000
  C   C8        1.0  0.0068507251452985035  0.8791502158629642  0.17362905170170248  1.0000
  C   C9        1.0  0.9332839468659061  0.817453242989458  0.7283819223629208  1.0000
  C   C10       1.0  0.8174474442614256  0.9332780563387644  0.22837927642063965  1.0000
  C   C11       1.0  0.7443967443930858  0.37895340897446067  0.6641644005929661  1.0000
  C   C12       1.0  0.37896296251614114  0.7443714944585621  0.1641595287083675  1.0000
  C   C13       1.0  0.28110220996968144  0.1961340968200744  0.7504854078999088  1.0000
  C   C14       1.0  0.19613358849199614  0.2811134734139741  0.2504774243460162  1.0000
  C   C15       1.0  0.3635474365592799  0.015349390226035093  0.7184626809385009  1.0000
  C   C16       1.0  0.01534274146547432  0.3635704128688175  0.2184548819368644  1.0000
  C   C17       1.0  0.40413896277299693  0.8407154977183635  0.7893301848208908  1.0000
  C   C18       1.0  0.8407072952955092  0.4041538778832602  0.2893349776468526  1.0000
  C   C19       1.0  0.36946554497638584  0.8546326690114295  0.8873638234000083  1.0000
  C   C20       1.0  0.8546316085479407  0.3694870069339586  0.38736495687702194  1.0000
  C   C21       1.0  0.29149744258955934  0.04298773075264959  0.912230066877612  1.0000
  C   C22       1.0  0.04298210773202272  0.29150948051962183  0.41222473777779095  1.0000
  C   C23       1.0  0.41074487844592517  0.012219743127516797  0.6103235866326742  1.0000
  C   C24       1.0  0.012188208471059206  0.4107441446090689  0.110316417429253  1.0000
  N   N1        1.0  0.9141548831447183  0.7768629779561491  0.8271309275265466  1.0000
  N   N2        1.0  0.7768684284778616  0.9141591516500893  0.3271258732550493  1.0000
  N   N3        1.0  0.8155024106506162  0.8901319223547401  0.9737467316210768  1.0000
  N   N4        1.0  0.8901388150036524  0.8155109523002508  0.4737423325242105  1.0000
  N   N5        1.0  0.24439543079268594  0.21061244157290554  0.8452979674212315  1.0000
  N   N6        1.0  0.2106137372508528  0.24440227984956664  0.34529304509147346  1.0000
  O   O1        1.0  0.38556311254990316  0.18337770257675598  0.5509361182874741  1.0000
  O   O2        1.0  0.18334579762850473  0.3855458764156197  0.0509286758558147  1.0000
  O   O3        1.0  0.4752280730976112  0.8407918998041736  0.585987582139893  1.0000
  O   O4        1.0  0.8407339349189087  0.4751947061846593  0.08599302042712513  1.0000
