data_image0
_chemical_formula_structural       MnH16C18N14O2
_chemical_formula_sum              "Mn1 H16 C18 N14 O2"
_cell_length_a       7.23314484098995
_cell_length_b       7.455096356154819
_cell_length_c       9.476041303160894
_cell_angle_alpha    100.29680018809474
_cell_angle_beta     96.92521297091558
_cell_angle_gamma    109.98552927227355

_space_group_name_H-M_alt    "P 1"
_space_group_IT_number       1

loop_
  _space_group_symop_operation_xyz
  'x, y, z'

loop_
  _atom_site_type_symbol
  _atom_site_label
  _atom_site_symmetry_multiplicity
  _atom_site_fract_x
  _atom_site_fract_y
  _atom_site_fract_z
  _atom_site_occupancy
  Mn  Mn1       1.0  0.500001557771668  0.5000036337902642  0.5000036846675328  1.0000
  H   H1        1.0  0.7258051926300341  0.8753563044139696  0.47664327488578095  1.0000
  H   H2        1.0  0.27419433251787945  0.1246450385343323  0.5233555586186753  1.0000
  H   H3        1.0  0.8162298918150127  0.7210242018965471  0.39789274256536783  1.0000
  H   H4        1.0  0.18376938262322537  0.27898007766570027  0.6021054049914765  1.0000
  H   H5        1.0  0.07161413866848679  0.19654035123016908  0.367532597007468  1.0000
  H   H6        1.0  0.9283870735570758  0.8034654059584979  0.6324680502425579  1.0000
  H   H7        1.0  0.8838812941580584  0.8907311816725496  0.17904554868036365  1.0000
  H   H8        1.0  0.11612573655619228  0.10927160095359059  0.8209552720448341  1.0000
  H   H9        1.0  0.6747149240893578  0.22066097726786885  0.9116218059262237  1.0000
  H   H10       1.0  0.3252809244892844  0.779334522961811  0.08837904772728673  1.0000
  H   H11       1.0  0.8627999649584126  0.5256615189060839  0.10031923677070147  1.0000
  H   H12       1.0  0.13719368650585298  0.47433544850248666  0.8996794868399788  1.0000
  H   H13       1.0  0.5216903829230759  0.40116155313683066  0.8123571189147183  1.0000
  H   H14       1.0  0.47831214666317107  0.5988368628930019  0.1876458388940136  1.0000
  H   H15       1.0  0.627184715577222  0.9536688025316236  0.7198552434713006  1.0000
  H   H16       1.0  0.37281809918822967  0.046326644118813896  0.2801441778931775  1.0000
  C   C1        1.0  0.10643627472801849  0.5690216263417582  0.35327107511167094  1.0000
  C   C2        1.0  0.8935618520120983  0.4309797322372048  0.6467286782093707  1.0000
  C   C3        1.0  0.9858676363132587  0.3841333126631666  0.2472633236181919  1.0000
  C   C4        1.0  0.014129925195185007  0.6158665772328008  0.7527361769869855  1.0000
  C   C5        1.0  0.9851829956621431  0.20241856360830468  0.2679165943561727  1.0000
  C   C6        1.0  0.01481791065879174  0.7975827800920499  0.7320834305276305  1.0000
  C   C7        1.0  0.8790505698370834  0.029854805524337294  0.16241787578056932  1.0000
  C   C8        1.0  0.12095173489164762  0.9701465225453487  0.8375812292866482  1.0000
  C   C9        1.0  0.7710689471605505  0.0370784717379706  0.03236388333017712  1.0000
  C   C10       1.0  0.2289341648921377  0.9629213965921364  0.9676372159984863  1.0000
  C   C11       1.0  0.763128965904322  0.21548229143762404  0.011163625157834603  1.0000
  C   C12       1.0  0.23686942016284715  0.7845161223360292  0.9888357585128558  1.0000
  C   C13       1.0  0.868932306873532  0.3873189556867374  0.11820194372881329  1.0000
  C   C14       1.0  0.13106386484449928  0.6126809416485272  0.8817974210949867  1.0000
  C   C15       1.0  0.5690922359383208  0.558446843707962  0.8263037359508726  1.0000
  C   C16       1.0  0.4309094690891939  0.44155304844417026  0.17369933879233904  1.0000
  C   C17       1.0  0.6166957795232905  0.8375478642840548  0.7760286425201952  1.0000
  C   C18       1.0  0.38330676729772517  0.16245053536305676  0.22397220409259688  1.0000
  N   N1        1.0  0.2839641307561464  0.6154901881246102  0.4477724050240253  1.0000
  N   N2        1.0  0.7160334393696814  0.38450969357999293  0.552226039983182  1.0000
  N   N3        1.0  0.341889840484491  0.8081326722902418  0.5124751628640566  1.0000
  N   N4        1.0  0.6581077296413298  0.1918672094143616  0.4875232821431509  1.0000
  N   N5        1.0  0.2080162000716967  0.874303704309682  0.4620585859124588  1.0000
  N   N6        1.0  0.7919833164588326  0.1256976468299769  0.5379413031899672  1.0000
  N   N7        1.0  0.057485016211920426  0.7296078669469921  0.3630376977481332  1.0000
  N   N8        1.0  0.9425136843772604  0.2703949521236169  0.6369612526908097  1.0000
  N   N9        1.0  0.6746267213954269  0.8619705415573832  0.9218194148952673  1.0000
  N   N10       1.0  0.3253772152159939  0.13802785065041687  0.07818156749890899  1.0000
  N   N11       1.0  0.6439826429498084  0.6842515498062838  0.9547581716435259  1.0000
  N   N12       1.0  0.35602129366161245  0.3157468424015163  0.04524281075065768  1.0000
  N   N13       1.0  0.5516920508931163  0.6456596874021868  0.711835454827934  1.0000
  N   N14       1.0  0.4483113204866314  0.3543372361226175  0.2881652748503781  1.0000
  O   O1        1.0  0.6957895746663069  0.7312377116083438  0.4356223568835274  1.0000
  O   O2        1.0  0.3042091345402582  0.268765099270908  0.5643755379574528  1.0000
