data_image0
_chemical_formula_structural       Co2H48C42N8O8
_chemical_formula_sum              "Co2 H48 C42 N8 O8"
_cell_length_a       9.696208452542251
_cell_length_b       10.145654722123323
_cell_length_c       11.031510239681316
_cell_angle_alpha    93.76441098623647
_cell_angle_beta     97.88391738480897
_cell_angle_gamma    101.28558644495044

_space_group_name_H-M_alt    "P 1"
_space_group_IT_number       1

loop_
  _space_group_symop_operation_xyz
  'x, y, z'

loop_
  _atom_site_type_symbol
  _atom_site_label
  _atom_site_symmetry_multiplicity
  _atom_site_fract_x
  _atom_site_fract_y
  _atom_site_fract_z
  _atom_site_occupancy
  Co  Co1       1.0  0.7232803378240218  0.6170601161055344  0.6872303413814862  1.0000
  Co  Co2       1.0  0.27671803143181245  0.38293974727489655  0.31276775926511385  1.0000
  H   H1        1.0  0.7611716150623947  0.10655245776935375  0.6932277283989022  1.0000
  H   H2        1.0  0.23882872542294825  0.8934523379366369  0.30678274078159967  1.0000
  H   H3        1.0  0.3775769467353953  0.2619505055829165  0.6566292628303998  1.0000
  H   H4        1.0  0.6224226575923523  0.7380503491543208  0.34337087732156135  1.0000
  H   H5        1.0  0.3544487281057728  0.8321699855028157  0.6262438160919003  1.0000
  H   H6        1.0  0.6455535672199842  0.1678338615746569  0.37376049862670857  1.0000
  H   H7        1.0  0.14591756522369786  0.1014142465582211  0.6593624334348077  1.0000
  H   H8        1.0  0.8540781866290956  0.8985835365708822  0.340641535005922  1.0000
  H   H9        1.0  0.13745601758879647  0.9233747966165357  0.6443294869176412  1.0000
  H   H10       1.0  0.8625468271289095  0.07662199087030792  0.3556735255335113  1.0000
  H   H11       1.0  0.15118664563791379  0.0184947084996523  0.5147809588433175  1.0000
  H   H12       1.0  0.8488158206503156  0.9815051084027289  0.48522220483611267  1.0000
  H   H13       1.0  0.617198913838763  0.4346335143434032  0.43419152746653816  1.0000
  H   H14       1.0  0.3827978017540801  0.565368360494567  0.5658073976679319  1.0000
  H   H15       1.0  0.9982134220443298  0.7243385952777927  0.5502287699516444  1.0000
  H   H16       1.0  0.0017832399997033007  0.2756632440919162  0.44977377220278203  1.0000
  H   H17       1.0  0.9991477232664392  0.6189891995173866  0.31206738908348797  1.0000
  H   H18       1.0  0.0008505924405853111  0.3810106283947833  0.6879343285830614  1.0000
  H   H19       1.0  0.6615695920772849  0.3445080773054485  0.22721716250897117  1.0000
  H   H20       1.0  0.33843037729273107  0.6554897391491821  0.7727837306697011  1.0000
  H   H21       1.0  0.8194876500492542  0.4179658339315396  0.1694190411714729  1.0000
  H   H22       1.0  0.1805106924321791  0.5820340117147679  0.8305808679850982  1.0000
  H   H23       1.0  0.7184746304719879  0.6177426193208431  0.11933883755916946  1.0000
  H   H24       1.0  0.2815222159217186  0.382255198740836  0.880661649301082  1.0000
  H   H25       1.0  0.5797585048171924  0.5665620342830024  0.20658333233984644  1.0000
  H   H26       1.0  0.4202393691814165  0.4334357743759296  0.7934181942148724  1.0000
  H   H27       1.0  0.6077733586937057  0.4186557014661786  0.962496685204897  1.0000
  H   H28       1.0  0.39222368177981076  0.5813431084879923  0.0375057057212516  1.0000
  H   H29       1.0  0.4788076756115771  0.36474242712106525  0.057254000469150385  1.0000
  H   H30       1.0  0.5211883238698292  0.6352563833687839  0.942748255017527  1.0000
  H   H31       1.0  0.9619462476564847  0.881169022289356  0.7846793789176374  1.0000
  H   H32       1.0  0.03805991718849809  0.11883290092987409  0.2153153396421672  1.0000
  H   H33       1.0  0.8485595561923631  0.5189906105152104  0.9465461617605085  1.0000
  H   H34       1.0  0.15144202975019996  0.4810093133276395  0.05344601541958839  1.0000
  H   H35       1.0  0.07077047849433882  0.6917034528697172  0.10572453062289357  1.0000
  H   H36       1.0  0.9292228798807827  0.3082974050816034  0.894274796892226  1.0000
  H   H37       1.0  0.16780216442843  0.9628373852928079  0.09844244089359928  1.0000
  H   H38       1.0  0.8322025815808799  0.0371584180972491  0.9015580341156166  1.0000
  H   H39       1.0  0.14547561757862576  0.019563185297435795  0.9496123463303191  1.0000
  H   H40       1.0  0.8545291783224228  0.9804376578943347  0.050389375273994036  1.0000
  H   H41       1.0  0.2958940069597915  0.8563720256260937  0.8820656038153203  1.0000
  H   H42       1.0  0.7041047674999276  0.14362482607293003  0.11793053709301655  1.0000
  H   H43       1.0  0.32798991597579885  0.8182799796830265  0.03661783384649909  1.0000
  H   H44       1.0  0.6720098495842778  0.18171183167861224  0.9633771959062186  1.0000
  H   H45       1.0  0.4328294888339528  0.06919960838438041  0.09766628392723933  1.0000
  H   H46       1.0  0.5671719668936532  0.9307952224543712  0.9023300721876879  1.0000
  H   H47       1.0  0.4118832803069452  0.09507113782404279  0.9396250596639958  1.0000
  H   H48       1.0  0.5881177337122452  0.9049216737614713  0.060371105339100964  1.0000
  C   C1        1.0  0.5647874945754127  0.9573380909451501  0.6593331303835939  1.0000
  C   C2        1.0  0.4352136928222306  0.042665712332670594  0.34067557017048955  1.0000
  C   C3        1.0  0.6454363010537135  0.0891215458752015  0.6791528332205914  1.0000
  C   C4        1.0  0.3545644178611128  0.9108802204152513  0.3208574847316327  1.0000
  C   C5        1.0  0.5781411967483193  0.19878208207590828  0.6810127300401092  1.0000
  C   C6        1.0  0.42185894965722087  0.8012217217375907  0.3189958350744959  1.0000
  C   C7        1.0  0.42907063584246424  0.17565954890530122  0.6590979304955338  1.0000
  C   C8        1.0  0.5709306184911966  0.8243442987078495  0.34090624878360387  1.0000
  C   C9        1.0  0.3461902562231813  0.044279889706793106  0.6399856426804432  1.0000
  C   C10       1.0  0.653811791473963  0.9557229300099265  0.3600203849922322  1.0000
  C   C11       1.0  0.4159718391433885  0.9356818170930766  0.6414432215534518  1.0000
  C   C12       1.0  0.5840325113921735  0.064322011178902  0.358563172554092  1.0000
  C   C13       1.0  0.6405891473753016  0.8429090956753952  0.6608566395700562  1.0000
  C   C14       1.0  0.3594108852736539  0.15709376944801792  0.33914459594873136  1.0000
  C   C15       1.0  0.668273488589108  0.3385687289239669  0.70796034007504  1.0000
  C   C16       1.0  0.3317297339721677  0.6614341789277276  0.29203678048722276  1.0000
  C   C17       1.0  0.1864839508906329  0.0202916890318789  0.6142296902184157  1.0000
  C   C18       1.0  0.8135162125591792  0.9797071193152436  0.38577310702615353  1.0000
  C   C19       1.0  0.7210231567691495  0.4995073981825868  0.4364194583018843  1.0000
  C   C20       1.0  0.278974352187184  0.5004934487589523  0.5635813152261163  1.0000
  C   C21       1.0  0.9186252626233014  0.6491299680713779  0.4908150605225074  1.0000
  C   C22       1.0  0.0813737424207517  0.3508729064547822  0.5091851353018129  1.0000
  C   C23       1.0  0.9187167750127113  0.5998866417288866  0.3718527272574619  1.0000
  C   C24       1.0  0.08128177493572512  0.40011420467696723  0.6281481817100101  1.0000
  C   C25       1.0  0.7320602032510874  0.4402930799204014  0.21570702516221724  1.0000
  C   C26       1.0  0.2679394010766529  0.559707774816836  0.7842931149897439  1.0000
  C   C27       1.0  0.6459196805298432  0.5293635171593041  0.14433555760615488  1.0000
  C   C28       1.0  0.35407819346876573  0.4706342914996286  0.8556659689485571  1.0000
  C   C29       1.0  0.5469997157320704  0.4551868048096209  0.030471727385219086  1.0000
  C   C30       1.0  0.45299922603304305  0.5448110210477638  0.969528126098993  1.0000
  C   C31       1.0  0.9606790070166581  0.805236292112113  0.84931729046896  1.0000
  C   C32       1.0  0.03932584243320039  0.19476458654791878  0.1506808141154039  1.0000
  C   C33       1.0  0.9039953664890632  0.6205456307297724  0.9377204825106346  1.0000
  C   C34       1.0  0.09600413746929348  0.37945429418444115  0.06227142379051288  1.0000
  C   C35       1.0  0.01269061647668929  0.7041754180045388  0.016872075991678087  1.0000
  C   C36       1.0  0.9873061526649635  0.2958264923016927  0.9831232321228426  1.0000
  C   C37       1.0  0.16570120343505576  0.9338483009517801  0.0003675720556301847  1.0000
  C   C38       1.0  0.8342996262344612  0.06614853194174937  0.9996306482416344  1.0000
  C   C39       1.0  0.3061484571917461  0.8981564322287312  0.978329515918638  1.0000
  C   C40       1.0  0.6938507224718576  0.1018374077888922  0.02166466525144982  1.0000
  C   C41       1.0  0.42902406528722264  0.0198904823136345  0.004925797085213899  1.0000
  C   C42       1.0  0.5709761285940758  0.9801033394341732  0.9950703280343233  1.0000
  N   N1        1.0  0.7951494899463682  0.5860208256771954  0.5301221305413719  1.0000
  N   N2        1.0  0.2048480457843738  0.41398003899847424  0.46987683447665757  1.0000
  N   N3        1.0  0.7929823246351048  0.5052312933685883  0.3390492226095957  1.0000
  N   N4        1.0  0.20701519770843646  0.49476956244001263  0.6609506466634157  1.0000
  N   N5        1.0  0.8719012244437464  0.6846250636373127  0.8337039434883876  1.0000
  N   N6        1.0  0.1281032770081154  0.3153738578389422  0.1662876401992222  1.0000
  N   N7        1.0  0.04633628398832463  0.8207250528867718  0.9591849777792304  1.0000
  N   N8        1.0  0.9536645955729314  0.1792768198084715  0.04081448911313154  1.0000
  O   O1        1.0  0.569863282278966  0.7234963176364246  0.6746898987063686  1.0000
  O   O2        1.0  0.4301371957354831  0.27650356240678065  0.3253066643091955  1.0000
  O   O3        1.0  0.7712795996304962  0.8628221829655871  0.6527120673092311  1.0000
  O   O4        1.0  0.2287223708145945  0.13718472899568468  0.3472887816177063  1.0000
  O   O5        1.0  0.7991954772577045  0.35477892363496005  0.7462337218425432  1.0000
  O   O6        1.0  0.20080541876192368  0.6452271033742959  0.25375423651916407  1.0000
  O   O7        1.0  0.6029619964576439  0.4373847481367221  0.6905754016692994  1.0000
  O   O8        1.0  0.3970339257717086  0.562618154597672  0.30942167507163987  1.0000
