data_image0
_chemical_formula_structural       K4H20C24N4O24F12
_chemical_formula_sum              "K4 H20 C24 N4 O24 F12"
_cell_length_a       7.5340650504451565
_cell_length_b       7.534093992808726
_cell_length_c       18.360763982009466
_cell_angle_alpha    89.99992307979336
_cell_angle_beta     89.99993140733744
_cell_angle_gamma    102.73610698703372

_space_group_name_H-M_alt    "P 1"
_space_group_IT_number       1

loop_
  _space_group_symop_operation_xyz
  'x, y, z'

loop_
  _atom_site_type_symbol
  _atom_site_label
  _atom_site_symmetry_multiplicity
  _atom_site_fract_x
  _atom_site_fract_y
  _atom_site_fract_z
  _atom_site_occupancy
  K   K1        1.0  0.9315187538135421  0.3770291734191389  0.8269968435451245  1.0000
  K   K2        1.0  0.06849083225546335  0.6229753620230268  0.32699655382686627  1.0000
  K   K3        1.0  0.3770315453786068  0.9315129660727878  0.17300388974732064  1.0000
  K   K4        1.0  0.6229688722604438  0.0684840251047376  0.6730017787118641  1.0000
  H   H1        1.0  0.273469672029762  0.8653615583386981  0.8456426109407289  1.0000
  H   H2        1.0  0.7265327695139661  0.13464696865320036  0.3456411737312521  1.0000
  H   H3        1.0  0.8653569081071097  0.27347108428602246  0.1543582110330846  1.0000
  H   H4        1.0  0.13463916225750688  0.7265300567167543  0.6543581594060228  1.0000
  H   H5        1.0  0.9653717765032256  0.9469010067668792  0.9460249501797833  1.0000
  H   H6        1.0  0.034627467359733516  0.05310030047721171  0.4460222669759801  1.0000
  H   H7        1.0  0.946897787219342  0.9653712770752491  0.053977646208480196  1.0000
  H   H8        1.0  0.05309939673206541  0.0346275582245639  0.5539758363896254  1.0000
  H   H9        1.0  0.5480433695187515  0.0324304788697489  0.8957877437671229  1.0000
  H   H10       1.0  0.4519525163154655  0.9675669483308129  0.395786530009282  1.0000
  H   H11       1.0  0.032428450506912974  0.548042693420271  0.10421336996357408  1.0000
  H   H12       1.0  0.9675688403865409  0.4519572957083681  0.6042125113757917  1.0000
  H   H13       1.0  0.5929394178918914  0.05838928345269071  0.9888622839336064  1.0000
  H   H14       1.0  0.4070620211879472  0.9416104911998673  0.48886056205436984  1.0000
  H   H15       1.0  0.058387265531749215  0.5929374321489932  0.0111377034945619  1.0000
  H   H16       1.0  0.9416103788395209  0.40706294040561636  0.5111379717120812  1.0000
  H   H17       1.0  0.843850457864335  0.7575949541642403  0.7369525773643132  1.0000
  H   H18       1.0  0.15615548672595034  0.2424099452331134  0.23695081921975708  1.0000
  H   H19       1.0  0.7575863854703543  0.8438467102220885  0.2630485475230131  1.0000
  H   H20       1.0  0.24240542557003414  0.15614853525384836  0.7630487556464516  1.0000
  C   C1        1.0  0.20825836468106468  0.8691319409212069  0.8985973942413423  1.0000
  C   C2        1.0  0.7917404638433966  0.13086684014272276  0.3985959267643011  1.0000
  C   C3        1.0  0.86913116992384  0.20825896977703448  0.10140345983629119  1.0000
  C   C4        1.0  0.13086480382323623  0.7917410285961423  0.6014033742730545  1.0000
  C   C5        1.0  0.013870000323691933  0.8795709531067999  0.8998577357200472  1.0000
  C   C6        1.0  0.9861303120532982  0.1204346266590335  0.39985563292655957  1.0000
  C   C7        1.0  0.8795621773787518  0.0138680926506183  0.10014375911845969  1.0000
  C   C8        1.0  0.12043187788216865  0.986129187026833  0.6001430273489132  1.0000
  C   C9        1.0  0.9105577960635146  0.8848630973753159  0.8301872083633767  1.0000
  C   C10       1.0  0.0894476336224272  0.1151346163765794  0.33018500854836924  1.0000
  C   C11       1.0  0.8848669456672056  0.910552713017509  0.16981544908269083  1.0000
  C   C12       1.0  0.11513627661695121  0.08943885516625022  0.6698146676783097  1.0000
  C   C13       1.0  0.3283375124147909  0.937224688216915  0.9637455063349804  1.0000
  C   C14       1.0  0.671658710791043  0.0627751805912453  0.4637419572429308  1.0000
  C   C15       1.0  0.9372290046865929  0.3283409239286073  0.036257427974256  1.0000
  C   C16       1.0  0.06277209310566426  0.6716634321438235  0.5362552635607044  1.0000
  C   C17       1.0  0.48639524539732554  0.5108360123832938  0.8810894375733864  1.0000
  C   C18       1.0  0.5136116165090172  0.4891628547738591  0.3810917237711918  1.0000
  C   C19       1.0  0.5108336335746699  0.48638903885986906  0.11890819055392396  1.0000
  C   C20       1.0  0.48916566168315984  0.5136081728286825  0.6189102585747719  1.0000
  C   C21       1.0  0.4334545153778678  0.33112819799232074  0.8364383079222789  1.0000
  C   C22       1.0  0.5665532484666685  0.6688681338814818  0.3364393799067784  1.0000
  C   C23       1.0  0.3311282428668321  0.433446736851451  0.1635616203286645  1.0000
  C   C24       1.0  0.668874270805695  0.5665475763216747  0.6635613915953157  1.0000
  N   N1        1.0  0.5019866484771002  0.0133250308611395  0.9479119531379894  1.0000
  N   N2        1.0  0.49801391603406137  0.9866762709369327  0.44791016140558765  1.0000
  N   N3        1.0  0.013321803074354927  0.5019850126820417  0.0520881053629907  1.0000
  N   N4        1.0  0.9866740602319483  0.4980138280671511  0.5520888459283526  1.0000
  O   O1        1.0  0.06766863981668785  0.7109350394229493  0.9148005020132927  1.0000
  O   O2        1.0  0.9323283647214499  0.28906775256772477  0.41479942258311536  1.0000
  O   O3        1.0  0.7109292901110396  0.06767240078150391  0.08519887426993479  1.0000
  O   O4        1.0  0.2890660128143737  0.9323303835727333  0.5851997223284684  1.0000
  O   O5        1.0  0.8172294238708274  0.998427693085901  0.8204789986325735  1.0000
  O   O6        1.0  0.18276411625439698  0.0015822820437775998  0.3204762702503671  1.0000
  O   O7        1.0  0.9984145198296518  0.8172397157794793  0.1795241928791569  1.0000
  O   O8        1.0  0.0015755721599645925  0.1827708330293731  0.6795217826289812  1.0000
  O   O9        1.0  0.9296736705426554  0.757841997176719  0.7831227481062583  1.0000
  O   O10       1.0  0.07033003852534853  0.24216542891814194  0.28312157730078974  1.0000
  O   O11       1.0  0.7578293714334382  0.9296698769638285  0.2168777871683787  1.0000
  O   O12       1.0  0.24215966159260924  0.07032419327668292  0.716878042539328  1.0000
  O   O13       1.0  0.26392759616293654  0.9155562808612884  0.026408714991042394  1.0000
  O   O14       1.0  0.736071020303861  0.08444267033754468  0.5264076283791042  1.0000
  O   O15       1.0  0.9155577946819166  0.2639254927881467  0.9735909964607997  1.0000
  O   O16       1.0  0.08444074902786268  0.7360729793303875  0.4735928152838297  1.0000
  O   O17       1.0  0.26376115959545393  0.2832093232171785  0.8226273910085949  1.0000
  O   O18       1.0  0.7362450311592142  0.7167857024468348  0.3226267186031535  1.0000
  O   O19       1.0  0.2832159224131842  0.26375774908679966  0.1773721063081979  1.0000
  O   O20       1.0  0.7167921478012289  0.7362378772876497  0.677372849913155  1.0000
  O   O21       1.0  0.5581132987350729  0.25769041369427736  0.8167141723837615  1.0000
  O   O22       1.0  0.44189868428032514  0.7423128079772426  0.3167190783421319  1.0000
  O   O23       1.0  0.25768052881009845  0.5581023112387199  0.1832835505475643  1.0000
  O   O24       1.0  0.7423117220610395  0.4418878220422969  0.6832860770389146  1.0000
  F   F1        1.0  0.6549258328490167  0.5359385957316576  0.9115810394853199  1.0000
  F   F2        1.0  0.3450798831693477  0.46406150426437887  0.4115828784099448  1.0000
  F   F3        1.0  0.5359294065801876  0.6549185429621077  0.08841757674466069  1.0000
  F   F4        1.0  0.46406409775343604  0.3450760634587198  0.5884197497543795  1.0000
  F   F5        1.0  0.48959532814355805  0.6556736413360652  0.8351103734383614  1.0000
  F   F6        1.0  0.5104120061091281  0.34432677601284206  0.33511219611421683  1.0000
  F   F7        1.0  0.655677214514391  0.48959207905987506  0.1648860880536276  1.0000
  F   F8        1.0  0.3443273782144871  0.5104117540995858  0.6648893189444536  1.0000
  F   F9        1.0  0.36665425938925733  0.5211827877369473  0.9352566004429547  1.0000
  F   F10       1.0  0.6333523968007029  0.4788158562746503  0.4352599222162254  1.0000
  F   F11       1.0  0.5211798356809255  0.3666530637425325  0.06473945092564999  1.0000
  F   F12       1.0  0.47882394647492543  0.6333457388638735  0.5647409136887802  1.0000
