data_image0
_chemical_formula_structural       Cu3H26C32N4O12
_chemical_formula_sum              "Cu3 H26 C32 N4 O12"
_cell_length_a       7.827854269315739
_cell_length_b       8.679913845818469
_cell_length_c       11.291780112733532
_cell_angle_alpha    85.22371680245976
_cell_angle_beta     76.55056765509157
_cell_angle_gamma    87.15660144632139

_space_group_name_H-M_alt    "P 1"
_space_group_IT_number       1

loop_
  _space_group_symop_operation_xyz
  'x, y, z'

loop_
  _atom_site_type_symbol
  _atom_site_label
  _atom_site_symmetry_multiplicity
  _atom_site_fract_x
  _atom_site_fract_y
  _atom_site_fract_z
  _atom_site_occupancy
  Cu  Cu1       1.0  0.8844963042089302  0.6226701290846889  0.4213216478656749  1.0000
  Cu  Cu2       1.0  0.1114159722812573  0.38235709548609975  0.5766669597762191  1.0000
  Cu  Cu3       1.0  0.4973104439582627  0.49756794594487985  0.5012892218375812  1.0000
  H   H1        1.0  0.16149374970350996  0.7720289793542748  0.22663554531912677  1.0000
  H   H2        1.0  0.8397454955202761  0.231640967043802  0.7724154291332184  1.0000
  H   H3        1.0  0.15640692923701496  0.8320693192486174  0.7394397413787317  1.0000
  H   H4        1.0  0.8459836254827734  0.1692690063398459  0.25873329702012177  1.0000
  H   H5        1.0  0.3888943999536707  0.9742928258542133  0.20364158879441877  1.0000
  H   H6        1.0  0.6151168102061177  0.027252454634833598  0.7964808176412532  1.0000
  H   H7        1.0  0.4253543638435174  0.09028991970843236  0.3940455931086931  1.0000
  H   H8        1.0  0.5771687441599695  0.9107640677208831  0.6064910532783261  1.0000
  H   H9        1.0  0.022476982950024593  0.7896300430846424  0.5997947038454969  1.0000
  H   H10       1.0  0.9735466049263126  0.21590168426924086  0.39863408733714323  1.0000
  H   H11       1.0  0.15415200543126417  0.1464836386622465  0.8237205874231608  1.0000
  H   H12       1.0  0.8470425714707873  0.8534016369200895  0.1769712908849641  1.0000
  H   H13       1.0  0.2916555193983967  0.004031518723749599  0.8784000878804294  1.0000
  H   H14       1.0  0.7087622331668089  0.9951120330643732  0.12204461561795904  1.0000
  H   H15       1.0  0.037328720894265616  0.8335661233169133  0.9602565804914536  1.0000
  H   H16       1.0  0.9626826052950789  0.16597556817517045  0.039419828739490015  1.0000
  H   H17       1.0  0.8960212592668028  0.9691322135712068  0.9045072370898242  1.0000
  H   H18       1.0  0.1044505878729893  0.03063097331448009  0.09486353182137464  1.0000
  H   H19       1.0  0.37878065752892803  0.6807232490095244  0.8310592773893007  1.0000
  H   H20       1.0  0.6187339486177094  0.3140772924816915  0.17383127682182223  1.0000
  H   H21       1.0  0.3382831441769056  0.7398957358455076  0.048006977725464126  1.0000
  H   H22       1.0  0.6653749711507825  0.25863534423958606  0.9559683940173332  1.0000
  H   H23       1.0  0.5907151031582458  0.6982926534441275  0.15020151842170293  1.0000
  H   H24       1.0  0.4162734970540356  0.3003690586050921  0.8504200825698548  1.0000
  H   H25       1.0  0.8822531550201803  0.6148118775285524  0.03097522543153991  1.0000
  H   H26       1.0  0.12211551641419047  0.3811241524428651  0.9675182033704818  1.0000
  C   C1        1.0  0.18527744169046653  0.8253627211751319  0.3048816881833575  1.0000
  C   C2        1.0  0.8153677256524999  0.17842829966561874  0.6943217903294681  1.0000
  C   C3        1.0  0.31112896127304174  0.9365888233248325  0.2936082571434114  1.0000
  C   C4        1.0  0.6908615346648405  0.0659994347213484  0.7061154044532785  1.0000
  C   C5        1.0  0.3327290178821087  0.9996121474906798  0.3981097081120596  1.0000
  C   C6        1.0  0.6684172829790499  0.0027556909207007005  0.601872921129001  1.0000
  C   C7        1.0  0.23077458471423987  0.9464144737379948  0.5114161028439739  1.0000
  C   C8        1.0  0.7683663519204342  0.05689803017260431  0.48820613788960554  1.0000
  C   C9        1.0  0.1091165146507009  0.8325444004853819  0.5149399680574974  1.0000
  C   C10       1.0  0.8887043772380211  0.17219601424989858  0.483900587999898  1.0000
  C   C11       1.0  0.2428677277509195  0.024636925482923296  0.6222346121358415  1.0000
  C   C12       1.0  0.7562795520989168  0.9782141997507524  0.3774988796506946  1.0000
  C   C13       1.0  0.17011729788688967  0.021433619775209  0.8446206685617172  1.0000
  C   C14       1.0  0.8306116304598773  0.9782927309039021  0.1555128097067709  1.0000
  C   C15       1.0  0.014926412807675107  0.9582513775947203  0.9414298194136779  1.0000
  C   C16       1.0  0.985318579666085  0.04130464150275509  0.058231418412901866  1.0000
  C   C17       1.0  0.6725051006833881  0.5964092485315149  0.6761699494723318  1.0000
  C   C18       1.0  0.3240055785476556  0.3998906672583899  0.32566826892034584  1.0000
  C   C19       1.0  0.6544735353772423  0.6231188445473919  0.8077769261625889  1.0000
  C   C20       1.0  0.3429698644746394  0.37076485078091537  0.19440857381843568  1.0000
  C   C21       1.0  0.4896620009885666  0.6722314291941626  0.8746801773029916  1.0000
  C   C22       1.0  0.5092122536060585  0.3224628970696343  0.12892735123179483  1.0000
  C   C23       1.0  0.4678015084438342  0.7039646910369014  0.9964576281631711  1.0000
  C   C24       1.0  0.5345330425205432  0.2927369263481267  0.006485774070945651  1.0000
  C   C25       1.0  0.6086409029835593  0.6821916876996069  0.0532400396089088  1.0000
  C   C26       1.0  0.3956499679054203  0.31479218296014716  0.9478402195342001  1.0000
  C   C27       1.0  0.7729996112237882  0.6339434017258794  0.9863375126329006  1.0000
  C   C28       1.0  0.23000921128956966  0.36163620187615914  0.013447749022674305  1.0000
  C   C29       1.0  0.7988225844386105  0.6058863198058545  0.8631112222412513  1.0000
  C   C30       1.0  0.20099976091602656  0.38903800130459826  0.13697705485598283  1.0000
  C   C31       1.0  0.9802208845994611  0.5572450531394183  0.7941696052958633  1.0000
  C   C32       1.0  0.020407563782932008  0.44257224124338984  0.20348435610658563  1.0000
  N   N1        1.0  0.08440324526507939  0.7747261509164785  0.413503537710028  1.0000
  N   N2        1.0  0.9139656060465383  0.22992451598623384  0.58515298946881  1.0000
  N   N3        1.0  0.18827552779720244  0.9469104289345079  0.7314791822583333  1.0000
  N   N4        1.0  0.8130458956377921  0.05432156067823969  0.26795276819264313  1.0000
  O   O1        1.0  0.2977177905433025  0.1598660132676527  0.6111507681420676  1.0000
  O   O2        1.0  0.6996665137013734  0.8435998301037979  0.38949893653600054  1.0000
  O   O3        1.0  0.8046673873028709  0.6513389017886835  0.6001774502704009  1.0000
  O   O4        1.0  0.18928084363505343  0.3489392509760592  0.40256396966270114  1.0000
  O   O5        1.0  0.5444327533697901  0.5246952927128204  0.6550851100867803  1.0000
  O   O6        1.0  0.4536312228872177  0.4680594069972981  0.3466085739228646  1.0000
  O   O7        1.0  0.9841834225805001  0.4301838356286324  0.7400916775600734  1.0000
  O   O8        1.0  0.0175591739784409  0.571126854211009  0.253791583330326  1.0000
  O   O9        1.0  0.10748365685878268  0.6356438637540762  0.7977313623662784  1.0000
  O   O10       1.0  0.8920438796048982  0.3635817249108015  0.20144416140583138  1.0000
  O   O11       1.0  0.7255677250325545  0.4723103376363511  0.42918979827263837  1.0000
  O   O12       1.0  0.2662657507489783  0.534958579820177  0.5647489513914224  1.0000
