data_image0
_chemical_formula_structural       Ag2H20C18N2O6
_chemical_formula_sum              "Ag2 H20 C18 N2 O6"
_cell_length_a       6.992395998028145
_cell_length_b       7.362217081854304
_cell_length_c       9.149971332653147
_cell_angle_alpha    101.59875593935716
_cell_angle_beta     90.00032557494924
_cell_angle_gamma    89.99993785397807

_space_group_name_H-M_alt    "P 1"
_space_group_IT_number       1

loop_
  _space_group_symop_operation_xyz
  'x, y, z'

loop_
  _atom_site_type_symbol
  _atom_site_label
  _atom_site_symmetry_multiplicity
  _atom_site_fract_x
  _atom_site_fract_y
  _atom_site_fract_z
  _atom_site_occupancy
  Ag  Ag1       1.0  0.4277965446674798  0.04525677651093931  0.11638527148224401  1.0000
  Ag  Ag2       1.0  0.9277963007134533  0.9547440422383674  0.8836132836464259  1.0000
  H   H1        1.0  0.05854729746154419  0.4115242531123684  0.2901599392459602  1.0000
  H   H2        1.0  0.5585390329231288  0.5884723915774828  0.7098396274646035  1.0000
  H   H3        1.0  0.2415713459698523  0.7768333678282245  0.21730027042653433  1.0000
  H   H4        1.0  0.7415683373279407  0.22316744171687472  0.7826985686207877  1.0000
  H   H5        1.0  0.2536309481184276  0.7178917733812187  0.03582170774418362  1.0000
  H   H6        1.0  0.7536320828915777  0.2821076504174584  0.9641769625089651  1.0000
  H   H7        1.0  0.5909646468103704  0.6373189452185601  0.05420331885159163  1.0000
  H   H8        1.0  0.0909621188360319  0.36268325204952134  0.9457983672584193  1.0000
  H   H9        1.0  0.4915178201611853  0.7067787211921726  0.38792706063428284  1.0000
  H   H10       1.0  0.9915177501870573  0.29322210595619685  0.6120728650473453  1.0000
  H   H11       1.0  0.7035693577930003  0.600523708159976  0.3069970114352857  1.0000
  H   H12       1.0  0.20356919512390456  0.39947849703867894  0.6930051642223702  1.0000
  H   H13       1.0  0.9180116507249991  0.7941854087479643  0.16160973296927492  1.0000
  H   H14       1.0  0.4180113648071071  0.20580848806661586  0.8383909540460124  1.0000
  H   H15       1.0  0.0731500896375081  0.1034796059516054  0.1848634565421108  1.0000
  H   H16       1.0  0.5731494031762806  0.8965142743977668  0.815137918262508  1.0000
  H   H17       1.0  0.6339674429107519  0.34715311728441384  0.492258391980144  1.0000
  H   H18       1.0  0.13396274703585934  0.6528490673669227  0.5077391069653459  1.0000
  H   H19       1.0  0.4827575759373062  0.0381970034071628  0.47231072217672937  1.0000
  H   H20       1.0  0.9827546733500867  0.9618065884933316  0.5276874208213016  1.0000
  C   C1        1.0  0.4148780866188631  0.4449447241985141  0.1411049702904208  1.0000
  C   C2        1.0  0.9148781213558267  0.5550588668327946  0.8588939711398141  1.0000
  C   C3        1.0  0.49052016456146674  0.6415568084581694  0.14721105701039514  1.0000
  C   C4        1.0  0.9905218116018802  0.3584440186199913  0.8527888643377182  1.0000
  C   C5        1.0  0.5951114451176596  0.7054807326052953  0.2974069803773531  1.0000
  C   C6        1.0  0.0951114753909224  0.29451869958573695  0.7025964683589763  1.0000
  C   C7        1.0  0.6884370641366716  0.8927984718108917  0.31443027933895  1.0000
  C   C8        1.0  0.18843861464757342  0.10720373623340859  0.6855729240636492  1.0000
  C   C9        1.0  0.8556054916336252  0.9149049368644101  0.23503364492972173  1.0000
  C   C10       1.0  0.35560336859948904  0.085094501938606  0.7649676557008078  1.0000
  C   C11       1.0  0.9425790637399702  0.08773014828780387  0.24690707043345128  1.0000
  C   C12       1.0  0.4425773246836401  0.9122679061333586  0.7530932935509115  1.0000
  C   C13       1.0  0.8639124372045118  0.24448390904421305  0.3402420642254782  1.0000
  C   C14       1.0  0.36390875448203275  0.7555155264324753  0.6597581789876301  1.0000
  C   C15       1.0  0.6978080291122384  0.22518867613521823  0.4218052784970538  1.0000
  C   C16       1.0  0.1978022865398401  0.7748121264163288  0.5781922767578251  1.0000
  C   C17       1.0  0.6117145561128439  0.05133994446536861  0.40798562989051856  1.0000
  C   C18       1.0  0.11171300554515541  0.9486608598455818  0.5920137381430521  1.0000
  N   N1        1.0  0.3340543432267822  0.7704536551154323  0.12949836300601453  1.0000
  N   N2        1.0  0.8340519810307612  0.2295471609430635  0.8705008781072223  1.0000
  O   O1        1.0  0.5357221308751933  0.31326669503071974  0.09802478588578371  1.0000
  O   O2        1.0  0.03572605199990161  0.6867341078397614  0.9019753453149875  1.0000
  O   O3        1.0  0.24481206806016328  0.4218018479742441  0.177930472796298  1.0000
  O   O4        1.0  0.7448118017636816  0.5781989500652499  0.8220650997618506  1.0000
  O   O5        1.0  0.9438735404113601  0.4157108534643115  0.3552674482150593  1.0000
  O   O6        1.0  0.443865653681911  0.5842830451713894  0.6447333512167788  1.0000
