data_image0
_chemical_formula_structural       Na4H12C24O26
_chemical_formula_sum              "Na4 H12 C24 O26"
_cell_length_a       6.656768536839814
_cell_length_b       10.324811649121951
_cell_length_c       11.278310430705098
_cell_angle_alpha    97.32348225476679
_cell_angle_beta     89.99944544939608
_cell_angle_gamma    108.81702423128357

_space_group_name_H-M_alt    "P 1"
_space_group_IT_number       1

loop_
  _space_group_symop_operation_xyz
  'x, y, z'

loop_
  _atom_site_type_symbol
  _atom_site_label
  _atom_site_symmetry_multiplicity
  _atom_site_fract_x
  _atom_site_fract_y
  _atom_site_fract_z
  _atom_site_occupancy
  Na  Na1       1.0  0.4505447765495845  0.10882801826284799  0.6254670174822792  1.0000
  Na  Na2       1.0  0.34184471617037104  0.8911716184389746  0.8746708418409243  1.0000
  Na  Na3       1.0  0.5494558745594207  0.8911723329680331  0.3745345934541433  1.0000
  Na  Na4       1.0  0.6581579065820478  0.10882666774995191  0.12533053902585325  1.0000
  H   H1        1.0  0.6350928966381274  0.5968183540220836  0.707458372724517  1.0000
  H   H2        1.0  0.03862179874271728  0.40361360192883217  0.7925683523090755  1.0000
  H   H3        1.0  0.3649041705158568  0.4031778348823849  0.29253834112763144  1.0000
  H   H4        1.0  0.9613843794274644  0.5963887893987522  0.20742993920105599  1.0000
  H   H5        1.0  0.7913912123270278  0.7727374146679793  0.2204963292376831  1.0000
  H   H6        1.0  0.018435471160628922  0.22685411406389022  0.27955052398412056  1.0000
  H   H7        1.0  0.20860742956098477  0.22726192291590047  0.7795078287975415  1.0000
  H   H8        1.0  0.9815626320758712  0.773144146425338  0.7204473073333376  1.0000
  H   H9        1.0  0.6953831558079031  0.9266575243420191  0.713732987192465  1.0000
  H   H10       1.0  0.7688498572690037  0.0735994559849544  0.7863422743683586  1.0000
  H   H11       1.0  0.30461599619435026  0.07334283314875022  0.2862695111196061  1.0000
  H   H12       1.0  0.23114629017811683  0.9264009013172013  0.21366022393036133  1.0000
  C   C1        1.0  0.16947732254363515  0.7967729710116276  0.5806597687074203  1.0000
  C   C2        1.0  0.372971789765181  0.203333211189431  0.9191128751368326  1.0000
  C   C3        1.0  0.8305222893120501  0.20322530228030192  0.41933983738136493  1.0000
  C   C4        1.0  0.6270303604505829  0.7966671337815611  0.0808878484239344  1.0000
  C   C5        1.0  0.07930340847448038  0.6426048364178598  0.5408731706496682  1.0000
  C   C6        1.0  0.43689794243324803  0.3574336857665514  0.9590462835632537  1.0000
  C   C7        1.0  0.9206957340153465  0.357395502010327  0.45912666551542713  1.0000
  C   C8        1.0  0.5631097475269158  0.6425687247179254  0.04095467010052538  1.0000
  C   C9        1.0  0.17112034196382112  0.5515017643613406  0.5834723665569612  1.0000
  C   C10       1.0  0.6196634205916995  0.44869941759812093  0.916440568690355  1.0000
  C   C11       1.0  0.8288747598883647  0.448496502293473  0.4165263521294733  1.0000
  C   C12       1.0  0.38034271365928873  0.551299882332117  0.08355826508429232  1.0000
  C   C13       1.0  0.3623087345058806  0.609967129208023  0.6674905539720372  1.0000
  C   C14       1.0  0.752535994854931  0.3903718689545456  0.8324032148538977  1.0000
  C   C15       1.0  0.6376843486128793  0.3900301047371926  0.3325080496662309  1.0000
  C   C16       1.0  0.24746967320100313  0.6096295024661487  0.16759673637938732  1.0000
  C   C17       1.0  0.9098648096310241  0.5912585216048784  0.4555263520210033  1.0000
  C   C18       1.0  0.3187273579849759  0.4085747621963804  0.04449848611025689  1.0000
  C   C19       1.0  0.09013231412538397  0.4087407841137178  0.5444733690959254  1.0000
  C   C20       1.0  0.6812768141350105  0.5914266218384013  0.9555032398809971  1.0000
  C   C21       1.0  0.8301699894704414  0.6907486053538677  0.39738089780318836  1.0000
  C   C22       1.0  0.13953086584540134  0.3088745644916102  0.1025139046161385  1.0000
  C   C23       1.0  0.16982667443254224  0.30925278456357563  0.6026217155370261  1.0000
  C   C24       1.0  0.8604758885538644  0.6911319826195806  0.8974883965825812  1.0000
  O   O1        1.0  0.3095719957387574  0.871593907038225  0.5243645646822088  1.0000
  O   O2        1.0  0.4383245462552452  0.128453997215658  0.975267174465877  1.0000
  O   O3        1.0  0.6904286458578286  0.1284064251300734  0.47563438410723796  1.0000
  O   O4        1.0  0.5616796258647483  0.8715473868191238  0.024734551525384074  1.0000
  O   O5        1.0  0.0936194096857435  0.8495270474309254  0.6754494139176188  1.0000
  O   O6        1.0  0.24423644167332978  0.1507203113007307  0.8243625338037361  1.0000
  O   O7        1.0  0.9063807122841753  0.15047224576788656  0.3245485324480057  1.0000
  O   O8        1.0  0.7557642157772904  0.8492800526385408  0.1756408518973345  1.0000
  O   O9        1.0  0.3826086901119226  0.710018704357779  0.7448105634736208  1.0000
  O   O10       1.0  0.6729166687565566  0.2903247035627317  0.755066114493964  1.0000
  O   O11       1.0  0.6173924742821271  0.2899826731341903  0.2551902751219686  1.0000
  O   O12       1.0  0.3270880134776775  0.7096777003789398  0.24493395177414362  1.0000
  O   O13       1.0  0.50590178315489  0.5475868977477916  0.648210363408289  1.0000
  O   O14       1.0  0.9585412871534871  0.4528107399522198  0.8517661871379049  1.0000
  O   O15       1.0  0.49409331552648444  0.452411362552823  0.351787467895825  1.0000
  O   O16       1.0  0.04146541064335448  0.5471926903448434  0.1482331067960416  1.0000
  O   O17       1.0  0.766950355890792  0.7779713893137981  0.45786768077306317  1.0000
  O   O18       1.0  0.9891792953649271  0.22166212405116423  0.041911886580251696  1.0000
  O   O19       1.0  0.23304672394642267  0.22202482500745196  0.5421325826083817  1.0000
  O   O20       1.0  0.010811330890525998  0.7783392083012899  0.9580827402923476  1.0000
  O   O21       1.0  0.8431165364712854  0.6779550702351785  0.2814557334858989  1.0000
  O   O22       1.0  0.1651559802329601  0.32151570344455394  0.21843174561324472  1.0000
  O   O23       1.0  0.1568820927334967  0.3220442419319197  0.7185448750200295  1.0000
  O   O24       1.0  0.8348451275586655  0.6784825572332878  0.7815660857175644  1.0000
  O   O25       1.0  0.6437845141012275  0.00010363447289310136  0.7500451326579524  1.0000
  O   O26       1.0  0.35621313562345586  0.999896722923573  0.2499573656474396  1.0000
