data_image0
_chemical_formula_structural       Al2H6C48N24O60
_chemical_formula_sum              "Al2 H6 C48 N24 O60"
_cell_length_a       4.440145950287118
_cell_length_b       28.766138489373546
_cell_length_c       28.766539389667017
_cell_angle_alpha    119.99953854642582
_cell_angle_beta     90.0006709253051
_cell_angle_gamma    90.00063519505754

_space_group_name_H-M_alt    "P 1"
_space_group_IT_number       1

loop_
  _space_group_symop_operation_xyz
  'x, y, z'

loop_
  _atom_site_type_symbol
  _atom_site_label
  _atom_site_symmetry_multiplicity
  _atom_site_fract_x
  _atom_site_fract_y
  _atom_site_fract_z
  _atom_site_occupancy
  Al  Al1       1.0  0.9312383804723154  0.49999863006694767  0.4999956152492402  1.0000
  Al  Al2       1.0  0.9312729433807122  0.16667052309085045  0.8333359845772321  1.0000
  H   H1        1.0  0.47365640528698794  0.38532561616247557  0.7211763704055727  1.0000
  H   H2        1.0  0.47374761028741835  0.2813200715109189  0.6121261197504423  1.0000
  H   H3        1.0  0.4736324510687879  0.8358583349871226  0.6146747185550864  1.0000
  H   H4        1.0  0.4737803798580842  0.8308030741919978  0.7186746677898982  1.0000
  H   H5        1.0  0.47357501710666833  0.2788195754226522  0.1641441588122987  1.0000
  H   H6        1.0  0.4738696493828981  0.387874536391287  0.1691954397238433  1.0000
  C   C1        1.0  0.4367529508509023  0.4751288414680488  0.4202394052440752  1.0000
  C   C2        1.0  0.43674911295006064  0.44510976714622075  0.524866202750637  1.0000
  C   C3        1.0  0.43675283247482344  0.5797554574150254  0.5548861974238548  1.0000
  C   C4        1.0  0.43679246709496067  0.22155281120571857  0.8084559857730297  1.0000
  C   C5        1.0  0.4367617222227196  0.0869093207471892  0.7784546485314011  1.0000
  C   C6        1.0  0.436802143033951  0.19154476785897848  0.9130926099348071  1.0000
  C   C7        1.0  0.4699873005408506  0.2527904507410952  0.7785736658110026  1.0000
  C   C8        1.0  0.5238451009653602  0.22695377050149554  0.7231568224327987  1.0000
  C   C9        1.0  0.5534521938318093  0.2551256317255479  0.6956108733440658  1.0000
  C   C10       1.0  0.4903941137679055  0.3104921969099337  0.7198599359134832  1.0000
  C   C11       1.0  0.4409168063230097  0.33592096846439284  0.7758258262149056  1.0000
  C   C12       1.0  0.45213053428078354  0.3088964806571824  0.8046676593510895  1.0000
  C   C13       1.0  0.4871961563405875  0.34248888655398696  0.6933767047238533  1.0000
  C   C14       1.0  0.48721823280721577  0.3241578766096324  0.6399296714834718  1.0000
  C   C15       1.0  0.4409263018626319  0.3307336039947798  0.5574835398436662  1.0000
  C   C16       1.0  0.4903984443813911  0.3561584012671943  0.6134502754440234  1.0000
  C   C17       1.0  0.5534173013474443  0.41152780570009634  0.6377045890769821  1.0000
  C   C18       1.0  0.5238078726920533  0.43970532653897004  0.6101638965448544  1.0000
  C   C19       1.0  0.4699642583872787  0.41386882078326453  0.5547444148980176  1.0000
  C   C20       1.0  0.4521239998322456  0.3577647895474455  0.5286476021843143  1.0000
  C   C21       1.0  0.4699667068972246  0.02578946624571907  0.7472148148592623  1.0000
  C   C22       1.0  0.5238182706757756  0.9962068268099459  0.7730488118306482  1.0000
  C   C23       1.0  0.5534268374544667  0.9404880734392764  0.7448774592404348  1.0000
  C   C24       1.0  0.4903806357096983  0.9093719526461399  0.6895098847174025  1.0000
  C   C25       1.0  0.44091166513018715  0.9399157819694323  0.6640858036685061  1.0000
  C   C26       1.0  0.45210126828917657  0.9957819968052704  0.6911100833818296  1.0000
  C   C27       1.0  0.48718372962501627  0.8508941846266252  0.6575134081179358  1.0000
  C   C28       1.0  0.48722821421291224  0.8157726329126688  0.6758417886722583  1.0000
  C   C29       1.0  0.44093350146203386  0.7267487492335506  0.6692650972763942  1.0000
  C   C30       1.0  0.49041172873670996  0.7572932598743803  0.6438392917762386  1.0000
  C   C31       1.0  0.5534447159381201  0.7261785091233861  0.5884714850649502  1.0000
  C   C32       1.0  0.5238164910192892  0.6704601760027131  0.5602953328436727  1.0000
  C   C33       1.0  0.4699690880938333  0.6408769505959809  0.5861308828019175  1.0000
  C   C34       1.0  0.4521282973128463  0.6708818138649093  0.6422332737411195  1.0000
  C   C35       1.0  0.47000715873259946  0.22142581957808707  0.9742128002117667  1.0000
  C   C36       1.0  0.5238757292672959  0.2768434173069991  0.003794521086661006  1.0000
  C   C37       1.0  0.5534724655176789  0.3043893136805735  0.059512435024714656  1.0000
  C   C38       1.0  0.4904117941836219  0.2801383535566515  0.09062801770473067  1.0000
  C   C39       1.0  0.44093502347212876  0.22417127136178291  0.060088511826911876  1.0000
  C   C40       1.0  0.45214094795556997  0.19532974979024692  0.0042230067464359144  1.0000
  C   C41       1.0  0.4871898567218834  0.3066201642239577  0.149107654707251  1.0000
  C   C42       1.0  0.4872629305392309  0.36006928919802306  0.1842248777743336  1.0000
  C   C43       1.0  0.4409397258936139  0.4425148095132981  0.27324706813278965  1.0000
  C   C44       1.0  0.49041690944371646  0.3865460683891015  0.2427047017965052  1.0000
  C   C45       1.0  0.5534421834417528  0.36229198407254876  0.2738203749664052  1.0000
  C   C46       1.0  0.5238111366410934  0.3898326415748698  0.32953706254100007  1.0000
  C   C47       1.0  0.4699736796665092  0.4452507008979866  0.3591193180421826  1.0000
  C   C48       1.0  0.45213847011756764  0.47134962873645486  0.32911309683885986  1.0000
  N   N1        1.0  0.46655917709858125  0.3415178256172452  0.8641828978771287  1.0000
  N   N2        1.0  0.38148957222211516  0.3946299558142884  0.8057032866755521  1.0000
  N   N3        1.0  0.567777324766375  0.1679694457224699  0.6929052808277021  1.0000
  N   N4        1.0  0.6686772088069333  0.22602338519625692  0.6396560488637988  1.0000
  N   N5        1.0  0.6686058834070961  0.44062685524821876  0.6936606382953769  1.0000
  N   N6        1.0  0.567719608468323  0.4986896140838723  0.6404234314075409  1.0000
  N   N7        1.0  0.38153311717972827  0.272023743315998  0.527599583169561  1.0000
  N   N8        1.0  0.4665209861936574  0.3251499961053738  0.4691300849639859  1.0000
  N   N9        1.0  0.46648809730339014  0.022682570871595  0.6584932849820433  1.0000
  N   N10       1.0  0.38150719015285267  0.9110920156417991  0.6053768304012336  1.0000
  N   N11       1.0  0.5677662493665138  0.02493560703454986  0.8320334319511673  1.0000
  N   N12       1.0  0.6685943714340609  0.9136319973123507  0.7739788244429988  1.0000
  N   N13       1.0  0.6686299705874176  0.7530393586869336  0.5593744980716266  1.0000
  N   N14       1.0  0.5677284326962778  0.6417358060086755  0.5013100418416129  1.0000
  N   N15       1.0  0.381492783903809  0.7555732189707599  0.7279715594888287  1.0000
  N   N16       1.0  0.46651324077208045  0.6439799955517812  0.6748513719506589  1.0000
  N   N17       1.0  0.46653360255200477  0.1358113143257926  0.9773246494420179  1.0000
  N   N18       1.0  0.3815203394110894  0.19428816281023842  0.08891450555699981  1.0000
  N   N19       1.0  0.5678133532459527  0.3071012735043795  0.9750671797792949  1.0000
  N   N20       1.0  0.6686541426377415  0.3603469801854827  0.08636845874006838  1.0000
  N   N21       1.0  0.6686358163964031  0.3063353747099242  0.24696340757743943  1.0000
  N   N22       1.0  0.5677308762300156  0.3595715629660035  0.3582616611921737  1.0000
  N   N23       1.0  0.38150921739852345  0.47239606607315204  0.2444204234354004  1.0000
  N   N24       1.0  0.4665375534318201  0.5308688566638367  0.35601352754039084  1.0000
  O   O1        1.0  0.6608863116695787  0.5521024335314948  0.5534725383415733  1.0000
  O   O2        1.0  0.6608872192282574  0.5013721960183872  0.4478934638057694  1.0000
  O   O3        1.0  0.6608804337302416  0.44652292291805645  0.49862328675335726  1.0000
  O   O4        1.0  0.1807035447921805  0.5629731073817368  0.5340204940343014  1.0000
  O   O5        1.0  0.1806998748285338  0.46597634496943385  0.5289473900619939  1.0000
  O   O6        1.0  0.1807055557086912  0.47104762315093746  0.43702169173906213  1.0000
  O   O7        1.0  0.6609459321668041  0.16530481372350178  0.8854443723019187  1.0000
  O   O8        1.0  0.6609279427977413  0.22014452899753686  0.8346997733392953  1.0000
  O   O9        1.0  0.6609063001180502  0.11456379572247499  0.779864953931053  1.0000
  O   O10       1.0  0.18076501977870407  0.19562575020223966  0.8963080666048171  1.0000
  O   O11       1.0  0.18072423955609906  0.10369677122569244  0.7993190159903278  1.0000
  O   O12       1.0  0.18074592624233785  0.20068776044139713  0.8043791215137048  1.0000
  O   O13       1.0  0.7003673047760658  0.3350638836292178  0.8832853325258442  1.0000
  O   O14       1.0  0.25730906045839674  0.3722608055080058  0.8880735875155068  1.0000
  O   O15       1.0  0.1475355855792984  0.4089274165690141  0.7931887002133066  1.0000
  O   O16       1.0  0.5700802676354968  0.42326034959009456  0.8390712135430006  1.0000
  O   O17       1.0  0.37231907138632886  0.14122911708076924  0.6992944296936728  1.0000
  O   O18       1.0  0.7943200019713572  0.15137247239562876  0.6645412534447956  1.0000
  O   O19       1.0  0.9224281582842552  0.2399947852453296  0.6339182955568249  1.0000
  O   O20       1.0  0.5043985336532659  0.1925381857314932  0.60446437813129  1.0000
  O   O21       1.0  0.9223495132252352  0.4266540630894228  0.6994050413336268  1.0000
  O   O22       1.0  0.5043120258625182  0.4741147475424156  0.728847767649583  1.0000
  O   O23       1.0  0.372229001374059  0.5254267313362179  0.6340402929567475  1.0000
  O   O24       1.0  0.7942994237336974  0.5152867889140821  0.668786066909206  1.0000
  O   O25       1.0  0.14760833938526466  0.2577170130786968  0.5401169297732196  1.0000
  O   O26       1.0  0.570112456167017  0.24340377285000153  0.49422603346759786  1.0000
  O   O27       1.0  0.7003371268366648  0.33160377391845225  0.45003432267508703  1.0000
  O   O28       1.0  0.2572285547965194  0.29440977796690493  0.4452393359040697  1.0000
  O   O29       1.0  0.7003013933059066  0.04823412116387251  0.6649424995285642  1.0000
  O   O30       1.0  0.25720526957060486  0.015833345596845964  0.6277588601576553  1.0000
  O   O31       1.0  0.14756742667466227  0.8842724122652043  0.5910684894334252  1.0000
  O   O32       1.0  0.5700834019968467  0.9158399172258032  0.5767530094558567  1.0000
  O   O33       1.0  0.37231992709433825  0.05806210562409585  0.8587696367229611  1.0000
  O   O34       1.0  0.7943175726883992  0.013166789756283466  0.8486304804905416  1.0000
  O   O35       1.0  0.9223370428251412  0.8939159573519005  0.7600107058124762  1.0000
  O   O36       1.0  0.5043014400639478  0.9119325995807583  0.8074654763058005  1.0000
  O   O37       1.0  0.9223683655735827  0.7727574972272391  0.5733499472488005  1.0000
  O   O38       1.0  0.5043346039182098  0.7547360445759069  0.5258859283265451  1.0000
  O   O39       1.0  0.37223940764901187  0.6086149127115803  0.4745738120664171  1.0000
  O   O40       1.0  0.7942973499065359  0.6535043407154717  0.48471834265706804  1.0000
  O   O41       1.0  0.14754477366851398  0.7823860872946895  0.7422655261143731  1.0000
  O   O42       1.0  0.5700685890296526  0.7508265619432564  0.7565982407914262  1.0000
  O   O43       1.0  0.7003174562129358  0.6184271739261574  0.6684008987151059  1.0000
  O   O44       1.0  0.2572174857479723  0.6508323157078307  0.7055888803198584  1.0000
  O   O45       1.0  0.7003238069043506  0.11671214662374031  0.9517714598118373  1.0000
  O   O46       1.0  0.25725610365867624  0.1119253432380987  0.98417855955946  1.0000
  O   O47       1.0  0.14757454681367926  0.20680114141108422  0.11572744727941144  1.0000
  O   O48       1.0  0.5701118622338014  0.16092008136143218  0.08417260061649759  1.0000
  O   O49       1.0  0.3723700855228743  0.30070906862609087  0.941935374021277  1.0000
  O   O50       1.0  0.7943726871047475  0.3354645957676822  0.9868369269414146  1.0000
  O   O51       1.0  0.9224035168098156  0.3660917128149633  0.10608247207778729  1.0000
  O   O52       1.0  0.5043523108708355  0.39553219212992735  0.0880676565427336  1.0000
  O   O53       1.0  0.9223765171497504  0.3005950704567937  0.2272502236313372  1.0000
  O   O54       1.0  0.5043425934859512  0.2711462611069138  0.2452607006814986  1.0000
  O   O55       1.0  0.37224780449930966  0.3659570986110481  0.3913827731590374  1.0000
  O   O56       1.0  0.7942895306652388  0.3312108755922338  0.3464929555122538  1.0000
  O   O57       1.0  0.14755822820259107  0.4598780721484842  0.21760807347850883  1.0000
  O   O58       1.0  0.5700967378873116  0.5057693773873809  0.24916676557025147  1.0000
  O   O59       1.0  0.7003400866934156  0.5499674875945431  0.3815682000656224  1.0000
  O   O60       1.0  0.25726349537238496  0.554753403519598  0.34915818189723064  1.0000
