data_image0
_chemical_formula_structural       Zn8H8C44N4O26F8
_chemical_formula_sum              "Zn8 H8 C44 N4 O26 F8"
_cell_length_a       18.855333516400652
_cell_length_b       18.979284790768673
_cell_length_c       18.97948947925615
_cell_angle_alpha    94.2926589657323
_cell_angle_beta     117.47339719844383
_cell_angle_gamma    117.47093582757432

_space_group_name_H-M_alt    "P 1"
_space_group_IT_number       1

loop_
  _space_group_symop_operation_xyz
  'x, y, z'

loop_
  _atom_site_type_symbol
  _atom_site_label
  _atom_site_symmetry_multiplicity
  _atom_site_fract_x
  _atom_site_fract_y
  _atom_site_fract_z
  _atom_site_occupancy
  Zn  Zn1       1.0  0.9213963684826897  0.12419323272231254  0.7057976033885398  1.0000
  Zn  Zn2       1.0  0.08392416393226662  0.7077262878311645  0.2902974671009987  1.0000
  Zn  Zn3       1.0  0.08393223344225488  0.2903103436575379  0.7077439473953079  1.0000
  Zn  Zn4       1.0  0.9160621855162461  0.7096909058198122  0.2922562575708981  1.0000
  Zn  Zn5       1.0  0.9160724451086041  0.29227368960167155  0.7097010175559506  1.0000
  Zn  Zn6       1.0  0.07860203455177145  0.8758086553241143  0.294207117482877  1.0000
  Zn  Zn7       1.0  0.07859720552664845  0.2941968194294732  0.875808149553663  1.0000
  Zn  Zn8       1.0  0.9214040247315793  0.7058076246746622  0.1241933201563087  1.0000
  H   H1        1.0  0.06046374663519344  0.9320073373526514  0.6627409408499363  1.0000
  H   H2        1.0  0.003259439178592237  0.9742572326197847  0.6720212188807511  1.0000
  H   H3        1.0  0.939537855083792  0.067995827905321  0.3372658740735731  1.0000
  H   H4        1.0  0.9967395406854251  0.025742741617271706  0.3279852065491512  1.0000
  H   H5        1.0  0.9404570960896166  0.3376052011111171  0.06859785748128648  1.0000
  H   H6        1.0  0.9971916263090252  0.3281774844891672  0.02586118886639356  1.0000
  H   H7        1.0  0.059503201343531625  0.662390289091839  0.9313814701779962  1.0000
  H   H8        1.0  0.002814943460052202  0.6718307724058974  0.9741672580609446  1.0000
  C   C1        1.0  0.9936388634099629  0.38831981471992805  0.8851133476504317  1.0000
  C   C2        1.0  0.07204307467164033  0.08112628495282341  0.5186105083983676  1.0000
  C   C3        1.0  0.07224578235471325  0.5188357419020522  0.08110820590962228  1.0000
  C   C4        1.0  0.9277558552880619  0.4811693409191237  0.9188924448605249  1.0000
  C   C5        1.0  0.9279531106193277  0.9188730500464147  0.4813940562499257  1.0000
  C   C6        1.0  0.36313558691625764  0.4327952762434535  0.9355167452228201  1.0000
  C   C7        1.0  0.636867005722941  0.5672027966352644  0.0644780305787834  1.0000
  C   C8        1.0  0.6368610201625841  0.06450691052253894  0.5672204388083062  1.0000
  C   C9        1.0  0.006362528190592915  0.6116801656127324  0.11488786592362038  1.0000
  C   C10       1.0  0.36313119414470674  0.9354917888808744  0.43277540109355794  1.0000
  C   C11       1.0  0.45132802894316637  0.4761020259984791  0.9770049332689369  1.0000
  C   C12       1.0  0.5486643696979315  0.5238903054498608  0.02297787486490686  1.0000
  C   C13       1.0  0.5486712611761959  0.023002399194098203  0.5239058204716542  1.0000
  C   C14       1.0  0.4513334024330151  0.9770065126217277  0.47609545306258394  1.0000
  C   C15       1.0  0.0063210788748833  0.1148976621091222  0.6116489452510336  1.0000
  C   C16       1.0  0.9999912390748023  0.43183509314936697  0.5681571175127191  1.0000
  C   C17       1.0  9.689773740692117e-06  0.5681782833292174  0.4318380251021027  1.0000
  C   C18       1.0  0.9999957266477111  0.475762897275665  0.5242360422066455  1.0000
  C   C19       1.0  5.8310447884424544e-06  0.5242364391740537  0.4757741572360104  1.0000
  C   C20       1.0  0.9936775310849272  0.8851055007325217  0.3883570190201625  1.0000
  C   C21       1.0  0.7408026287587575  0.1166084423850648  0.618806363986245  1.0000
  C   C22       1.0  0.25919616872794665  0.8833902626316006  0.3811909264666016  1.0000
  C   C23       1.0  0.2591939896237464  0.3812189595230465  0.8834148914424063  1.0000
  C   C24       1.0  0.74080503107367  0.6187829333921686  0.11658379151867873  1.0000
  C   C25       1.0  0.999991895904721  0.38007746679502236  0.6199137757361017  1.0000
  C   C26       1.0  9.736828445733944e-06  0.619927614911184  0.38008845334950087  1.0000
  C   C27       1.0  5.010360204926055e-06  0.1200480611076742  0.8799502505342859  1.0000
  C   C28       1.0  6.356487817724618e-07  0.879957005309109  0.12005607339791889  1.0000
  C   C29       1.0  5.1320967032154555e-06  0.06820875502201323  0.9317775417164855  1.0000
  C   C30       1.0  1.2120863985462612e-05  0.9317995118946102  0.06822856703536934  1.0000
  C   C31       1.0  8.292954618107934e-06  0.024257333161244805  0.9757404333630078  1.0000
  C   C32       1.0  1.391855690274308e-05  0.975748385615411  0.024268823383650315  1.0000
  C   C33       1.0  0.020469919728889112  0.984438884804597  0.5747683962173157  1.0000
  C   C34       1.0  0.9795282844829103  0.015563639691656306  0.42523786088854393  1.0000
  C   C35       1.0  0.9798179602913778  0.4253540304464067  0.015768889446903512  1.0000
  C   C36       1.0  0.020180669306860684  0.5746491368551007  0.9842307615624649  1.0000
  C   C37       1.0  0.085021631600263  0.007437404860795002  0.5386595738370588  1.0000
  C   C38       1.0  0.9149743532315142  0.9925625662166198  0.4613470531508313  1.0000
  C   C39       1.0  0.9150947280069204  0.46129352820753416  0.9927648181944946  1.0000
  C   C40       1.0  0.08490550502491354  0.5387102786288906  0.0072345645780416195  1.0000
  C   C41       1.0  0.9932895460204844  0.9416947378180042  0.4464394341944243  1.0000
  C   C42       1.0  0.006711051925961409  0.05830778868564582  0.5535673982122589  1.0000
  C   C43       1.0  0.00676005481124534  0.5536263075408955  0.05828261515448228  1.0000
  C   C44       1.0  0.9932411819931276  0.44637813804985177  0.9417167501348802  1.0000
  N   N1        1.0  0.050198376945523884  0.9799849475918666  0.6563907001366901  1.0000
  N   N2        1.0  0.9498002183654608  0.020016302518101305  0.34361458892089314  1.0000
  N   N3        1.0  0.9503317559745739  0.34381526974876664  0.020393976773576343  1.0000
  N   N4        1.0  0.049662280067423355  0.6561872559731586  0.9796045657151495  1.0000
  O   O1        1.0  0.9999970899034095  0.24979185680216895  0.7502126410065133  1.0000
  O   O2        1.0  0.953963319970363  0.6389077641786686  0.0765481185126831  1.0000
  O   O3        1.0  0.9538966380251638  0.0765402083256745  0.6388453923410541  1.0000
  O   O4        1.0  0.04610176664583336  0.9234616800924017  0.3611588024252087  1.0000
  O   O5        1.0  0.7796750195497283  0.19694051805788604  0.6431847606173309  1.0000
  O   O6        1.0  0.22032480789408043  0.8030588316595912  0.3568040946699045  1.0000
  O   O7        1.0  0.22032498493201305  0.35683990672220034  0.8030831565423213  1.0000
  O   O8        1.0  0.7796692938791383  0.6431677207449199  0.1969158753528079  1.0000
  O   O9        1.0  0.9999996919533491  0.7502100481694216  0.24978908642427927  1.0000
  O   O10       1.0  0.9349436349543582  0.35507548552239143  0.6351794522024791  1.0000
  O   O11       1.0  0.06506059843880528  0.6449308729864358  0.364824595583727  1.0000
  O   O12       1.0  0.06504819326222847  0.3648205162043611  0.6449250437005675  1.0000
  O   O13       1.0  0.93494842232478  0.6351794627150937  0.3550713365357724  1.0000
  O   O14       1.0  0.05552547719646133  0.20055283021680034  0.9202069285191499  1.0000
  O   O15       1.0  0.9444745439204355  0.799451610096213  0.07979819932905505  1.0000
  O   O16       1.0  0.9444791270604967  0.07979136701185041  0.7994423211915703  1.0000
  O   O17       1.0  0.05552867492139771  0.9202130801039416  0.20056428180544125  1.0000
  O   O18       1.0  0.782658637728538  0.07730488731235141  0.6346531966059674  1.0000
  O   O19       1.0  0.2173385268669251  0.922693171479594  0.36535383197644933  1.0000
  O   O20       1.0  0.21733255879944832  0.36535063925752814  0.9227147153215683  1.0000
  O   O21       1.0  0.7826703498982682  0.6346404139784099  0.07728706278879846  1.0000
  O   O22       1.0  0.943810352671811  0.3719231985428024  0.8054545541037187  1.0000
  O   O23       1.0  0.05617456144438676  0.6280640113868973  0.19454550461188103  1.0000
  O   O24       1.0  0.05621136312544194  0.19456276105573525  0.6281095891420136  1.0000
  O   O25       1.0  0.9437872338220787  0.805438489425889  0.3718951738104154  1.0000
  O   O26       1.0  0.04605355344469334  0.3611062590476806  0.9234570470372249  1.0000
  F   F1        1.0  0.16885531614995133  0.011442136956276302  0.5756544226808415  1.0000
  F   F2        1.0  0.14325632696272814  0.1613129548953935  0.5367360794173166  1.0000
  F   F3        1.0  0.14364560081278904  0.5371707505131623  0.1612812298305997  1.0000
  F   F4        1.0  0.8563562291065026  0.46283369437156113  0.8387199891257142  1.0000
  F   F5        1.0  0.8567394525802355  0.8386857417584539  0.4632687780656469  1.0000
  F   F6        1.0  0.8311400706572983  0.9885578337122072  0.42435192895555235  1.0000
  F   F7        1.0  0.8313872698509712  0.4242853353973502  0.9889710007760186  1.0000
  F   F8        1.0  0.16861354001041928  0.5757165576297112  0.011030086555003074  1.0000
