data_image0
_chemical_formula_structural       Al4H52C64O24F4
_chemical_formula_sum              "Al4 H52 C64 O24 F4"
_cell_length_a       6.663330937177367
_cell_length_b       19.48206034155353
_cell_length_c       19.99970279885268
_cell_angle_alpha    98.89774338373203
_cell_angle_beta     90.00079327493354
_cell_angle_gamma    89.99961266514426

_space_group_name_H-M_alt    "P 1"
_space_group_IT_number       1

loop_
  _space_group_symop_operation_xyz
  'x, y, z'

loop_
  _atom_site_type_symbol
  _atom_site_label
  _atom_site_symmetry_multiplicity
  _atom_site_fract_x
  _atom_site_fract_y
  _atom_site_fract_z
  _atom_site_occupancy
  Al  Al1       1.0  0.2268126878788266  0.2505383840963376  0.24750288899168282  1.0000
  Al  Al2       1.0  0.7642011615407966  0.7502190550091042  0.750792825045629  1.0000
  Al  Al3       1.0  0.726817984903981  0.24946803704749948  0.25250319834946583  1.0000
  Al  Al4       1.0  0.2641974512817953  0.7497859071022431  0.7492123083953147  1.0000
  H   H1        1.0  0.31822840740548486  0.012132910092127204  0.4463518817098875  1.0000
  H   H2        1.0  0.6985872974139654  0.937227202270698  0.5011258985682617  1.0000
  H   H3        1.0  0.8182042322867603  0.4878833606796037  0.0536692970323713  1.0000
  H   H4        1.0  0.19854213303861457  0.562735425530917  0.998830793760739  1.0000
  H   H5        1.0  0.6820009062713268  0.13062487132596348  0.405221502990699  1.0000
  H   H6        1.0  0.31626202257447034  0.903263267674262  0.6303755102317511  1.0000
  H   H7        1.0  0.18198991415691523  0.36936889805065926  0.09476867786260361  1.0000
  H   H8        1.0  0.8162842016166605  0.596745364740876  0.8696374468890087  1.0000
  H   H9        1.0  0.6870594711014775  0.048321159237339414  0.488130989630868  1.0000
  H   H10       1.0  0.31611846492867096  0.9907375843221828  0.5521991171111509  1.0000
  H   H11       1.0  0.18706592011161402  0.45166035192649184  0.011846538418943502  1.0000
  H   H12       1.0  0.8161441174354637  0.5092795836500982  0.9478224587432326  1.0000
  H   H13       1.0  0.7290145860226077  0.16351907894809867  0.04413647530396502  1.0000
  H   H14       1.0  0.24293826326907458  0.836866551906347  0.9557712687594703  1.0000
  H   H15       1.0  0.2290132870099981  0.3364856808164092  0.4558721476000189  1.0000
  H   H16       1.0  0.7429380731284069  0.6631384450536685  0.5442337721548471  1.0000
  H   H17       1.0  0.2644290397569975  0.92282807611619  0.06121326533772733  1.0000
  H   H18       1.0  0.6985403674406855  0.0751210594213845  0.9400854835999796  1.0000
  H   H19       1.0  0.7644304733240972  0.5771714694851227  0.4387961703187174  1.0000
  H   H20       1.0  0.19852833450326557  0.4248857305875689  0.5599197097856533  1.0000
  H   H21       1.0  0.4371093025778165  0.09723012134957541  0.14612175315423315  1.0000
  H   H22       1.0  0.4586761309830364  0.0187373121884846  0.08697325699242243  1.0000
  H   H23       1.0  0.4173245580690264  0.028324722327496905  0.2411560826933511  1.0000
  H   H24       1.0  0.4268846069015951  0.9501132199539056  0.18355292343899526  1.0000
  H   H25       1.0  0.777386951160743  0.9800601858890089  0.1480577674185  1.0000
  H   H26       1.0  0.7659080661834421  0.977916160807652  0.2362734626500541  1.0000
  H   H27       1.0  0.7678539125317059  0.058675920849829304  0.2056921654882303  1.0000
  H   H28       1.0  0.7730163420930366  0.9451909333644581  0.7594710237962162  1.0000
  H   H29       1.0  0.0187036042002049  0.9497820266407119  0.7947372205419969  1.0000
  H   H30       1.0  0.7350820624291431  0.07307878875614901  0.790832664182574  1.0000
  H   H31       1.0  0.9673766382616976  0.07855938170843049  0.8339791699012765  1.0000
  H   H32       1.0  0.1500913031617799  0.03970530922171632  0.7245492679569809  1.0000
  H   H33       1.0  0.0029373123804888003  0.11438205885050931  0.7183582417824824  1.0000
  H   H34       1.0  0.9197925824068063  0.031028947665547025  0.6797542154261579  1.0000
  H   H35       1.0  0.9371308262998  0.40277722261760823  0.3538933469602982  1.0000
  H   H36       1.0  0.9586745689291616  0.4812648265336462  0.41305153817727114  1.0000
  H   H37       1.0  0.9173797887967295  0.47168506587606635  0.2588645018216767  1.0000
  H   H38       1.0  0.926849960688969  0.5498959003997045  0.31647090057026633  1.0000
  H   H39       1.0  0.2773440076110845  0.519974671045304  0.3520003703967518  1.0000
  H   H40       1.0  0.2659184319823211  0.5221386228467182  0.2637871984472397  1.0000
  H   H41       1.0  0.2679203619456061  0.44136994663092816  0.2943501075074764  1.0000
  H   H42       1.0  0.2730040881080881  0.5548023629447058  0.7405351343748806  1.0000
  H   H43       1.0  0.5186913303687035  0.5502225104436392  0.7052713959993329  1.0000
  H   H44       1.0  0.23509722086689777  0.42691505766409676  0.7091559646599281  1.0000
  H   H45       1.0  0.4674006110689106  0.42144427705595416  0.6660165632423871  1.0000
  H   H46       1.0  0.6500874190599645  0.46029239695954516  0.7754562004997896  1.0000
  H   H47       1.0  0.5029441552085103  0.38561201256703004  0.7816349415864325  1.0000
  H   H48       1.0  0.4197785297830876  0.4689610838850413  0.8202422924506794  1.0000
  H   H49       1.0  0.46937733208448407  0.16651876295771467  0.26916305948353886  1.0000
  H   H50       1.0  0.5131420213702498  0.8349509258976153  0.7896841254899202  1.0000
  H   H51       1.0  0.9693710739611417  0.3334888802426477  0.23084459291555257  1.0000
  H   H52       1.0  0.0131383518874699  0.6650561084231441  0.7103239663803083  1.0000
  C   C1        1.0  0.47398464255878275  0.33780911144104653  0.35000754509888315  1.0000
  C   C2        1.0  0.515300440482072  0.6603821983533604  0.6518154211520725  1.0000
  C   C3        1.0  0.9739783740955731  0.1621962326673199  0.14999860457280792  1.0000
  C   C4        1.0  0.0153216051190768  0.8396238436161312  0.848189642463858  1.0000
  C   C5        1.0  0.4826372706497394  0.33028145498183653  0.16877742120386335  1.0000
  C   C6        1.0  0.5124977203952881  0.672527801135125  0.834303762347901  1.0000
  C   C7        1.0  0.9826414101052734  0.1697258906680332  0.33123180609166525  1.0000
  C   C8        1.0  0.012502512187673199  0.8274680904874926  0.6656921602216245  1.0000
  C   C9        1.0  0.17693381757168675  0.0384435619084016  0.43992515407163085  1.0000
  C   C10       1.0  0.8347991023565767  0.9330070219536212  0.5303482194384374  1.0000
  C   C11       1.0  0.6769104262878542  0.4615698185633548  0.060091861484110616  1.0000
  C   C12       1.0  0.3347706463863815  0.5669674358923017  0.9696237638290771  1.0000
  C   C13       1.0  0.1710914926939182  0.0858962991671035  0.3949662336576055  1.0000
  C   C14       1.0  0.8376789485276318  0.8856521806469004  0.575525906267771  1.0000
  C   C15       1.0  0.6710709060281134  0.4141197374471232  0.105051268185818  1.0000
  C   C16       1.0  0.3376656897406889  0.614323971316331  0.9244471051250045  1.0000
  C   C17       1.0  0.994129675920277  0.1200131243075262  0.38069307229162785  1.0000
  C   C18       1.0  0.0090507319821498  0.8743859174386016  0.6132105118418638  1.0000
  C   C19       1.0  0.49410899306826644  0.3799946367747964  0.11931569998931484  1.0000
  C   C20       1.0  0.509049047807295  0.6256026298949421  0.8867777907990375  1.0000
  C   C21       1.0  0.8206692586087314  0.1045807060767032  0.41544930437150646  1.0000
  C   C22       1.0  0.18167700257939856  0.9123678888305661  0.6020578333914558  1.0000
  C   C23       1.0  0.3206633325022992  0.39541635400259867  0.08454755873483322  1.0000
  C   C24       1.0  0.6816870336309294  0.5876300581043665  0.8979438897751068  1.0000
  C   C25       1.0  0.8239272993250353  0.0577637718614596  0.4611351028036383  1.0000
  C   C26       1.0  0.18111132097809698  0.9604610382975803  0.5575470543536769  1.0000
  C   C27       1.0  0.3239260544251792  0.4422259329295528  0.038854169578066006  1.0000
  C   C28       1.0  0.681124150543404  0.5395402280417869  0.9424561913792933  1.0000
  C   C29       1.0  0.0023193050034607  0.02327738954856782  0.47395242380446245  1.0000
  C   C30       1.0  0.006673667855857001  0.9721135004055268  0.521187639639422  1.0000
  C   C31       1.0  0.502312206740065  0.4767207468761967  0.026046596544027502  1.0000
  C   C32       1.0  0.5066687315521392  0.5278774215877249  0.9788026815242152  1.0000
  C   C33       1.0  0.9619386012161755  0.10813640091699027  0.0886212065429461  1.0000
  C   C34       1.0  0.0235719433078785  0.8950056291501838  0.9083354677653832  1.0000
  C   C35       1.0  0.46193436187866144  0.3918666743220953  0.4113899449433661  1.0000
  C   C36       1.0  0.5235733699115812  0.6049990965306762  0.5916711467280538  1.0000
  C   C37       1.0  0.16828697379700944  0.9324465110625156  0.019635023051456802  1.0000
  C   C38       1.0  0.8041401055347137  0.06811251393515513  0.9800064792840149  1.0000
  C   C39       1.0  0.6682888283112192  0.5675554836630853  0.48037551698195824  1.0000
  C   C40       1.0  0.3041382772979659  0.43189284130645694  0.5200042301623924  1.0000
  C   C41       1.0  0.15491737604909156  0.884581347910192  0.9616534976836423  1.0000
  C   C42       1.0  0.822244545628834  0.11697782475836502  0.03717313412575152  1.0000
  C   C43       1.0  0.6549133743397703  0.6154238344004738  0.5383547017171609  1.0000
  C   C44       1.0  0.3222486270396629  0.383026386087657  0.4628333640357028  1.0000
  C   C45       1.0  0.9082686315497028  0.9552172416603566  0.9137143862431003  1.0000
  C   C46       1.0  0.0748302216502452  0.04761021781947509  0.0838330199375434  1.0000
  C   C47       1.0  0.40826665320446415  0.5447886696921458  0.586292388608058  1.0000
  C   C48       1.0  0.5748308572353267  0.45238902913096274  0.4161774489918956  1.0000
  C   C49       1.0  0.9217874220333613  0.006670421649310859  0.9727257943474332  1.0000
  C   C50       1.0  0.05652556757230091  0.9950907698275132  0.025810881356775908  1.0000
  C   C51       1.0  0.42178769372143415  0.49333501656533213  0.5272839099267659  1.0000
  C   C52       1.0  0.5565268925127853  0.504909788454725  0.47419866283676987  1.0000
  C   C53       1.0  0.40019719242239665  0.04147951629855841  0.13713201728194246  1.0000
  C   C54       1.0  0.4820076468354059  0.004088077495396207  0.19249767475134416  1.0000
  C   C55       1.0  0.7108016844699563  0.005275025851901204  0.19585858086748695  1.0000
  C   C56       1.0  0.8693605766679369  0.9744056514363847  0.798556446480639  1.0000
  C   C57       1.0  0.8867226410802401  0.0505006982874221  0.789995426933345  1.0000
  C   C58       1.0  0.9953860620462862  0.0593994895291772  0.7245825092129581  1.0000
  C   C59       1.0  0.9002074923262952  0.45852678494806287  0.36288899084068776  1.0000
  C   C60       1.0  0.9820164064269931  0.4959270181580847  0.3075282622221778  1.0000
  C   C61       1.0  0.2108029642941318  0.49476157537518617  0.3041859528639038  1.0000
  C   C62       1.0  0.3693547701369795  0.5255953063630088  0.7014476184562357  1.0000
  C   C63       1.0  0.3867313887089736  0.44949862990210215  0.7100009572726338  1.0000
  C   C64       1.0  0.49538420403683137  0.44059563202470997  0.7754148449838568  1.0000
  O   O1        1.0  0.6471307374453872  0.3102669845158346  0.19108928332224207  1.0000
  O   O2        1.0  0.3437091400815362  0.6892514040807711  0.8121516542618041  1.0000
  O   O3        1.0  0.147151703983333  0.18974438796237078  0.3089210211298196  1.0000
  O   O4        1.0  0.843695532823645  0.8107453266432642  0.6878447008440817  1.0000
  O   O5        1.0  0.30573661632072907  0.3172945880026177  0.3239487762965255  1.0000
  O   O6        1.0  0.6840121232421268  0.6835082653174424  0.6754797968811204  1.0000
  O   O7        1.0  0.8057415368550593  0.18271592890284438  0.1760551341294843  1.0000
  O   O8        1.0  0.18401324541609648  0.8164971861827652  0.8245305535350057  1.0000
  O   O9        1.0  0.3084666508301623  0.3115724630040262  0.18532640062580444  1.0000
  O   O10       1.0  0.6846782926434614  0.6894050226866782  0.814404597875729  1.0000
  O   O11       1.0  0.8084832402124817  0.1884316501198029  0.3146759899520078  1.0000
  O   O12       1.0  0.1846602329486302  0.8105972647707275  0.6855986655572937  1.0000
  O   O13       1.0  0.1464555509659036  0.18339907999381921  0.17129192173496935  1.0000
  O   O14       1.0  0.8447158254859984  0.8185218858376401  0.8250651068765936  1.0000
  O   O15       1.0  0.6464416973890933  0.3166069212615382  0.32871685019262753  1.0000
  O   O16       1.0  0.3447178626046039  0.6814866148789279  0.6749343139091551  1.0000
  O   O17       1.0  0.4763624575291487  0.20705084100296742  0.24648660883936913  1.0000
  O   O18       1.0  0.5139851560919624  0.7931121846660432  0.7562128804785575  1.0000
  O   O19       1.0  0.9763594402663429  0.29295663230441693  0.2535200617722566  1.0000
  O   O20       1.0  0.013983561949871201  0.7068954409612614  0.7437957222840766  1.0000
  O   O21       1.0  0.18335979638243316  0.033884543945603696  0.13838785162680273  1.0000
  O   O22       1.0  0.7799817681215586  0.9681726266154482  0.8634561540748822  1.0000
  O   O23       1.0  0.6833638918811219  0.4661170543155464  0.3616261306892312  1.0000
  O   O24       1.0  0.27997163338857683  0.5318407628113774  0.6365505842706085  1.0000
  F   F1        1.0  0.3474799952410237  0.09647411176597837  0.3636933069384156  1.0000
  F   F2        1.0  0.6664842516899654  0.84910655832968  0.5805114839476746  1.0000
  F   F3        1.0  0.8474609195676024  0.40354775922189373  0.1363280114579553  1.0000
  F   F4        1.0  0.1664550607479711  0.6508620900547726  0.9194536824469427  1.0000
