data_image0
_chemical_formula_structural       Cd2H32C44N4O8
_chemical_formula_sum              "Cd2 H32 C44 N4 O8"
_cell_length_a       8.901488221256379
_cell_length_b       10.320121725325734
_cell_length_c       13.116597445079934
_cell_angle_alpha    99.62286601042459
_cell_angle_beta     93.71262515101306
_cell_angle_gamma    111.80436154676694

_space_group_name_H-M_alt    "P 1"
_space_group_IT_number       1

loop_
  _space_group_symop_operation_xyz
  'x, y, z'

loop_
  _atom_site_type_symbol
  _atom_site_label
  _atom_site_symmetry_multiplicity
  _atom_site_fract_x
  _atom_site_fract_y
  _atom_site_fract_z
  _atom_site_occupancy
  Cd  Cd1       1.0  0.8141062178882167  0.39261474534393415  0.3778745219808427  1.0000
  Cd  Cd2       1.0  0.1858884666937044  0.607380284962602  0.6221226776192237  1.0000
  H   H1        1.0  0.667133724196013  0.5513028526810119  0.537579200115772  1.0000
  H   H2        1.0  0.332863819829825  0.44870386423966835  0.46242202706058305  1.0000
  H   H3        1.0  0.5339796555415502  0.5359528228559399  0.6970106312613209  1.0000
  H   H4        1.0  0.4660169602974447  0.4640517710126274  0.30298949922610047  1.0000
  H   H5        1.0  0.5173141163129813  0.1058659848716772  0.6660498037109616  1.0000
  H   H6        1.0  0.48268410034709325  0.8941396931520629  0.33394978497467775  1.0000
  H   H7        1.0  0.6522323552146432  0.1403134459391779  0.5052864020118619  1.0000
  H   H8        1.0  0.347767658138437  0.8596911907777736  0.494712360084712  1.0000
  H   H9        1.0  0.41374218612040886  0.1996300104967474  0.8146321309584292  1.0000
  H   H10       1.0  0.5862591623660264  0.800372528395144  0.185364875795031  1.0000
  H   H11       1.0  0.40800042010548754  0.49926894967786933  0.8212053960693024  1.0000
  H   H12       1.0  0.5919993022220922  0.5007324549809056  0.17879595658168057  1.0000
  H   H13       1.0  0.277073081685721  0.2725294343087867  0.9566880704236379  1.0000
  H   H14       1.0  0.7229261740146455  0.7274709038161333  0.043313114292452326  1.0000
  H   H15       1.0  0.2837016495536843  0.5745882041239125  0.9620949436903313  1.0000
  H   H16       1.0  0.7163025740765292  0.4254132009110449  0.03790889574803199  1.0000
  H   H17       1.0  0.15364527841336437  0.24494894287192173  0.0900278268923245  1.0000
  H   H18       1.0  0.8463571586589537  0.7550535235009974  0.9099753174968154  1.0000
  H   H19       1.0  0.004057769087268048  0.23556804337222553  0.2431874635642329  1.0000
  H   H20       1.0  0.9959453203490652  0.7644333440414075  0.7568170856107981  1.0000
  H   H21       1.0  0.00014074379330244053  0.6358158173045821  0.24823498956976656  1.0000
  H   H22       1.0  0.9998639464641101  0.3641866542642305  0.7517690178034897  1.0000
  H   H23       1.0  0.1577944196290915  0.6669484600399188  0.09656889141319171  1.0000
  H   H24       1.0  0.8422123380766137  0.3330561622179218  0.9034347420931821  1.0000
  H   H25       1.0  0.12423163414333514  0.8986307383109349  0.6250799177505896  1.0000
  H   H26       1.0  0.8757467101645915  0.10136298877880989  0.37492628940876915  1.0000
  H   H27       1.0  0.8148194615369561  0.8398281198055526  0.34115506380062033  1.0000
  H   H28       1.0  0.1851588929060881  0.1601656273153651  0.658849621720435  1.0000
  H   H29       1.0  0.37067976317498363  0.1665613918682425  0.06839395953852548  1.0000
  H   H30       1.0  0.6293323604019321  0.8334348891672931  0.9315988484996321  1.0000
  H   H31       1.0  0.7322435070108355  0.9922327124925446  0.11132280323782599  1.0000
  H   H32       1.0  0.267769279065206  0.007762509614870804  0.8886698879479267  1.0000
  C   C1        1.0  0.6321183899190217  0.4544497134911935  0.5686895065601759  1.0000
  C   C2        1.0  0.3678770967936416  0.545554872771632  0.43131057284476526  1.0000
  C   C3        1.0  0.558621900454348  0.445375214296682  0.6584020947880304  1.0000
  C   C4        1.0  0.44137451951272055  0.5546315050338534  0.34159832048669597  1.0000
  C   C5        1.0  0.5159285691543971  0.3189916839790641  0.6972296488717901  1.0000
  C   C6        1.0  0.4840696475056774  0.681013994044676  0.30276993981385647  1.0000
  C   C7        1.0  0.5503521029771861  0.207009923114299  0.6403551078515901  1.0000
  C   C8        1.0  0.4496472478767756  0.7929957725307659  0.3596437710973959  1.0000
  C   C9        1.0  0.6238217690231025  0.2250265927735597  0.5506347628322457  1.0000
  C   C10       1.0  0.37617871602473923  0.7749791204928298  0.44936340638007266  1.0000
  C   C11       1.0  0.4363809540168403  0.30056017395143897  0.7898408382175501  1.0000
  C   C12       1.0  0.5636163293888288  0.6994433710045912  0.21015841459831816  1.0000
  C   C13       1.0  0.38667206591332354  0.397808567987326  0.8446747467587413  1.0000
  C   C14       1.0  0.6133253981615993  0.6021928214599723  0.15532650372727363  1.0000
  C   C15       1.0  0.30264893627500555  0.3746736046231476  0.9333290328987756  1.0000
  C   C16       1.0  0.6973525827455802  0.625326758728832  0.06667149316312758  1.0000
  C   C17       1.0  0.2552259467042077  0.4736587833748729  0.9878727430584673  1.0000
  C   C18       1.0  0.744779411119886  0.5263426392814026  0.01213038664322854  1.0000
  C   C19       1.0  0.1690176786394701  0.45796997872508177  0.0780390672573432  1.0000
  C   C20       1.0  0.8309883467513044  0.5420303950186635  0.9219631847727994  1.0000
  C   C21       1.0  0.12377099856497863  0.3354095587949645  0.12204269867086738  1.0000
  C   C22       1.0  0.8762378316565744  0.6645972241674867  0.8779598001494759  1.0000
  C   C23       1.0  0.0399907405023257  0.32889577045045837  0.20765652828627168  1.0000
  C   C24       1.0  0.9600126247568426  0.671108818974581  0.7923477127918017  1.0000
  C   C25       1.0  0.039156279035758114  0.5530941130267806  0.211140642627754  1.0000
  C   C26       1.0  0.960848903186644  0.44690947515381657  0.7888597285846402  1.0000
  C   C27       1.0  0.12550534527948537  0.5688978041742131  0.1263675039384822  1.0000
  C   C28       1.0  0.8745014073586644  0.43110680806803703  0.8736368903870396  1.0000
  C   C29       1.0  0.06915565981668666  0.9431362177512165  0.5709269167528744  1.0000
  C   C30       1.0  0.9308188355526142  0.0568564300030516  0.429078208404995  1.0000
  C   C31       1.0  0.9641619689033049  0.8536605948583686  0.4811148349915442  1.0000
  C   C32       1.0  0.03581789627479278  0.14632888891316748  0.5188908536757068  1.0000
  C   C33       1.0  0.8958040491344119  0.9113251873404096  0.4104172797418925  1.0000
  C   C34       1.0  0.10417296004015239  0.0886706375743955  0.5895906827605798  1.0000
  C   C35       1.0  0.9221772006619202  0.6966329999001599  0.46122386599934356  1.0000
  C   C36       1.0  0.07781202909274036  0.30335985690013695  0.5387735542201567  1.0000
  C   C37       1.0  0.4256132428804306  0.0924612133707328  0.037358186669671084  1.0000
  C   C38       1.0  0.5743998139508975  0.9075372007325058  0.9626349572382719  1.0000
  C   C39       1.0  0.5557219928985191  0.0872980908345653  0.10036560381447397  1.0000
  C   C40       1.0  0.44429239399860887  0.91269821542803  0.8996265455695036  1.0000
  C   C41       1.0  0.6300407358782677  0.994184415676777  0.06192185295654435  1.0000
  C   C42       1.0  0.36997503569779877  0.005815060140612606  0.9380730826895555  1.0000
  C   C43       1.0  0.619187720230542  0.1842299382747683  0.20610989974330343  1.0000
  C   C44       1.0  0.38082100583228135  0.8157662999123899  0.793884276685702  1.0000
  N   N1        1.0  0.6647748748600861  0.346946220685922  0.5148321131955099  1.0000
  N   N2        1.0  0.3352224186806936  0.6530573443012884  0.4851656179820552  1.0000
  N   N3        1.0  0.9959917365283032  0.43498506510559315  0.2515540718735494  1.0000
  N   N4        1.0  0.0040120204747041205  0.5650152733955025  0.7484495996299286  1.0000
  O   O1        1.0  0.9786071849392143  0.6435931454632566  0.527514817679659  1.0000
  O   O2        1.0  0.02138745009713009  0.3563966174634245  0.4724778403151716  1.0000
  O   O3        1.0  0.8257005511291524  0.6200335362035788  0.37806994299824476  1.0000
  O   O4        1.0  0.1742973350949484  0.37996366241331  0.6219261729982718  1.0000
  O   O5        1.0  0.5927320629035221  0.2984701987807695  0.22381636196126917  1.0000
  O   O6        1.0  0.4072696075109477  0.7015227817449698  0.7761785768889524  1.0000
  O   O7        1.0  0.7026974141928193  0.14996202857905416  0.2718567292104979  1.0000
  O   O8        1.0  0.2973113017348935  0.8500341895769239  0.7281389688568111  1.0000
