data_image0
_chemical_formula_structural       Mn2H14C14N2O12
_chemical_formula_sum              "Mn2 H14 C14 N2 O12"
_cell_length_a       7.308181690497106
_cell_length_b       7.919710411428633
_cell_length_c       7.919703395640405
_cell_angle_alpha    100.00464843905173
_cell_angle_beta     100.94883704173118
_cell_angle_gamma    100.94839393755511

_space_group_name_H-M_alt    "P 1"
_space_group_IT_number       1

loop_
  _space_group_symop_operation_xyz
  'x, y, z'

loop_
  _atom_site_type_symbol
  _atom_site_label
  _atom_site_symmetry_multiplicity
  _atom_site_fract_x
  _atom_site_fract_y
  _atom_site_fract_z
  _atom_site_occupancy
  Mn  Mn1       1.0  0.7499969091484004  0.15818944613661756  0.8418110208842151  1.0000
  Mn  Mn2       1.0  0.25000162425777006  0.841808623082137  0.1581904658420114  1.0000
  H   H1        1.0  0.1273985801909845  0.1849628860506911  0.9838174893765126  1.0000
  H   H2        1.0  0.3726000956171802  0.016182719124337597  0.8150362765654718  1.0000
  H   H3        1.0  0.8726008980615136  0.8150391455641497  0.016183616736938706  1.0000
  H   H4        1.0  0.6274004519022965  0.9838180270497715  0.18496225205725372  1.0000
  H   H5        1.0  0.11182200466213739  0.34644747977905144  0.8897963139181753  1.0000
  H   H6        1.0  0.3881801031633429  0.11020234314566578  0.6535512546413568  1.0000
  H   H7        1.0  0.8881785482564197  0.6535532567170536  0.11020347658907073  1.0000
  H   H8        1.0  0.6118252736929363  0.8898010668236506  0.3464498434871146  1.0000
  H   H9        1.0  0.7165269534088308  0.5491062629477523  0.8394634252629058  1.0000
  H   H10       1.0  0.7834740723559648  0.16054060381201649  0.45089802642127796  1.0000
  H   H11       1.0  0.2834798310591962  0.45089714044147644  0.16054043667019605  1.0000
  H   H12       1.0  0.21652540589653307  0.8394614278028242  0.5491030796921804  1.0000
  H   H13       1.0  0.7499967676050471  0.6670935305324972  0.33290824140058817  1.0000
  H   H14       1.0  0.24999616234951824  0.33290451661651577  0.6670884995297683  1.0000
  C   C1        1.0  0.7345655559495938  0.5131672737616383  0.7058238435925404  1.0000
  C   C2        1.0  0.7654323708375729  0.29417798593071615  0.48683445246939516  1.0000
  C   C3        1.0  0.26543607163501554  0.48683216761572373  0.29417463130850047  1.0000
  C   C4        1.0  0.23456615716952456  0.7058200929660499  0.5131657723723037  1.0000
  C   C5        1.0  0.7401317960240732  0.6348192745928354  0.597315364634781  1.0000
  C   C6        1.0  0.7598643565542815  0.4026877356532807  0.3651832016131209  1.0000
  C   C7        1.0  0.25986734928273597  0.36518146848333544  0.40268166206784173  1.0000
  C   C8        1.0  0.24012997561295882  0.5973103145936631  0.6348150412373312  1.0000
  C   C9        1.0  0.7499974134120889  0.5772150562932977  0.4227863133960597  1.0000
  C   C10       1.0  0.2499976874708878  0.4227803619061987  0.5772128438599893  1.0000
  C   C11       1.0  0.7349820793129426  0.8214245869441326  0.668461199917523  1.0000
  C   C12       1.0  0.7650175134021993  0.3315434410644826  0.17857980265938514  1.0000
  C   C13       1.0  0.26501911250162646  0.17857877501933925  0.3315404399887568  1.0000
  C   C14       1.0  0.2349805626376309  0.6684585874524201  0.8214198015339773  1.0000
  N   N1        1.0  0.7499992778731155  0.3467786396035278  0.6532243670720845  1.0000
  N   N2        1.0  0.25000236590872044  0.6532207727398002  0.3467778934825389  1.0000
  O   O1        1.0  0.7561501145349824  0.8740421176133494  0.8347352377982064  1.0000
  O   O2        1.0  0.7438506777536916  0.16527196246617137  0.12595907034143033  1.0000
  O   O3        1.0  0.24384703285574724  0.1259559194734479  0.1652685326615  1.0000
  O   O4        1.0  0.25614987516486554  0.8347287740299265  0.8740407201658227  1.0000
  O   O5        1.0  0.7104158086623684  0.9241707662312421  0.5641758158005173  1.0000
  O   O6        1.0  0.7895887370268682  0.4358257734190046  0.07583596712176897  1.0000
  O   O7        1.0  0.2895951338519822  0.0758327335538738  0.4358211949321387  1.0000
  O   O8        1.0  0.21040528919005647  0.5641709398992347  0.9241645057404853  1.0000
  O   O9        1.0  0.053704531806857886  0.21977456008003318  0.8813619985573665  1.0000
  O   O10       1.0  0.44629615566709896  0.11863731749390635  0.7802261036278109  1.0000
  O   O11       1.0  0.9462970957777516  0.7802248812973287  0.11863647634368127  1.0000
  O   O12       1.0  0.5537061162125951  0.8813647396728184  0.21977548255679105  1.0000
