data_image0
_chemical_formula_structural       Ag4H36C56N16O8
_chemical_formula_sum              "Ag4 H36 C56 N16 O8"
_cell_length_a       6.411193156277649
_cell_length_b       10.678884439228483
_cell_length_c       18.63549468319983
_cell_angle_alpha    89.99983227675794
_cell_angle_beta     92.45505486558933
_cell_angle_gamma    90.00037376566601

_space_group_name_H-M_alt    "P 1"
_space_group_IT_number       1

loop_
  _space_group_symop_operation_xyz
  'x, y, z'

loop_
  _atom_site_type_symbol
  _atom_site_label
  _atom_site_symmetry_multiplicity
  _atom_site_fract_x
  _atom_site_fract_y
  _atom_site_fract_z
  _atom_site_occupancy
  Ag  Ag1       1.0  0.2713825771084899  0.7157736980294799  0.6061700204368421  1.0000
  Ag  Ag2       1.0  0.22862101237436863  0.21572832090564734  0.8938316340624368  1.0000
  Ag  Ag3       1.0  0.7286074441381274  0.2842644305970481  0.3938266144547669  1.0000
  Ag  Ag4       1.0  0.771384268308907  0.7842348935061236  0.1061691490466998  1.0000
  H   H1        1.0  0.846083637611123  0.887308256948316  0.8162746780921494  1.0000
  H   H2        1.0  0.6539675651358577  0.3873185537856116  0.6837308242552709  1.0000
  H   H3        1.0  0.15397469798635646  0.1126783681410686  0.18372746127683828  1.0000
  H   H4        1.0  0.34606268317051553  0.612711146968131  0.3162705971092521  1.0000
  H   H5        1.0  0.1544423372305488  0.8738213269306244  0.736930539371869  1.0000
  H   H6        1.0  0.34561433691196436  0.3737904897099966  0.7630756934067691  1.0000
  H   H7        1.0  0.8456222405202424  0.1262046281087166  0.2630717595672962  1.0000
  H   H8        1.0  0.6544144487654364  0.6261933261071775  0.2369246168150596  1.0000
  H   H9        1.0  0.08304850059134587  0.26828736011795223  0.6899273165930708  1.0000
  H   H10       1.0  0.416914200679102  0.7682668303742235  0.810072218914641  1.0000
  H   H11       1.0  0.9168995853637937  0.7317273578411516  0.3100660987871109  1.0000
  H   H12       1.0  0.5830327053314761  0.2317188582651681  0.1899340513387173  1.0000
  H   H13       1.0  0.7850569491017013  0.27709589877124335  0.7692841420928715  1.0000
  H   H14       1.0  0.714897008714651  0.7771118210847022  0.7307151162154567  1.0000
  H   H15       1.0  0.2148788496210514  0.7228832349600863  0.23070681167875753  1.0000
  H   H16       1.0  0.2850449215752064  0.22291787962561216  0.26929424810106883  1.0000
  H   H17       1.0  0.7174187274174244  0.1493813616334378  0.577184039240862  1.0000
  H   H18       1.0  0.7825538615081911  0.6493371247832229  0.9228033471805475  1.0000
  H   H19       1.0  0.2825646220891613  0.8506511484971355  0.4228000769389553  1.0000
  H   H20       1.0  0.2174019277593331  0.35062796251668965  0.0771913388749255  1.0000
  H   H21       1.0  0.41510520922599164  0.25116775860014673  0.6598922144035697  1.0000
  H   H22       1.0  0.08486766086649311  0.7511319176351918  0.8400946960165284  1.0000
  H   H23       1.0  0.5848702889736896  0.7488647515285863  0.3400922379472817  1.0000
  H   H24       1.0  0.9150882759974621  0.2488462796571156  0.15989838318243696  1.0000
  H   H25       1.0  0.5874833448756148  0.5807760408678604  0.5099269082292749  1.0000
  H   H26       1.0  0.9125457668386971  0.0807324205439173  0.9900758818918902  1.0000
  H   H27       1.0  0.41254866043597366  0.4192508506151783  0.4900724105440588  1.0000
  H   H28       1.0  0.08751212621449869  0.9192373488258883  0.009931078052879598  1.0000
  H   H29       1.0  0.9232754323344708  0.6303658080072978  0.45182382624496137  1.0000
  H   H30       1.0  0.5767691861989804  0.1303204650420824  0.0481893960074231  1.0000
  H   H31       1.0  0.0767534030044814  0.3696648291828524  0.5481759483698668  1.0000
  H   H32       1.0  0.42329577159947007  0.8696361942990833  0.9518257976834973  1.0000
  H   H33       1.0  0.9171000730176999  0.9847805929169907  0.5454781560214528  1.0000
  H   H34       1.0  0.5829109258017696  0.4847279970722838  0.95452846608611  1.0000
  H   H35       1.0  0.0828993599261452  0.0152537900015517  0.45451818258788274  1.0000
  H   H36       1.0  0.4170694368893421  0.5152127430882842  0.045471143159858195  1.0000
  C   C1        1.0  0.7939439900182492  0.0813899172920713  0.7960051068883871  1.0000
  C   C2        1.0  0.7060557331832555  0.5813958311133547  0.7039942475821661  1.0000
  C   C3        1.0  0.20605251819844037  0.9186013899781784  0.2039890094491241  1.0000
  C   C4        1.0  0.2939290659539182  0.41862825107059365  0.2960081594566972  1.0000
  C   C5        1.0  0.9021512960130733  0.968949898382661  0.7879429825421838  1.0000
  C   C6        1.0  0.5978801845176277  0.46894958471779097  0.7120582575042391  1.0000
  C   C7        1.0  0.09788407556960982  0.031045154582955106  0.2120537379016199  1.0000
  C   C8        1.0  0.4021281683973683  0.5310613874880588  0.2879431410178697  1.0000
  C   C9        1.0  0.0730773330423062  0.9617087412326555  0.7447919221062946  1.0000
  C   C10       1.0  0.4269612175491986  0.4617014006831894  0.7552111629915785  1.0000
  C   C11       1.0  0.9269594025505795  0.0383031674142487  0.2552069807122237  1.0000
  C   C12       1.0  0.5730548391885576  0.5383067622335176  0.24479150621887413  1.0000
  C   C13       1.0  0.13864377931507474  0.0693507443546579  0.7092871717568273  1.0000
  C   C14       1.0  0.3613660791187313  0.5693276170337498  0.7907135692446232  1.0000
  C   C15       1.0  0.8613649176581148  0.9306602278716909  0.2907104774249163  1.0000
  C   C16       1.0  0.638624961344938  0.4306599444806878  0.209288997343279  1.0000
  C   C17       1.0  0.03656406232941118  0.1839534908414819  0.7180879117804722  1.0000
  C   C18       1.0  0.4634043077346277  0.6839435697337422  0.7819149898995477  1.0000
  C   C19       1.0  0.963400795087516  0.8160546720999876  0.2819102273461382  1.0000
  C   C20       1.0  0.5365470831994797  0.3160636567235002  0.218093542509429  1.0000
  C   C21       1.0  0.8662054037037236  0.1889949761840555  0.7619417519917135  1.0000
  C   C22       1.0  0.6337652601130087  0.6889948989300549  0.7380590071305164  1.0000
  C   C23       1.0  0.1337535067323188  0.8109982039374444  0.23805301385119293  1.0000
  C   C24       1.0  0.3661909596395034  0.31101888252712223  0.2619480380895425  1.0000
  C   C25       1.0  0.5994805212257078  0.0829469620460301  0.8388036367744149  1.0000
  C   C26       1.0  0.900522307933322  0.5829805002861335  0.6611963339712474  1.0000
  C   C27       1.0  0.40052193349210796  0.9170153159563484  0.1611938528345362  1.0000
  C   C28       1.0  0.09946595624683849  0.41705481904669034  0.3388024035099875  1.0000
  C   C29       1.0  0.5406505149092311  0.971969961744449  0.601136355270164  1.0000
  C   C30       1.0  0.9593585460711151  0.4719338938157165  0.8988712910528349  1.0000
  C   C31       1.0  0.459350429253341  0.028058802606544496  0.3988605588474671  1.0000
  C   C32       1.0  0.0406334648769331  0.5280414941071571  0.1011377428621145  1.0000
  C   C33       1.0  0.5903010744113003  0.1018640870562848  0.6026004746776081  1.0000
  C   C34       1.0  0.909696366942761  0.6018191916809812  0.8973945264491833  1.0000
  C   C35       1.0  0.409683196520369  0.898164677326392  0.3973906444516544  1.0000
  C   C36       1.0  0.0902903851918495  0.3981458955999244  0.102603635502625  1.0000
  C   C37       1.0  0.43973203989121146  0.1553525967600251  0.6434646540843687  1.0000
  C   C38       1.0  0.060245461990440716  0.6553015932462145  0.8565341860230831  1.0000
  C   C39       1.0  0.5602570597567932  0.8446733583485796  0.3565249778533541  1.0000
  C   C40       1.0  0.9397157824910565  0.3446550661593619  0.143469229510103  1.0000
  C   C41       1.0  0.645436974953185  0.8722893451121151  0.5632159059513953  1.0000
  C   C42       1.0  0.8545795211472794  0.3722463075223743  0.9367892460553691  1.0000
  C   C43       1.0  0.3545560195695145  0.1277366099489754  0.4367824155765874  1.0000
  C   C44       1.0  0.14543321762332787  0.6277159704403985  0.0632154858428962  1.0000
  C   C45       1.0  0.6584626070706178  0.6729345103388695  0.515997194124715  1.0000
  C   C46       1.0  0.8415525162893828  0.1728918928030154  0.984009533419801  1.0000
  C   C47       1.0  0.3415413596212815  0.32709144472362783  0.48400087101183686  1.0000
  C   C48       1.0  0.15848348152554342  0.8270731944299143  0.0159974036864554  1.0000
  C   C49       1.0  0.8470873787766918  0.6998391756882114  0.4849621608482266  1.0000
  C   C50       1.0  0.6529451036648766  0.1997923222809206  0.015046456153172  1.0000
  C   C51       1.0  0.15292619630898943  0.3001914615246193  0.515033465528191  1.0000
  C   C52       1.0  0.34709371999302613  0.8001624642325851  0.9849637744501436  1.0000
  C   C53       1.0  0.8413414010637866  0.8948695743967576  0.5348011629647758  1.0000
  C   C54       1.0  0.6586863136387109  0.3948187346422642  0.965206423332802  1.0000
  C   C55       1.0  0.15867197744783107  0.105163872086564  0.4651966058926362  1.0000
  C   C56       1.0  0.34132174367513096  0.6051285604827541  0.03479818889187669  1.0000
  N   N1        1.0  0.3114692593394892  0.0606918449868914  0.6645143908521334  1.0000
  N   N2        1.0  0.18853870233895256  0.5606598001936476  0.8354879122915121  1.0000
  N   N3        1.0  0.6885332943441539  0.9393313008024009  0.3354820275336792  1.0000
  N   N4        1.0  0.8114491188784142  0.4393202698961646  0.16451564575480396  1.0000
  N   N5        1.0  0.3713276289289881  0.9484092404905196  0.6391492034715114  1.0000
  N   N6        1.0  0.1286989711450275  0.44837546109243925  0.8608616292792348  1.0000
  N   N7        1.0  0.6286916963287367  0.0516176509825499  0.3608519386636075  1.0000
  N   N8        1.0  0.8713102045864716  0.5516036725376381  0.1391478434245954  1.0000
  N   N9        1.0  0.5555938160792095  0.757935688999055  0.5542898650996335  1.0000
  N   N10       1.0  0.9444265761633021  0.25789255380598053  0.9457137758759019  1.0000
  N   N11       1.0  0.44442595160030857  0.2420968210647771  0.4457064564565698  1.0000
  N   N12       1.0  0.055597085676374995  0.7420744062922751  0.054291235252293304  1.0000
  N   N13       1.0  0.9408066866668323  0.8117244017380046  0.495247875013618  1.0000
  N   N14       1.0  0.5592185774923593  0.3116767243671603  0.004763778723628299  1.0000
  N   N15       1.0  0.059214494031145565  0.1883118540264306  0.5047500932935947  1.0000
  N   N16       1.0  0.44080313053326853  0.6882743164420688  0.9952454774707533  1.0000
  O   O1        1.0  0.5439861612511405  0.9856534398000534  0.8703454767835764  1.0000
  O   O2        1.0  0.956039392875347  0.48568212007575084  0.6296561486407839  1.0000
  O   O3        1.0  0.45605627494409606  0.0143163295807156  0.1296594774029955  1.0000
  O   O4        1.0  0.04395159905980959  0.5143625635072197  0.3703469535830877  1.0000
  O   O5        1.0  0.5034896622164028  0.18964725034839353  0.8379749167805883  1.0000
  O   O6        1.0  0.9964877494028528  0.6896789066952566  0.6620206460726834  1.0000
  O   O7        1.0  0.4964790528200209  0.8103140912665268  0.1620152678117961  1.0000
  O   O8        1.0  0.003483300965179091  0.31036390405625275  0.33797818824285036  1.0000
