data_image0
_chemical_formula_structural       Zr6H22C66N6O32
_chemical_formula_sum              "Zr6 H22 C66 N6 O32"
_cell_length_a       14.356847481382063
_cell_length_b       14.376403185657088
_cell_length_c       14.381519374721833
_cell_angle_alpha    87.8122191707311
_cell_angle_beta     87.78136171192943
_cell_angle_gamma    87.78982631939833

_space_group_name_H-M_alt    "P 1"
_space_group_IT_number       1

loop_
  _space_group_symop_operation_xyz
  'x, y, z'

loop_
  _atom_site_type_symbol
  _atom_site_label
  _atom_site_symmetry_multiplicity
  _atom_site_fract_x
  _atom_site_fract_y
  _atom_site_fract_z
  _atom_site_occupancy
  Zr  Zr1       1.0  0.7687380034457191  0.9705522110551926  0.843023900906367  1.0000
  Zr  Zr2       1.0  0.7529523634962986  0.7976632902466819  0.0318190370943299  1.0000
  Zr  Zr3       1.0  0.9967137720589248  0.012569773377649104  0.9004449253721063  1.0000
  Zr  Zr4       1.0  0.9420243486067436  0.7817842772190744  0.8586443622840535  1.0000
  Zr  Zr5       1.0  0.810644809789608  0.02534592984775229  0.0736244794930414  1.0000
  Zr  Zr6       1.0  0.9840330341721284  0.8394150687440174  0.0861655431373336  1.0000
  H   H1        1.0  0.1235728751884153  0.18256566006024139  0.5607896117975669  1.0000
  H   H2        1.0  0.14246363543435342  0.1706769842909495  0.3732407527997523  1.0000
  H   H3        1.0  0.6362810032037204  0.6252657846391472  0.3706423383905104  1.0000
  H   H4        1.0  0.6217844408740164  0.635695306797338  0.5586833747010546  1.0000
  H   H5        1.0  0.15463728535084442  0.5001379780069044  0.21435085153845532  1.0000
  H   H6        1.0  0.14246039297312046  0.3125310829641421  0.2332383579879007  1.0000
  H   H7        1.0  0.5960643776792763  0.3097481021999187  0.7261367033637782  1.0000
  H   H8        1.0  0.6061636318918106  0.49787783563976257  0.7114306317141583  1.0000
  H   H9        1.0  0.47106942253015666  0.15404355304625741  0.2455235044230903  1.0000
  H   H10       1.0  0.2832180265413201  0.17219443403979537  0.2332470135895761  1.0000
  H   H11       1.0  0.28165126274949875  0.6641344665815796  0.6843349343124245  1.0000
  H   H12       1.0  0.4700205713218183  0.6495211168899503  0.6941665212210495  1.0000
  H   H13       1.0  0.7420772163661697  0.770958844911526  0.8321137027868986  1.0000
  H   H14       1.0  0.8382910363332458  0.14203008287469035  0.9186462637472771  1.0000
  H   H15       1.0  0.11366113418240083  0.8575640173029839  0.9281956421537315  1.0000
  H   H16       1.0  0.8289078757981799  0.8671818682930166  0.2030376607255278  1.0000
  H   H17       1.0  0.27601259691213204  0.8855343083190022  0.4287371231864583  1.0000
  H   H18       1.0  0.4702486772585034  0.9353142395532288  0.499002160449038  1.0000
  H   H19       1.0  0.338561249700831  0.3044498598644625  0.9465971486243276  1.0000
  H   H20       1.0  0.40891844973117497  0.49854023159998917  0.9961116602446082  1.0000
  H   H21       1.0  0.9065001399479655  0.4382265622169541  0.5593263555695103  1.0000
  H   H22       1.0  0.8564404479998801  0.3679376000469008  0.3655167680466107  1.0000
  C   C1        1.0  0.9979348847384701  0.2691978422615621  0.5292929197943721  1.0000
  C   C2        1.0  0.0816144814197273  0.2189279177370836  0.5086986619498077  1.0000
  C   C3        1.0  0.09063847481604631  0.2120292168231828  0.4118448287679826  1.0000
  C   C4        1.0  0.013684560972969004  0.2596586508679763  0.37293248559214476  1.0000
  C   C5        1.0  0.7622649636784686  0.5379454005148645  0.3983899151439374  1.0000
  C   C6        1.0  0.6796108529283417  0.5886834859376364  0.421444870904331  1.0000
  C   C7        1.0  0.6725888457181383  0.5944409486571518  0.518610317888772  1.0000
  C   C8        1.0  0.7499934747680259  0.5457846347490048  0.5553428750530786  1.0000
  C   C9        1.0  0.24064758390323246  0.46840042985753183  0.08845946047860309  1.0000
  C   C10       1.0  0.19068340270514741  0.4479282441357099  0.1722429375762147  1.0000
  C   C11       1.0  0.18362484902880286  0.3510560875610834  0.1812445521190611  1.0000
  C   C12       1.0  0.23084516829618454  0.31201005285797834  0.104150910304611  1.0000
  C   C13       1.0  0.5086733908558329  0.3375618082372185  0.8519190018209173  1.0000
  C   C14       1.0  0.5593474832483384  0.36061222780426055  0.7693458699299782  1.0000
  C   C15       1.0  0.5649690139097886  0.4578414102598174  0.7622769691880293  1.0000
  C   C16       1.0  0.5162574122681676  0.49463361246419874  0.8395804160198851  1.0000
  C   C17       1.0  0.4398376844209936  0.027892463470806206  0.3311521149453824  1.0000
  C   C18       1.0  0.4189981143187893  0.1116779000224497  0.28142409906630655  1.0000
  C   C19       1.0  0.3219875545033233  0.12031982219277643  0.2743068811639731  1.0000
  C   C20       1.0  0.28321687857108924  0.04294424371519771  0.3211998118286629  1.0000
  C   C21       1.0  0.3091852072450437  0.7906364955435948  0.59819198383898  1.0000
  C   C22       1.0  0.3324460468587915  0.707677204240319  0.6480370089858526  1.0000
  C   C23       1.0  0.4298033907072282  0.7006466466548961  0.6535137715646187  1.0000
  C   C24       1.0  0.4664973560601099  0.7783602254583784  0.6055223780243749  1.0000
  C   C25       1.0  0.8922219893349776  0.1351536501445594  0.7439676355943234  1.0000
  C   C26       1.0  0.6790150274512855  0.8975508416683555  0.7071151986527724  1.0000
  C   C27       1.0  0.8689667433783158  0.6464711408730041  0.7681570766173565  1.0000
  C   C28       1.0  0.6378909066454099  0.11725241825940465  0.9528250724417335  1.0000
  C   C29       1.0  0.8631916467530445  0.6670622285328491  0.1782993672740858  1.0000
  C   C30       1.0  0.07867476455209041  0.9183330168035155  0.2123173771569427  1.0000
  C   C31       1.0  0.6174861511323685  0.7071945389140097  0.9587741621574324  1.0000
  C   C32       1.0  0.6541802250525707  0.921318300352212  0.1967392646100947  1.0000
  C   C33       1.0  0.12283228319168424  0.10706918369437801  0.9797684294300594  1.0000
  C   C34       1.0  0.08906288433531981  0.8917420747478886  0.7282550961257782  1.0000
  C   C35       1.0  0.10689134443436646  0.682896076714364  0.9819493927349399  1.0000
  C   C36       1.0  0.889943070351933  0.15160620109772086  0.1679201083286088  1.0000
  C   C37       1.0  0.15504833156935402  0.8755044616364531  0.6521029478028809  1.0000
  C   C38       1.0  0.22542001770852244  0.8413511423382758  0.6139981579016692  1.0000
  C   C39       1.0  0.623336247711599  0.8516754639534413  0.642058973935704  1.0000
  C   C40       1.0  0.5541713886825124  0.8156962336598852  0.6145560543887854  1.0000
  C   C41       1.0  0.12962444733105374  0.968966833866247  0.2769711345084361  1.0000
  C   C42       1.0  0.19639618522099772  0.005527149331200603  0.3086473244067918  1.0000
  C   C43       1.0  0.5211477072992778  0.9741970055789083  0.3131604577885554  1.0000
  C   C44       1.0  0.5883899853242412  0.9368238512578061  0.2726914965367727  1.0000
  C   C45       1.0  0.34216324779841767  0.9199402587070581  0.43083795874338193  1.0000
  C   C46       1.0  0.4043977232974498  0.9002933909685777  0.4972693354424109  1.0000
  C   C47       1.0  0.523932865218157  0.2537791718420976  0.9025773324080648  1.0000
  C   C48       1.0  0.5616900232371195  0.1832308784671994  0.9365325518959224  1.0000
  C   C49       1.0  0.5251390582466016  0.5822822551033155  0.8768278199619602  1.0000
  C   C50       1.0  0.5525928228652006  0.6514522082420482  0.9127300079832565  1.0000
  C   C51       1.0  0.21852703547239835  0.2250370854244039  0.0671395016215399  1.0000
  C   C52       1.0  0.18729022120196254  0.15805263865510707  0.0306516928957876  1.0000
  C   C53       1.0  0.2229417420341235  0.5495104362668002  0.0346118122046093  1.0000
  C   C54       1.0  0.1826893529583415  0.6168547418355388  0.997327994631732  1.0000
  C   C55       1.0  0.3406932091486681  0.3705801241532  0.9808965283757517  1.0000
  C   C56       1.0  0.407194945747321  0.4327558489953631  0.9611457008153154  1.0000
  C   C57       1.0  0.84695984141554  0.5907982359678172  0.2440442857485365  1.0000
  C   C58       1.0  0.8129372234458502  0.5530981633776689  0.3145788085445745  1.0000
  C   C59       1.0  0.7872208152892883  0.5544272961396643  0.6429660350052302  1.0000
  C   C60       1.0  0.8230549903050745  0.5816205352166149  0.7122639320070905  1.0000
  C   C61       1.0  0.9405428040302652  0.2163774597142591  0.21881336649649805  1.0000
  C   C62       1.0  0.9767102359498097  0.24770226191056827  0.285930738371647  1.0000
  C   C63       1.0  0.9441125219066677  0.2513791630979725  0.6104855558681166  1.0000
  C   C64       1.0  0.9073628754698789  0.21086977121034073  0.6779461034370302  1.0000
  C   C65       1.0  0.8714623808788033  0.43653793382102174  0.4935821642861741  1.0000
  C   C66       1.0  0.890839078481882  0.36988301826563946  0.4315837255915937  1.0000
  N   N1        1.0  0.9603580400823547  0.30033225869384955  0.4449493286675121  1.0000
  N   N2        1.0  0.8019102675375152  0.5062517783390563  0.4816583756697312  1.0000
  N   N3        1.0  0.27142679595917935  0.3839692132144776  0.0507267118132191  1.0000
  N   N4        1.0  0.4767564308356285  0.4209006296982523  0.8914349648878216  1.0000
  N   N5        1.0  0.3554228029116119  0.9898126643447183  0.36176647761298864  1.0000
  N   N6        1.0  0.3925681690328205  0.8304469817174505  0.5665689068482465  1.0000
  O   O1        1.0  0.9642655036829525  0.11493711398322398  0.7923061036868546  1.0000
  O   O2        1.0  0.6386737351823514  0.9135888697701446  0.7868926709315219  1.0000
  O   O3        1.0  0.8846780233042394  0.7265364855514991  0.7284128570675606  1.0000
  O   O4        1.0  0.663189995181135  0.07278651135434439  0.8793402301755363  1.0000
  O   O5        1.0  0.6775339949835698  0.11063432585891061  0.0300706555914445  1.0000
  O   O6        1.0  0.8912808989915746  0.6302454747226564  0.852136136201139  1.0000
  O   O7        1.0  0.7633301109028425  0.9193858404176537  0.6914428192502058  1.0000
  O   O8        1.0  0.816075462452865  0.0922223057881126  0.7493760149586919  1.0000
  O   O9        1.0  0.7521544504201502  0.933977317847017  0.9857913189501843  1.0000
  O   O10       1.0  0.9053333094776692  0.9245712076616928  0.8421404295352275  1.0000
  O   O11       1.0  0.7796777774434817  0.8084995431457145  0.8697168656121194  1.0000
  O   O12       1.0  0.8485062849723093  0.0756080724934378  0.9313343195095243  1.0000
  O   O13       1.0  0.7894173657950674  0.6925715438649577  0.1342824040804231  1.0000
  O   O14       1.0  0.11012134104488074  0.9185291541603746  0.12752001725632306  1.0000
  O   O15       1.0  0.6975255218880677  0.667278744149982  0.9747337716207908  1.0000
  O   O16       1.0  0.7026555466151764  0.993185139188256  0.17620816070503048  1.0000
  O   O17       1.0  0.03793413367603901  0.138607759568842  0.9794913167826351  1.0000
  O   O18       1.0  0.04455060033017591  0.8182430091338021  0.7534343024404181  1.0000
  O   O19       1.0  0.08667705159509609  0.7314419972706361  0.05377233227240201  1.0000
  O   O20       1.0  0.8902457727166394  0.06681538030691309  0.1993844721162858  1.0000
  O   O21       1.0  0.0639409725644597  0.6881249356006053  0.9059148810754892  1.0000
  O   O22       1.0  0.844588389625244  0.1752332135417731  0.0951853232536166  1.0000
  O   O23       1.0  0.6013844630698629  0.7912967326693947  0.9809110796580285  1.0000
  O   O24       1.0  0.08242066282089411  0.9689789172043533  0.7679632180755577  1.0000
  O   O25       1.0  0.14676902592584906  0.034133948026998  0.9348592739887565  1.0000
  O   O26       1.0  0.6592452401090938  0.8452607922631473  0.1538211147013726  1.0000
  O   O27       1.0  0.9405596175778826  0.7066652140926166  0.17155084158456194  1.0000
  O   O28       1.0  0.005743536946440005  0.8731876289388579  0.236035212230199  1.0000
  O   O29       1.0  0.9445741550940456  0.9731960122164625  0.03416604789061489  1.0000
  O   O30       1.0  0.8959356789607612  0.7809018670182297  0.9950146726241301  1.0000
  O   O31       1.0  0.04712397001770799  0.8702439388427265  0.93830057581755  1.0000
  O   O32       1.0  0.8415890583831286  0.8773896407855091  0.13663154706484454  1.0000
