data_image0
_chemical_formula_structural       Zn4H36C44N8O8
_chemical_formula_sum              "Zn4 H36 C44 N8 O8"
_cell_length_a       7.508636232925369
_cell_length_b       10.818913235121244
_cell_length_c       13.983511828320577
_cell_angle_alpha    105.29140458628606
_cell_angle_beta     105.56967908262592
_cell_angle_gamma    90.01161962350139

_space_group_name_H-M_alt    "P 1"
_space_group_IT_number       1

loop_
  _space_group_symop_operation_xyz
  'x, y, z'

loop_
  _atom_site_type_symbol
  _atom_site_label
  _atom_site_symmetry_multiplicity
  _atom_site_fract_x
  _atom_site_fract_y
  _atom_site_fract_z
  _atom_site_occupancy
  Zn  Zn1       1.0  0.0581772538779504  0.7295025908521849  0.4295926822134604  1.0000
  Zn  Zn2       1.0  0.6287322160217528  0.7704594628476539  0.5704632284271581  1.0000
  Zn  Zn3       1.0  0.9418239207928353  0.2704973984598027  0.5704091456902063  1.0000
  Zn  Zn4       1.0  0.3712717249207032  0.22954052610847947  0.4295368531429774  1.0000
  H   H1        1.0  0.07686783792103571  0.6659505252059859  0.7256533991495716  1.0000
  H   H2        1.0  0.35137058308166064  0.8340774457653737  0.2745291987943618  1.0000
  H   H3        1.0  0.9231318488833224  0.3340485026853059  0.27434730296431553  1.0000
  H   H4        1.0  0.6486304862720687  0.16592158228297646  0.7254717028284149  1.0000
  H   H5        1.0  0.1768080643343524  0.6449990998362621  0.9054503154453073  1.0000
  H   H6        1.0  0.2715261333684609  0.8548812814846511  0.09467820972572832  1.0000
  H   H7        1.0  0.823192793994288  0.35499800590813624  0.09454944873279203  1.0000
  H   H8        1.0  0.7284735542178425  0.1451177459600004  0.905321062153945  1.0000
  H   H9        1.0  0.573339511002459  0.9057338006444339  0.7886297551786258  1.0000
  H   H10       1.0  0.78477730704185  0.5942368112987636  0.21155063822158132  1.0000
  H   H11       1.0  0.4266588997425059  0.09426618768347338  0.211369528355938  1.0000
  H   H12       1.0  0.215222485861517  0.40576317740952556  0.7884495599389822  1.0000
  H   H13       1.0  0.6991237120231872  0.9855976100224239  0.04949474774797838  1.0000
  H   H14       1.0  0.6495043058732011  0.5143627075154099  0.9505752554555187  1.0000
  H   H15       1.0  0.30087597517214704  0.014401417645544298  0.9505052392488055  1.0000
  H   H16       1.0  0.3504953813221334  0.4856363201525652  0.04942473154125789  1.0000
  H   H17       1.0  0.804390474700682  0.948309235310731  0.946474689877384  1.0000
  H   H18       1.0  0.8578509222903467  0.5515985649582545  0.05354929763723252  1.0000
  H   H19       1.0  0.19560782994528134  0.051689792200186  0.05352509761050331  1.0000
  H   H20       1.0  0.1421501474543589  0.4484004628667719  0.9464508888684406  1.0000
  H   H21       1.0  0.8174413598362592  0.8450237857963785  0.027537790646263768  1.0000
  H   H22       1.0  0.7897923783292597  0.6549561836875596  0.972557999005801  1.0000
  H   H23       1.0  0.18255705051773674  0.15497620275485247  0.9724622080054106  1.0000
  H   H24       1.0  0.21020858570740597  0.34504188309715994  0.027441976336085427  1.0000
  H   H25       1.0  0.19146136813412806  0.5745271847499114  0.23035640896166854  1.0000
  H   H26       1.0  0.9612482298342757  0.9255840247584004  0.7696900982308607  1.0000
  H   H27       1.0  0.8085399134176188  0.42547376493242683  0.7696434847544681  1.0000
  H   H28       1.0  0.038751667604202615  0.0744169256601594  0.23031245644480694  1.0000
  H   H29       1.0  0.3499406937887245  0.34377878824557223  0.23246905864555603  1.0000
  H   H30       1.0  0.11748733993837852  0.15644818946183386  0.7675961662891099  1.0000
  H   H31       1.0  0.6500606938620309  0.6562231222537561  0.7675303311172571  1.0000
  H   H32       1.0  0.8825124529649885  0.8435517992464483  0.23240403187145386  1.0000
  H   H33       1.0  0.1991135243409445  0.48750670216689673  0.5083322714331261  1.0000
  H   H34       1.0  0.6910584947442544  0.0124628505007252  0.49164648188894233  1.0000
  H   H35       1.0  0.8008877576017711  0.5124942472921105  0.49166690716590733  1.0000
  H   H36       1.0  0.3089439571588458  0.987536177704676  0.5083546192427307  1.0000
  C   C1        1.0  0.2703630952022636  0.7899247049083088  0.6364426217238589  1.0000
  C   C2        1.0  0.6338192904927881  0.7100330555597195  0.3637306123188822  1.0000
  C   C3        1.0  0.7296392506018353  0.21007336248010233  0.3635589833611377  1.0000
  C   C4        1.0  0.36618177886094133  0.2899659724886304  0.6362702893038943  1.0000
  C   C5        1.0  0.32166560934642524  0.7852239264835388  0.746055743723723  1.0000
  C   C6        1.0  0.5757545753308051  0.7147871927532421  0.2541431566564114  1.0000
  C   C7        1.0  0.6783328013985468  0.21477606184436837  0.2539435398108481  1.0000
  C   C8        1.0  0.4242463890968439  0.285210873808154  0.7458561035683717  1.0000
  C   C9        1.0  0.2072634689935171  0.7134123836651226  0.7791325739175863  1.0000
  C   C10       1.0  0.42834181577340763  0.7866038576912473  0.22106885074831692  1.0000
  C   C11       1.0  0.7927350474594876  0.28658856570309876  0.22086692078076456  1.0000
  C   C12       1.0  0.5716592539712979  0.21339517013377932  0.7789313357573492  1.0000
  C   C13       1.0  0.26455358222220593  0.7014989180932857  0.8792645238488391  1.0000
  C   C14       1.0  0.3853993958398264  0.798428931090882  0.12091941401484965  1.0000
  C   C15       1.0  0.7354462106811613  0.29850107061500347  0.12073567431172454  1.0000
  C   C16       1.0  0.6146016742958482  0.201570096510828  0.8790800573737201  1.0000
  C   C17       1.0  0.43541553710227293  0.7589102976312532  0.9474149511294456  1.0000
  C   C18       1.0  0.48809317837933736  0.7409190626323081  0.05277731696499903  1.0000
  C   C19       1.0  0.5645828728607469  0.24108969114329432  0.05258576263933181  1.0000
  C   C20       1.0  0.5119077856573355  0.2590790041524044  0.9472226583768872  1.0000
  C   C21       1.0  0.5487783186827144  0.8356049100095646  0.9158329303155028  1.0000
  C   C22       1.0  0.6330551314619655  0.6642786592583007  0.08432588307621804  1.0000
  C   C23       1.0  0.45122019777029015  0.1643960393586568  0.08416656438284781  1.0000
  C   C24       1.0  0.36694593828273986  0.33572036856672577  0.9156743034294552  1.0000
  C   C25       1.0  0.4885380529967308  0.8474689886921  0.815139396481115  1.0000
  C   C26       1.0  0.6734347122429369  0.6525122091651312  0.1850514562191705  1.0000
  C   C27       1.0  0.5114591862239594  0.15253292178270073  0.1848608249892294  1.0000
  C   C28       1.0  0.3265662525756882  0.3474858571729413  0.8149470888885091  1.0000
  C   C29       1.0  0.7268184572244678  0.9069339206976038  0.9883839705945264  1.0000
  C   C30       1.0  0.7383535220560519  0.5930065243247993  0.011714544139245206  1.0000
  C   C31       1.0  0.2731814413869317  0.0930670290509923  0.011616438729824102  1.0000
  C   C32       1.0  0.2616462712382841  0.4069934641601661  0.9882849389042081  1.0000
  C   C33       1.0  0.21333796847446965  0.5212955752581862  0.2877429770694349  1.0000
  C   C34       1.0  0.9257915098503062  0.9787801012074127  0.7122792084763391  1.0000
  C   C35       1.0  0.7866619305278991  0.47870537426708626  0.7122567171378051  1.0000
  C   C36       1.0  0.07420562288039892  0.021220848673713995  0.2877222320644321  1.0000
  C   C37       1.0  0.2931891622379794  0.4071001125102853  0.2890151921967572  1.0000
  C   C38       1.0  0.004224440253437901  0.0930777389125481  0.711057493280663  1.0000
  C   C39       1.0  0.7068107375463414  0.592900836568347  0.7109830717762762  1.0000
  C   C40       1.0  0.9957755628930729  0.9069241725463254  0.2889452725587843  1.0000
  C   C41       1.0  0.2183180496148012  0.480601077187984  0.43298218722901544  1.0000
  C   C42       1.0  0.7855718440626377  0.019424324001093392  0.5670196446880169  1.0000
  C   C43       1.0  0.7816832327188904  0.5193998720477069  0.5670162762529074  1.0000
  C   C44       1.0  0.2144306078404626  0.9805747042043153  0.4329814564436489  1.0000
  N   N1        1.0  0.16674035264303205  0.5670946553118911  0.37907989923524354  1.0000
  N   N2        1.0  0.7879242402348015  0.9329030292446133  0.62092635824461  1.0000
  N   N3        1.0  0.8332609292996837  0.43290629414712356  0.6209192793637826  1.0000
  N   N4        1.0  0.21207544578760465  0.0670959990933184  0.37907577410348386  1.0000
  N   N5        1.0  0.2959330690339003  0.3817048749351456  0.3814879957031749  1.0000
  N   N6        1.0  0.914507206115033  0.11841541734167996  0.6185624569001718  1.0000
  N   N7        1.0  0.7040682129088154  0.6182960745238688  0.6185111828958512  1.0000
  N   N8        1.0  0.08549535188706871  0.8815845716807118  0.38143814027817774  1.0000
  O   O1        1.0  0.10585409320334091  0.7490387146567413  0.5811226437059817  1.0000
  O   O2        1.0  0.5243450202280898  0.7507128395219453  0.4189163158010772  1.0000
  O   O3        1.0  0.8941484651897442  0.2509612741423338  0.41887723835525753  1.0000
  O   O4        1.0  0.47565466696723757  0.24928618814602996  0.5810836711956995  1.0000
  O   O5        1.0  0.39086055409152465  0.8328292671656072  0.6016162728866093  1.0000
  O   O6        1.0  0.7891254859141912  0.6672416064511495  0.3986781755367232  1.0000
  O   O7        1.0  0.6091429636278249  0.1671668778526012  0.3983836791454963  1.0000
  O   O8        1.0  0.21087420128114334  0.3327574212168258  0.6013218114600535  1.0000
