data_image0
_chemical_formula_structural       Ag4P4H36C28N4O12
_chemical_formula_sum              "Ag4 P4 H36 C28 N4 O12"
_cell_length_a       4.576896479000179
_cell_length_b       11.79758982739459
_cell_length_c       16.033429517934817
_cell_angle_alpha    102.01070315539503
_cell_angle_beta     89.99999220979595
_cell_angle_gamma    90.00003191949965

_space_group_name_H-M_alt    "P 1"
_space_group_IT_number       1

loop_
  _space_group_symop_operation_xyz
  'x, y, z'

loop_
  _atom_site_type_symbol
  _atom_site_label
  _atom_site_symmetry_multiplicity
  _atom_site_fract_x
  _atom_site_fract_y
  _atom_site_fract_z
  _atom_site_occupancy
  Ag  Ag1       1.0  0.9767167526433627  0.51041781349668  0.18936830699855284  1.0000
  Ag  Ag2       1.0  0.47671632433903005  0.4895828367451927  0.31063103655216645  1.0000
  Ag  Ag3       1.0  0.023284495145475103  0.4895820827758256  0.8106310488482436  1.0000
  Ag  Ag4       1.0  0.5232827385637577  0.5104179261205459  0.6893684547142983  1.0000
  P   P1        1.0  0.19536864780489083  0.7398186307428248  0.3195030508472955  1.0000
  P   P2        1.0  0.6953709070894548  0.2601819551746729  0.18049691751484437  1.0000
  P   P3        1.0  0.8046304150978898  0.2601821321229068  0.6804964404191693  1.0000
  P   P4        1.0  0.3046325255864772  0.7398188039006897  0.8195031968620797  1.0000
  H   H1        1.0  0.6382692205903382  0.7434142386839967  0.26387802077683636  1.0000
  H   H2        1.0  0.13827286394504062  0.2565872053326643  0.2361214602396942  1.0000
  H   H3        1.0  0.3617298423123004  0.256586520390897  0.7361220936000947  1.0000
  H   H4        1.0  0.8617305687310337  0.7434135575335432  0.7638780310267563  1.0000
  H   H5        1.0  0.9602123777255686  0.9235820288064358  0.3447251431386178  1.0000
  H   H6        1.0  0.46021143179915214  0.0764186103026745  0.15527544673282287  1.0000
  H   H7        1.0  0.0397888700637168  0.07641873026869209  0.6552749712383132  1.0000
  H   H8        1.0  0.5397876311033301  0.923582144981381  0.8447252907545746  1.0000
  H   H9        1.0  0.881962772785734  0.8458571074851517  0.4247095979334219  1.0000
  H   H10       1.0  0.38196416090040947  0.1541435147883163  0.07529099241108382  1.0000
  H   H11       1.0  0.11803629011615871  0.1541427812054366  0.5752910041343142  1.0000
  H   H12       1.0  0.6180370868888687  0.8458572442868116  0.9247091219658401  1.0000
  H   H13       1.0  0.1148551156194699  0.10623665000726132  0.3443789202504703  1.0000
  H   H14       1.0  0.6148517387572952  0.893763051993176  0.15562091317878676  1.0000
  H   H15       1.0  0.8851483170552752  0.8937623758811669  0.6556209232871242  1.0000
  H   H16       1.0  0.38514513925809984  0.10623684048801607  0.8443790657784903  1.0000
  H   H17       1.0  0.3871290832369922  0.015494947560831897  0.28825811477402397  1.0000
  H   H18       1.0  0.887127994513861  0.984504809230465  0.21174234011959925  1.0000
  H   H19       1.0  0.6128721645516961  0.9845049449208289  0.7117418641832389  1.0000
  H   H20       1.0  0.11286888350154102  0.0154950832507268  0.7882576388376848  1.0000
  H   H21       1.0  0.47650851614174883  0.15886302931561147  0.3415057400375829  1.0000
  H   H22       1.0  0.9765050626036003  0.8411367467059776  0.15849471431567966  1.0000
  H   H23       1.0  0.5234927316467902  0.8411368593752043  0.6584948620301534  1.0000
  H   H24       1.0  0.023489630525006102  0.158863141984142  0.8415058877520707  1.0000
  H   H25       1.0  0.26758353200735024  0.8251344503872886  0.5316428449252086  1.0000
  H   H26       1.0  0.7675833478287686  0.17486560349004074  0.968357903381289  1.0000
  H   H27       1.0  0.7324155308939524  0.1748645717098256  0.4683576217228663  1.0000
  H   H28       1.0  0.23241789996036039  0.8251351517942495  0.03164283410610123  1.0000
  H   H29       1.0  0.8177574277434588  0.6585310258357496  0.981542821460387  1.0000
  H   H30       1.0  0.3177503713404448  0.34146991680206173  0.5184561926310565  1.0000
  H   H31       1.0  0.182250374706058  0.3414697408217719  0.01845604669558302  1.0000
  H   H32       1.0  0.6822399520159053  0.6585308498535766  0.4815426755249704  1.0000
  H   H33       1.0  0.48139434740401293  0.675890726653769  0.1105052589888871  1.0000
  H   H34       1.0  0.9813813048786528  0.32410905420884717  0.38949457222440037  1.0000
  H   H35       1.0  0.5186178248179161  0.3241091658290641  0.8894947199683474  1.0000
  H   H36       1.0  0.018604648703508503  0.675890838271172  0.6105054067329121  1.0000
  C   C1        1.0  0.0601176883671783  0.8719894387026482  0.38668392823799286  1.0000
  C   C2        1.0  0.5601176054669993  0.12801111432366946  0.11331666405231292  1.0000
  C   C3        1.0  0.9398835594219505  0.12801131658164167  0.6133168092493975  1.0000
  C   C4        1.0  0.4398814574354829  0.871989640960379  0.8866840734350845  1.0000
  C   C5        1.0  0.28846896604542144  0.9393967771728808  0.44380679820647373  1.0000
  C   C6        1.0  0.7884709986473268  0.06060209558878429  0.056192898753487  1.0000
  C   C7        1.0  0.7115300968560306  0.06060224871508518  0.5561930453311348  1.0000
  C   C8        1.0  0.21153024914077892  0.9393969302994093  0.9438069447841215  1.0000
  C   C9        1.0  0.4213837203723756  0.03880736592717678  0.42489759215742845  1.0000
  C   C10       1.0  0.9213804781838918  0.9611924020248351  0.07510223941864069  1.0000
  C   C11       1.0  0.5786197123031158  0.9611925303455633  0.5751017636893678  1.0000
  C   C12       1.0  0.07861639983151042  0.0388074904563567  0.9248977395386362  1.0000
  C   C13       1.0  0.34654047809890903  0.08227482830046988  0.345998326526626  1.0000
  C   C14       1.0  0.8465436909548103  0.9177231827806195  0.15400248088351284  1.0000
  C   C15       1.0  0.6534563999151645  0.9177233272029497  0.6540020047018019  1.0000
  C   C16       1.0  0.1534575568324072  0.082274968932424  0.8459984734553674  1.0000
  C   C17       1.0  0.3710969654059113  0.9026715315551072  0.5178943457202649  1.0000
  C   C18       1.0  0.8710966637453765  0.09732854080293409  0.9821070250708887  1.0000
  C   C19       1.0  0.6289042823824788  0.0973283533448708  0.48210687945793046  1.0000
  C   C20       1.0  0.1289023991563738  0.9026713440968093  0.017894200107321  1.0000
  C   C21       1.0  0.674741249865285  0.5878619996496964  0.9903258784122642  1.0000
  C   C22       1.0  0.17472992898708384  0.41213804562336526  0.5096730011241704  1.0000
  C   C23       1.0  0.3252709223567933  0.4121378966239816  0.009673477434496617  1.0000
  C   C24       1.0  0.8252603943686765  0.5878618544388059  0.4903257316121952  1.0000
  C   C25       1.0  0.490131664565034  0.5971587684374526  0.060738120305202925  1.0000
  C   C26       1.0  0.9901187111166861  0.4028401439207557  0.4392621985460679  1.0000
  C   C27       1.0  0.509880507656156  0.40284025366108267  0.9392623463428367  1.0000
  C   C28       1.0  0.0098672424647361  0.5971588781749516  0.5607382681020496  1.0000
  N   N1        1.0  0.3146808320958527  0.50949378866963  0.0701970977725495  1.0000
  N   N2        1.0  0.8146680085904876  0.4905059601143903  0.4298021113381765  1.0000
  N   N3        1.0  0.6853291552395717  0.4905061076038137  0.9298022580742187  1.0000
  N   N4        1.0  0.18531794499124032  0.5094930695629998  0.5701971090890083  1.0000
  O   O1        1.0  0.9336658554673107  0.6877354010675772  0.2634862387831518  1.0000
  O   O2        1.0  0.4336673934309588  0.31226523612099305  0.23651372813830565  1.0000
  O   O3        1.0  0.0663332074351715  0.31226535421647833  0.7365144987042458  1.0000
  O   O4        1.0  0.5663316694716798  0.6877355229539005  0.7634863862386255  1.0000
  O   O5        1.0  0.3284172517190456  0.6623891195207888  0.37445956224352983  1.0000
  O   O6        1.0  0.8284196478686213  0.3376106322203468  0.1255396467841052  1.0000
  O   O7        1.0  0.6715818111830032  0.33761077296063746  0.6255404167137399  1.0000
  O   O8        1.0  0.17158159992022354  0.6623892640521589  0.8744597090626982  1.0000
  O   O9        1.0  0.4328767919494112  0.7771499369851252  0.2582967361653346  1.0000
  O   O10       1.0  0.9328767839031898  0.2228506962426592  0.2417038538713641  1.0000
  O   O11       1.0  0.5671244558392772  0.22284995549653527  0.7417032427919281  1.0000
  O   O12       1.0  0.0671244638860884  0.7771500628324687  0.7582962605055599  1.0000
