data_image0
_chemical_formula_structural       Zn2H70C58N20O8
_chemical_formula_sum              "Zn2 H70 C58 N20 O8"
_cell_length_a       16.29128677721351
_cell_length_b       16.722787582323434
_cell_length_c       18.724905332214064
_cell_angle_alpha    90.89603508443993
_cell_angle_beta     92.71189747362388
_cell_angle_gamma    91.65148318172199

_space_group_name_H-M_alt    "P 1"
_space_group_IT_number       1

loop_
  _space_group_symop_operation_xyz
  'x, y, z'

loop_
  _atom_site_type_symbol
  _atom_site_label
  _atom_site_symmetry_multiplicity
  _atom_site_fract_x
  _atom_site_fract_y
  _atom_site_fract_z
  _atom_site_occupancy
  Zn  Zn1       1.0  0.5868702553886536  0.49365044856385504  0.5199144701819449  1.0000
  Zn  Zn2       1.0  0.4079507180716887  0.49613003223710456  0.505187104269659  1.0000
  H   H1        1.0  0.6279283695701849  0.5612842807623933  0.319932868305898  1.0000
  H   H2        1.0  0.8196067805019068  0.7112606191281188  0.47977072367547186  1.0000
  H   H3        1.0  0.7005394388564882  0.38601479304566766  0.5719530720035239  1.0000
  H   H4        1.0  0.29048585842394914  0.4062738176955066  0.4240192796964948  1.0000
  H   H5        1.0  0.06906999020383607  0.4273999118856295  0.5929766092670476  1.0000
  H   H6        1.0  0.013216344325982699  0.4412268857411306  0.7072159424172213  1.0000
  H   H7        1.0  0.9192830725779189  0.47193987106215474  0.6662987964939688  1.0000
  H   H8        1.0  0.007963746595692102  0.5373486943058481  0.6664278082529194  1.0000
  H   H9        1.0  0.9234522264315075  0.4695084004339094  0.40111704096209877  1.0000
  H   H10       1.0  0.9860845610531115  0.5235135550488083  0.2997892461577223  1.0000
  H   H11       1.0  0.08147814764878798  0.5326303345569697  0.3492295319279606  1.0000
  H   H12       1.0  0.36829056498776686  0.5117928634416343  0.7372444653274641  1.0000
  H   H13       1.0  0.0006470443681862995  0.59797071810749  0.36950394870756753  1.0000
  H   H14       1.0  0.1839587680419825  0.3496421632598583  0.3637524746699228  1.0000
  H   H15       1.0  0.0961513313641333  0.2773940570921809  0.45496554249406523  1.0000
  H   H16       1.0  0.06971387441977579  0.266458799272975  0.3614179340731596  1.0000
  H   H17       1.0  0.015928394350588296  0.3346049972080963  0.4138973908274153  1.0000
  H   H18       1.0  0.8020393039653796  0.30724217196383563  0.6002944163334689  1.0000
  H   H19       1.0  0.9016489988955667  0.22481829647303192  0.5658037979049837  1.0000
  H   H20       1.0  0.9651831456773364  0.30642503878718236  0.5405757450502691  1.0000
  H   H21       1.0  0.8774686159769727  0.2752926596726298  0.48433746865333654  1.0000
  H   H22       1.0  0.8909544934953431  0.5850212693967619  0.47936279188412106  1.0000
  H   H23       1.0  0.33149507174762505  0.5771238059361681  0.6070162070454685  1.0000
  H   H24       1.0  0.10846151521583637  0.570197344475112  0.5612361875320389  1.0000
  H   H25       1.0  0.700144289995414  0.6352946554209922  0.24729441791270548  1.0000
  H   H26       1.0  0.6170236002403441  0.7456357865056304  0.158169255598807  1.0000
  H   H27       1.0  0.6873357883697082  0.692613756270859  0.1062327078970569  1.0000
  H   H28       1.0  0.7229784838359022  0.7463309481747018  0.1859634269910799  1.0000
  H   H29       1.0  0.3065294973115157  0.5074077177750668  0.8383115165781589  1.0000
  H   H30       1.0  0.4001478548675195  0.4664984493714712  0.9637789349704918  1.0000
  H   H31       1.0  0.2924868251423334  0.4534744381207005  0.9450521153671758  1.0000
  H   H32       1.0  0.3331022767226841  0.5450223378008376  0.9845029667257492  1.0000
  H   H33       1.0  0.386697509529462  0.5732848649189253  0.1496392307461178  1.0000
  H   H34       1.0  0.2698299049773211  0.6673672860101904  0.6792774532989938  1.0000
  H   H35       1.0  0.6294965630468567  0.5904765981287171  0.8688872756926287  1.0000
  H   H36       1.0  0.371306829497648  0.5148544570166109  0.27125086570038803  1.0000
  H   H37       1.0  0.6285723221954883  0.5583126177445338  0.7377747402001589  1.0000
  H   H38       1.0  0.5623558231298986  0.8532044203442908  0.6013291151206417  1.0000
  H   H39       1.0  0.5161694333764828  0.7673177490714167  0.6807794957108585  1.0000
  H   H40       1.0  0.5421348988171245  0.6837328802940943  0.6279974237069865  1.0000
  H   H41       1.0  0.44742858285572845  0.7321617848914314  0.6093113945306072  1.0000
  H   H42       1.0  0.6266841716203401  0.2795290182327789  0.5473646402693362  1.0000
  H   H43       1.0  0.7263331491480259  0.19271036155409146  0.5939479147172193  1.0000
  H   H44       1.0  0.7178255214903829  0.1525160442652549  0.5046555269761158  1.0000
  H   H45       1.0  0.1841507618636484  0.5982550191961947  0.6739978298365372  1.0000
  H   H46       1.0  0.6606620452577657  0.10865450638757322  0.573566650330072  1.0000
  H   H47       1.0  0.37682512133176266  0.27898897693264496  0.41889122121993694  1.0000
  H   H48       1.0  0.48191120841317303  0.6884068743219629  0.3566431589563521  1.0000
  H   H49       1.0  0.3916995472371667  0.9167217390357721  0.3988659061449056  1.0000
  H   H50       1.0  0.29604893444585667  0.9567913428446175  0.48180414905458246  1.0000
  H   H51       1.0  0.3447975502058113  0.053183140974098805  0.4887757031762093  1.0000
  H   H52       1.0  0.3959870837099827  0.9689967652156214  0.5256098876384528  1.0000
  H   H53       1.0  0.6003999261400851  0.060550792001521386  0.3393334605014857  1.0000
  H   H54       1.0  0.7221659653912978  0.9878124500053644  0.31766527955287666  1.0000
  H   H55       1.0  0.6431551316677188  0.9436265079733915  0.2590041085673107  1.0000
  H   H56       1.0  0.1887063803945352  0.6799380764707337  0.613998925561539  1.0000
  H   H57       1.0  0.6698061888216883  0.8981679969228296  0.3418221445300417  1.0000
  H   H58       1.0  0.48206365834731446  0.7612745660841966  0.2589830007819245  1.0000
  H   H59       1.0  0.4586633633471635  0.8640514626004716  0.18376692393979974  1.0000
  H   H60       1.0  0.5060348555605643  0.9354872480916755  0.2447637562163507  1.0000
  H   H61       1.0  0.40550611155931904  0.8974078208693114  0.2597064508880393  1.0000
  H   H62       1.0  0.31236652477523547  0.1929845231720861  0.3435896608689646  1.0000
  H   H63       1.0  0.2964645495081299  0.10415482325642242  0.2508068909356069  1.0000
  H   H64       1.0  0.3608546562776169  0.03458860759825911  0.29496580931655103  1.0000
  H   H65       1.0  0.40566296432487553  0.12078068258547596  0.2543334967066854  1.0000
  H   H66       1.0  0.5866639364611218  0.07977361646187121  0.4726649320773931  1.0000
  H   H67       1.0  0.6703816302603727  0.6277322368737971  0.4798851402123887  1.0000
  H   H68       1.0  0.5572686472380896  0.927151946926145  0.5042044546734203  1.0000
  H   H69       1.0  0.7349335889074455  0.7272453420660838  0.4184192554262367  1.0000
  H   H70       1.0  0.8145379070508696  0.6625722607644279  0.39419330091957516  1.0000
  C   C1        1.0  0.5061677037186953  0.6493596739547982  0.49019344183572144  1.0000
  C   C2        1.0  0.4737405393705528  0.10099667260737992  0.4145146837250238  1.0000
  C   C3        1.0  0.5111228598893477  0.8148585734908168  0.3538996590883627  1.0000
  C   C4        1.0  0.4132773173752682  0.1581905578923894  0.39753147357500046  1.0000
  C   C5        1.0  0.5012067730726457  0.7414074770591557  0.3885979217954016  1.0000
  C   C6        1.0  0.42255390245180274  0.23391099320324568  0.43058295929255047  1.0000
  C   C7        1.0  0.530979457180763  0.9694500892647046  0.3780999449992208  1.0000
  C   C8        1.0  0.46628029360519446  0.0143635261234252  0.3977766247770944  1.0000
  C   C9        1.0  0.233803318740506  0.538586123162233  0.5426891498344163  1.0000
  C   C10       1.0  0.7640636311587626  0.550743582852185  0.49503333343592704  1.0000
  C   C11       1.0  0.14795864342504927  0.5321175528913925  0.531049351647617  1.0000
  C   C12       1.0  0.4932408239421449  0.340193931587372  0.5055606296666824  1.0000
  C   C13       1.0  0.8491942434747627  0.5382707788603867  0.4972717601611549  1.0000
  C   C14       1.0  0.11092143786669341  0.4779303581407818  0.48064116170304066  1.0000
  C   C15       1.0  0.8829944035784577  0.4687033009772676  0.525631830138785  1.0000
  C   C16       1.0  0.493395355240466  0.49894381146232564  0.3742141446169001  1.0000
  C   C17       1.0  0.496814389644797  0.517787410633076  0.6512513445968011  1.0000
  C   C18       1.0  0.16286318198909563  0.4294839952099637  0.440246879010175  1.0000
  C   C19       1.0  0.8281429066061463  0.40989933157871417  0.5525895353765337  1.0000
  C   C20       1.0  0.24742982427513033  0.44124263422932597  0.4537270193076637  1.0000
  C   C21       1.0  0.745082834046478  0.4282353220869269  0.5506297880253399  1.0000
  C   C22       1.0  0.020145215059507397  0.47521684451265855  0.4722292248242895  1.0000
  C   C23       1.0  0.5148195945095109  0.732413977805905  0.46233405046125853  1.0000
  C   C24       1.0  0.973296425110334  0.4626909687679445  0.5306178698350834  1.0000
  C   C25       1.0  0.5758361955758317  0.5632147281285995  0.2811119952741024  1.0000
  C   C26       1.0  0.4254098387260469  0.5302104633492776  0.7666650574711653  1.0000
  C   C27       1.0  0.5852753549115732  0.6017808282582991  0.21531825376294478  1.0000
  C   C28       1.0  0.4248874575024288  0.5429405886228054  0.8415355302021013  1.0000
  C   C29       1.0  0.5159044562455505  0.6008631058031214  0.1656582305189076  1.0000
  C   C30       1.0  0.5001199675992964  0.5687364662854292  0.8780196968151018  1.0000
  C   C31       1.0  0.439081619952681  0.5711619183625416  0.18798174405138474  1.0000
  C   C32       1.0  0.5727350481863025  0.5721128851058523  0.8393689159378326  1.0000
  C   C33       1.0  0.4304013230822363  0.5375252065856985  0.2542314092540536  1.0000
  C   C34       1.0  0.488909161468186  0.2568261264172876  0.47710601647868595  1.0000
  C   C35       1.0  0.5724541090372525  0.5552880385731316  0.7670207331345722  1.0000
  C   C36       1.0  0.500611730186634  0.5315754193324411  0.3004769479064606  1.0000
  C   C37       1.0  0.49729138806294765  0.5355784530346599  0.7299252426785401  1.0000
  C   C38       1.0  0.508219083980002  0.5960703153367318  0.952584909926486  1.0000
  C   C39       1.0  0.519589563957595  0.6174906679199451  0.0898457695836754  1.0000
  C   C40       1.0  0.22594858435851964  0.635231406502797  0.6422090683975483  1.0000
  C   C41       1.0  0.7773437523204052  0.6821820723249132  0.4386505607270976  1.0000
  C   C42       1.0  0.9862307754319417  0.47394275153270365  0.6619447978568261  1.0000
  C   C43       1.0  0.0146892008481458  0.5360505382411703  0.3531796337183409  1.0000
  C   C44       1.0  0.07634010571003098  0.30959568455620007  0.4062310781951624  1.0000
  C   C45       1.0  0.5385439537812785  0.7993613467104198  0.5062096536996208  1.0000
  C   C46       1.0  0.9015027811808523  0.28347363373139706  0.5403397654142594  1.0000
  C   C47       1.0  0.6724212365861605  0.70934896690828  0.16105739645276881  1.0000
  C   C48       1.0  0.3441576347117631  0.4971572788394243  0.9455981976162846  1.0000
  C   C49       1.0  0.5128833775306986  0.7419829975407027  0.6262831552867283  1.0000
  C   C50       1.0  0.6832754852581644  0.1661080122687579  0.5527363239753385  1.0000
  C   C51       1.0  0.3554957692144569  0.9892870015496199  0.48061709255848933  1.0000
  C   C52       1.0  0.662090418322556  0.9560052462126833  0.315797079226904  1.0000
  C   C53       1.0  0.4661825013747034  0.8814799487261381  0.2405241018462831  1.0000
  C   C54       1.0  0.35301550738472537  0.09825911776222541  0.2843546857690101  1.0000
  C   C55       1.0  0.5517464122677042  0.20097941857463306  0.4919851673881722  1.0000
  C   C56       1.0  0.5437787314217815  0.8730113605269736  0.4718005299268527  1.0000
  C   C57       1.0  0.5415920970286122  0.124939155396369  0.4601338821204947  1.0000
  C   C58       1.0  0.5299890670281117  0.8832219056229887  0.3980246138313888  1.0000
  N   N1        1.0  0.5898875083415476  0.6047525440223678  0.05550670112845069  1.0000
  N   N2        1.0  0.9857724817053252  0.47593864045975925  0.4022966032258566  1.0000
  N   N3        1.0  0.1349821770769495  0.3729904562154047  0.3876466659203359  1.0000
  N   N4        1.0  0.8519515687945115  0.3369617863039736  0.5819713644759332  1.0000
  N   N5        1.0  0.6596197442351367  0.6396784837509273  0.2049253520180727  1.0000
  N   N6        1.0  0.3518396128452181  0.5271458609794524  0.8736898577193628  1.0000
  N   N7        1.0  0.5553356415639428  0.7971922718117099  0.5799800359100544  1.0000
  N   N8        1.0  0.6168128483986878  0.2196237037073345  0.5397701906561067  1.0000
  N   N9        1.0  0.3894841635458163  0.9762741791084224  0.4106558150498927  1.0000
  N   N10       1.0  0.6046610659721948  0.0027129765536245006  0.3545875737454196  1.0000
  N   N11       1.0  0.5029870777011  0.815354355136428  0.2790018038430162  1.0000
  N   N12       1.0  0.44687545878246476  0.6347218939869352  0.9837556629736071  1.0000
  N   N13       1.0  0.34408299074789983  0.14216349728437186  0.3513602100062414  1.0000
  N   N14       1.0  0.5843148699662208  0.5947584845127166  0.9859461659393104  1.0000
  N   N15       1.0  0.4528519050044507  0.6463346091558505  0.05379030073306979  1.0000
  N   N16       1.0  0.28241453611238404  0.49351430286409226  0.5018659530558978  1.0000
  N   N17       1.0  0.7129809507366075  0.49480700166945724  0.523408868200228  1.0000
  N   N18       1.0  0.2714644036869629  0.5884862430079493  0.5931233196264074  1.0000
  N   N19       1.0  0.7293856963408488  0.6165436375251757  0.46585880085371667  1.0000
  N   N20       1.0  0.007565053047876796  0.4349841105121612  0.595500817972578  1.0000
  O   O1        1.0  0.5717644970705322  0.6183436176843741  0.5162083229224308  1.0000
  O   O2        1.0  0.4261362939414112  0.37687471197256883  0.5101640778679127  1.0000
  O   O3        1.0  0.43599529478033355  0.6146614980451589  0.4842747128070926  1.0000
  O   O4        1.0  0.5647804043443756  0.37162957994032547  0.522344566646538  1.0000
  O   O5        1.0  0.5603424841624188  0.4947139709598575  0.4120741293670775  1.0000
  O   O6        1.0  0.42821568433850393  0.5199260391861101  0.6151661373392942  1.0000
  O   O7        1.0  0.42172134205871  0.4817912513483337  0.3942708998622777  1.0000
  O   O8        1.0  0.5655638723862567  0.5020660427614062  0.6262326367909807  1.0000
