data_image0
_chemical_formula_structural       Zn3H30C44N6O20
_chemical_formula_sum              "Zn3 H30 C44 N6 O20"
_cell_length_a       9.762201375812678
_cell_length_b       11.336751863268885
_cell_length_c       12.100718833627235
_cell_angle_alpha    70.4774147998752
_cell_angle_beta     69.74274776717887
_cell_angle_gamma    73.31942848490384

_space_group_name_H-M_alt    "P 1"
_space_group_IT_number       1

loop_
  _space_group_symop_operation_xyz
  'x, y, z'

loop_
  _atom_site_type_symbol
  _atom_site_label
  _atom_site_symmetry_multiplicity
  _atom_site_fract_x
  _atom_site_fract_y
  _atom_site_fract_z
  _atom_site_occupancy
  Zn  Zn1       1.0  0.145553068320794  0.6815622266462142  0.4944086996150289  1.0000
  Zn  Zn2       1.0  0.8544457276953209  0.3184412451676266  0.5055866319886277  1.0000
  Zn  Zn3       1.0  0.9999962887975823  5.19299455001585e-07  0.5000019766310262  1.0000
  H   H1        1.0  0.7286528185590414  0.9184050737838304  0.6753602842419613  1.0000
  H   H2        1.0  0.2713477026365609  0.08159072770619959  0.32464354451319377  1.0000
  H   H3        1.0  0.26559074433246366  0.9700241099921314  0.6979865321270607  1.0000
  H   H4        1.0  0.7344096229579335  0.029977391726880895  0.30201888284167916  1.0000
  H   H5        1.0  0.5954248311907335  0.732456791450943  0.4804487179767849  1.0000
  H   H6        1.0  0.4045693728043248  0.2675428560819952  0.5195540489649345  1.0000
  H   H7        1.0  0.4847534240675699  0.8032005010030048  0.9052178305362307  1.0000
  H   H8        1.0  0.5152449303782448  0.19679528935090926  0.09478991797914202  1.0000
  H   H9        1.0  0.3668323421120831  0.7460425543721882  0.12922020451366478  1.0000
  H   H10       1.0  0.6331592827064868  0.25395898024494556  0.8707876642194918  1.0000
  H   H11       1.0  0.16277863910253387  0.138447182670852  0.1140327723740668  1.0000
  H   H12       1.0  0.8372169020718659  0.8615562772789788  0.8859676122901236  1.0000
  H   H13       1.0  0.06236793240971388  0.7312807368584302  0.7534450170843243  1.0000
  H   H14       1.0  0.9376358251801025  0.26871990021685116  0.24654235511162173  1.0000
  H   H15       1.0  0.9911002068552933  0.4237837903987509  0.6708225737925704  1.0000
  H   H16       1.0  0.008900056239483034  0.5762130134431941  0.32917275360066617  1.0000
  H   H17       1.0  0.876567763181896  0.5963722042149654  0.9602082439199577  1.0000
  H   H18       1.0  0.12343951206750597  0.4036274375322365  0.03978340315715196  1.0000
  H   H19       1.0  0.8610630763995816  0.3379895624865341  0.995516160345275  1.0000
  H   H20       1.0  0.13894791800571224  0.6620081396625891  0.004478344017606211  1.0000
  H   H21       1.0  0.8310021470442663  0.32183616864201525  0.8652335774675989  1.0000
  H   H22       1.0  0.169000315819595  0.678160612454917  0.1347636162238643  1.0000
  H   H23       1.0  0.6458926086148082  0.3907006402712412  0.15093474054262404  1.0000
  H   H24       1.0  0.3541188693934957  0.6092998954157735  0.8490628833060968  1.0000
  H   H25       1.0  0.6227553198150702  0.5176026157382198  0.778878788790081  1.0000
  H   H26       1.0  0.3772550748183504  0.48239791438073343  0.2211207949387416  1.0000
  H   H27       1.0  0.36422498654264507  0.49400311820937043  0.44431156809559985  1.0000
  H   H28       1.0  0.635777078045649  0.5059955465873927  0.5556892873664128  1.0000
  H   H29       1.0  0.21840725944850453  0.43949326822787776  0.4690172709469067  1.0000
  H   H30       1.0  0.7815937410537401  0.5605101760007898  0.530980753534749  1.0000
  C   C1        1.0  0.8402708986685282  0.7646048598814303  0.5239013049789492  1.0000
  C   C2        1.0  0.1597265790364162  0.2353947801548699  0.4760997152213379  1.0000
  C   C3        1.0  0.6797200008120042  0.8172538445898353  0.5740047116212282  1.0000
  C   C4        1.0  0.32027551163946544  0.18274484004035677  0.42599881074387724  1.0000
  C   C5        1.0  0.6424741718214407  0.896357720625552  0.6517656243411382  1.0000
  C   C6        1.0  0.3575254627785327  0.1036371358665775  0.3482379201189617  1.0000
  C   C7        1.0  0.49425780583170115  0.9495772490651078  0.6952304528054614  1.0000
  C   C8        1.0  0.5057412054111836  0.0504204595976532  0.3047740381216997  1.0000
  C   C9        1.0  0.38141846992934353  0.9248758037245394  0.6660512414298909  1.0000
  C   C10       1.0  0.6185803256661018  0.0751228637287014  0.33395218735333293  1.0000
  C   C11       1.0  0.41866675035869594  0.8436095558793679  0.5905318465296006  1.0000
  C   C12       1.0  0.5813274630704514  0.15639008197324236  0.4094725735716693  1.0000
  C   C13       1.0  0.5678095360188423  0.790062827701206  0.5442320107740173  1.0000
  C   C14       1.0  0.4321870739586445  0.20993584797655973  0.45577203145030865  1.0000
  C   C15       1.0  0.3951566468250292  0.004222964988734598  0.883126185103393  1.0000
  C   C16       1.0  0.6048412621747871  0.995774757466613  0.11687695938476857  1.0000
  C   C17       1.0  0.41487064732223905  0.8765327030445746  0.9511950574132939  1.0000
  C   C18       1.0  0.5851222718016159  0.12346788319030112  0.04881108700391934  1.0000
  C   C19       1.0  0.3468911079599907  0.8444842882949356  0.07565186602612782  1.0000
  C   C20       1.0  0.6531028945387618  0.1555163035079943  0.9243523185109837  1.0000
  C   C21       1.0  0.25378906023230036  0.9373980486955058  0.13579953722887708  1.0000
  C   C22       1.0  0.746205599063515  0.0626044614162709  0.8642013897200304  1.0000
  C   C23       1.0  0.23311888088160526  0.06451751658617157  0.0690948138043765  1.0000
  C   C24       1.0  0.7668779734662505  0.93548497562076  0.9309071528629788  1.0000
  C   C25       1.0  0.3046053528107819  0.097923333131412  0.9443802130626081  1.0000
  C   C26       1.0  0.6953932129860972  0.9020763076327895  0.05561967383734873  1.0000
  C   C27       1.0  0.17880787956896432  0.8979273111623485  0.2700135265466557  1.0000
  C   C28       1.0  0.8211846082600188  0.10207519265347999  0.729990493582676  1.0000
  C   C29       1.0  0.022141519166886812  0.6459930577552626  0.7679636103488505  1.0000
  C   C30       1.0  0.9778587203426808  0.3540037702874912  0.23202758414550576  1.0000
  C   C31       1.0  0.9867329845199038  0.49040673394680573  0.7194125797499638  1.0000
  C   C32       1.0  0.013271218515910718  0.5095919710270351  0.2805793964731863  1.0000
  C   C33       1.0  0.9277467542904247  0.5823837446908015  0.8693994237496768  1.0000
  C   C34       1.0  0.07225657158384992  0.41761400560482537  0.1305939213379688  1.0000
  C   C35       1.0  0.8156929072265625  0.38984485486089687  0.9173532310360814  1.0000
  C   C36       1.0  0.18431503383332168  0.6101518911542314  0.08264490879194848  1.0000
  C   C37       1.0  0.6526846277228131  0.44804444779975927  0.9601122718438335  1.0000
  C   C38       1.0  0.3473237875059993  0.5519551414335666  0.03988733431047828  1.0000
  C   C39       1.0  0.5819281823987552  0.43823374421753414  0.08441488832962557  1.0000
  C   C40       1.0  0.41808111470863446  0.5617667948538455  0.9155841755399763  1.0000
  C   C41       1.0  0.5692662415275223  0.510557855008713  0.8758680892887014  1.0000
  C   C42       1.0  0.430748280392109  0.4894436464926173  0.12412424593532013  1.0000
  C   C43       1.0  0.29575464323103523  0.8203185065315494  0.5577208668338544  1.0000
  C   C44       1.0  0.7042411230248861  0.17968398494748777  0.442282233133831  1.0000
  N   N1        1.0  0.2809221179826978  0.23203882180314384  0.8783534039783376  1.0000
  N   N2        1.0  0.7190797356752014  0.7679607969439386  0.12164721591951644  1.0000
  N   N3        1.0  0.05819317797806181  0.5877844977385392  0.6748462956316673  1.0000
  N   N4        1.0  0.9418048806305918  0.4122123336885792  0.32514633888357036  1.0000
  N   N5        1.0  0.9060044018454079  0.48493347735477227  0.8367915774520895  1.0000
  N   N6        1.0  0.094003759999616  0.5150671093903156  0.1632003539200824  1.0000
  O   O1        1.0  0.9376776888434293  0.8175468775792893  0.5281898813762068  1.0000
  O   O2        1.0  0.062316308938278595  0.1824537190638083  0.4718134765811257  1.0000
  O   O3        1.0  0.8782326030456318  0.6670985574527252  0.4828275288176301  1.0000
  O   O4        1.0  0.1217637964221367  0.33290587653596765  0.5171681806629708  1.0000
  O   O5        1.0  0.458421775262181  0.04047006871491729  0.7609397206664569  1.0000
  O   O6        1.0  0.5415796466801837  0.9595266632525181  0.23906687212308964  1.0000
  O   O7        1.0  0.3846113000458615  0.2737362494283246  0.7934343493863665  1.0000
  O   O8        1.0  0.6153955482050435  0.7262605006990694  0.2065640971622075  1.0000
  O   O9        1.0  0.1558556987828865  0.29813195663206926  0.9131612428559492  1.0000
  O   O10       1.0  0.8441481630025505  0.701873378320272  0.08683621691550068  1.0000
  O   O11       1.0  0.1790733344188737  0.7792084335115276  0.3148748355179621  1.0000
  O   O12       1.0  0.8209143320111564  0.22079602369495885  0.6851249808866059  1.0000
  O   O13       1.0  0.12277088364379544  0.9860681543545837  0.3251362838868133  1.0000
  O   O14       1.0  0.8772272885945609  0.013933365269281198  0.6748680913634787  1.0000
  O   O15       1.0  0.17117281851223964  0.8960106455658657  0.5791876671225041  1.0000
  O   O16       1.0  0.8288229383095995  0.10399185559349179  0.4208137796856235  1.0000
  O   O17       1.0  0.323556405803501  0.7248837654222983  0.5145808058032983  1.0000
  O   O18       1.0  0.676439561948726  0.2751177817867401  0.48542087656899463  1.0000
  O   O19       1.0  0.26583449936496356  0.5181864496573139  0.43134012573254676  1.0000
  O   O20       1.0  0.7341682267374381  0.48181412860814293  0.5686582987210399  1.0000
