data_image0
_chemical_formula_structural       Li6H12C12O12
_chemical_formula_sum              "Li6 H12 C12 O12"
_cell_length_a       7.797562308562277
_cell_length_b       7.797512129165226
_cell_length_c       7.797486546028114
_cell_angle_alpha    100.9503312918572
_cell_angle_beta     100.9494620226963
_cell_angle_gamma    100.94976141156985

_space_group_name_H-M_alt    "P 1"
_space_group_IT_number       1

loop_
  _space_group_symop_operation_xyz
  'x, y, z'

loop_
  _atom_site_type_symbol
  _atom_site_label
  _atom_site_symmetry_multiplicity
  _atom_site_fract_x
  _atom_site_fract_y
  _atom_site_fract_z
  _atom_site_occupancy
  Li  Li1       1.0  0.014611135502938997  0.10354136237820911  0.67197299812662  1.0000
  Li  Li2       1.0  0.6719727020892917  0.0146049793652594  0.10354179178352749  1.0000
  Li  Li3       1.0  0.10353782634803822  0.6719752850633897  0.01460976083725285  1.0000
  Li  Li4       1.0  0.9853890770182261  0.8964590266129805  0.32802840020239904  1.0000
  Li  Li5       1.0  0.3280268719773646  0.9853927222311827  0.8964589680767008  1.0000
  Li  Li6       1.0  0.896463375677108  0.32802375946100437  0.9853902868701427  1.0000
  H   H1        1.0  0.6573516651742181  0.9191718720169463  0.45755900814626227  1.0000
  H   H2        1.0  0.45757478512484784  0.6573558537599241  0.9191722235310139  1.0000
  H   H3        1.0  0.9191742575380318  0.45756389309201506  0.6573549625059699  1.0000
  H   H4        1.0  0.34264561767837876  0.08082718182219391  0.5424415714724802  1.0000
  H   H5        1.0  0.5424270518442283  0.3426458746559788  0.0808297437703374  1.0000
  H   H6        1.0  0.08082564628760026  0.5424351627115128  0.34264227321312296  1.0000
  H   H7        1.0  0.47091577905248977  0.8083536946871988  0.5301931726884206  1.0000
  H   H8        1.0  0.5302011130446546  0.4709134008070067  0.8083557711408604  1.0000
  H   H9        1.0  0.8083579832355667  0.5301971670478807  0.4709194756085254  1.0000
  H   H10       1.0  0.529081503800107  0.19164535915194847  0.4698074069303218  1.0000
  H   H11       1.0  0.4698004011865891  0.5290869804082805  0.19164715805128202  1.0000
  H   H12       1.0  0.19164192410063666  0.4698018922588859  0.5290764789853882  1.0000
  C   C1        1.0  0.6514231520063518  0.029190261765933208  0.7313800282607591  1.0000
  C   C2        1.0  0.7313824264121251  0.65142157919567  0.029190098439897717  1.0000
  C   C3        1.0  0.02919154632383674  0.731379697208986  0.6514220032740071  1.0000
  C   C4        1.0  0.3485741308462451  0.9708087920732142  0.2686205513579766  1.0000
  C   C5        1.0  0.26861974031591973  0.3485815034273261  0.9708083447203111  1.0000
  C   C6        1.0  0.9708086767290496  0.2686207022919192  0.348575551679474  1.0000
  C   C7        1.0  0.5580124330782253  0.9393715768237313  0.5373507310967794  1.0000
  C   C8        1.0  0.5373535223405526  0.5580116194723247  0.939374767994174  1.0000
  C   C9        1.0  0.9393750211730633  0.5373506888103068  0.5580134462732432  1.0000
  C   C10       1.0  0.4419845270365458  0.060626129814792803  0.46265081041274686  1.0000
  C   C11       1.0  0.4626479883801196  0.44198875823973083  0.060629442323147514  1.0000
  C   C12       1.0  0.0606248826525686  0.4626483669932285  0.44198378944584965  1.0000
  O   O1        1.0  0.8059961130939544  0.13565577340231272  0.7658105232635891  1.0000
  O   O2        1.0  0.7658158037475714  0.8059877926311996  0.13566106432982386  1.0000
  O   O3        1.0  0.1356589164867259  0.7658090439048807  0.8059934854496407  1.0000
  O   O4        1.0  0.19400116975864276  0.8643432804368345  0.23419005635515333  1.0000
  O   O5        1.0  0.23418635244875216  0.1940152794820804  0.8643412222059228  1.0000
  O   O6        1.0  0.8643386961248467  0.2341913641413527  0.19400357002795232  1.0000
  O   O7        1.0  0.5668452219828242  0.00024235965771170033  0.8512036426778452  1.0000
  O   O8        1.0  0.8512004609094603  0.5668347413919363  0.00023973179223453283  1.0000
  O   O9        1.0  0.00024570066560869464  0.8512034828084013  0.5668464084356375  1.0000
  O   O10       1.0  0.4331549905383341  0.9997580293334779  0.14879775565117379  1.0000
  O   O11       1.0  0.14880268479084438  0.4331669862545482  0.9997612041218888  1.0000
  O   O12       1.0  0.9997551891534258  0.14879422502509243  0.4331507577870042  1.0000
