data_image0
_chemical_formula_structural       Al2H18C28N4O10
_chemical_formula_sum              "Al2 H18 C28 N4 O10"
_cell_length_a       6.694920793394253
_cell_length_b       17.0100190987775
_cell_length_c       17.00999224517832
_cell_angle_alpha    91.7653109207438
_cell_angle_beta     97.86689378151702
_cell_angle_gamma    97.8670874276903

_space_group_name_H-M_alt    "P 1"
_space_group_IT_number       1

loop_
  _space_group_symop_operation_xyz
  'x, y, z'

loop_
  _atom_site_type_symbol
  _atom_site_label
  _atom_site_symmetry_multiplicity
  _atom_site_fract_x
  _atom_site_fract_y
  _atom_site_fract_z
  _atom_site_occupancy
  Al  Al1       1.0  9.135102487825604e-07  0.5000011323795377  0.4999979999866966  1.0000
  Al  Al2       1.0  0.5000010918746013  0.5000006208327931  0.4999992234962178  1.0000
  H   H1        1.0  0.8033546696285967  0.5761957783018586  0.5761950508866747  1.0000
  H   H2        1.0  0.19665010517595505  0.42380428527546593  0.42380410305621313  1.0000
  H   H3        1.0  0.34536946903381954  0.2609007238518117  0.5021028626525279  1.0000
  H   H4        1.0  0.2862914855370775  0.11112940770492938  0.499379670635996  1.0000
  H   H5        1.0  0.9261505504613794  0.1076707291174017  0.49933129618268174  1.0000
  H   H6        1.0  0.9849455397701801  0.257924623389151  0.5021865791498499  1.0000
  H   H7        1.0  0.07385615760711751  0.8923305145889342  0.5006673919973892  1.0000
  H   H8        1.0  0.7137193370405512  0.888874843717751  0.5006216374771882  1.0000
  H   H9        1.0  0.654644143561576  0.7391029170016239  0.49789740835556984  1.0000
  H   H10       1.0  0.015063958316083897  0.7420760097479403  0.4978110719251419  1.0000
  H   H11       1.0  0.6546334896641426  0.4978977521444179  0.7390988159932306  1.0000
  H   H12       1.0  0.7137072967245999  0.5006187147076843  0.8888697367824818  1.0000
  H   H13       1.0  0.07384992604785623  0.5006669154767566  0.8923288699967103  1.0000
  H   H14       1.0  0.015055075887936158  0.4978138299315304  0.7420744396130914  1.0000
  H   H15       1.0  0.9261429828676596  0.499333710177595  0.1076678967236049  1.0000
  H   H16       1.0  0.2862812987193736  0.4993783357112991  0.11112615406025841  1.0000
  H   H17       1.0  0.34535618773649196  0.5021022779839798  0.26089776881944  1.0000
  H   H18       1.0  0.9849389095377032  0.5021897665500886  0.2579224326866836  1.0000
  C   C1        1.0  0.29924961378342363  0.49752408161698003  0.6438328560040745  1.0000
  C   C2        1.0  0.29925893087633426  0.6438359738412203  0.4975183605680016  1.0000
  C   C3        1.0  0.7007450175482932  0.5024812973610011  0.3561640796433778  1.0000
  C   C4        1.0  0.7007514066318875  0.3561670004291031  0.5024770214086658  1.0000
  C   C5        1.0  0.6683814921391615  0.267591072759636  0.5023437157735274  1.0000
  C   C6        1.0  0.47083809724469466  0.22640617392880097  0.5015746717893776  1.0000
  C   C7        1.0  0.4379179628739608  0.14414089763983642  0.5001450744501952  1.0000
  C   C8        1.0  0.604053062793561  0.10159777378515139  0.4996042842249366  1.0000
  C   C9        1.0  0.8012681558660688  0.1425121196649215  0.500069220689177  1.0000
  C   C10       1.0  0.8332673652205216  0.2250722360077404  0.5016120868194704  1.0000
  C   C11       1.0  0.19874178916385418  0.857489728449515  0.499930237789016  1.0000
  C   C12       1.0  0.3959560363756082  0.8984058827918346  0.5003969223764742  1.0000
  C   C13       1.0  0.562093931759513  0.8558621572500442  0.499855683436607  1.0000
  C   C14       1.0  0.5291740072442721  0.7735974662443894  0.49842551882284886  1.0000
  C   C15       1.0  0.3316314745501572  0.7324107855974447  0.49765649188690025  1.0000
  C   C16       1.0  0.1667460157332386  0.7749307840338062  0.49838639790132083  1.0000
  C   C17       1.0  0.3316223163876514  0.4976574310982257  0.7324087089743474  1.0000
  C   C18       1.0  0.5291653765127079  0.49842676473274133  0.7735942805250745  1.0000
  C   C19       1.0  0.5620837876128917  0.4998538168524719  0.8558591135644775  1.0000
  C   C20       1.0  0.39594923171596713  0.5003940077304704  0.8984023118716067  1.0000
  C   C21       1.0  0.19873177382241644  0.4999297519596979  0.8574865746816869  1.0000
  C   C22       1.0  0.16673577082838154  0.4983886482292448  0.7749274548166625  1.0000
  C   C23       1.0  0.8012561801697586  0.500069683322998  0.14250990861921053  1.0000
  C   C24       1.0  0.6040423799408644  0.49960304404901024  0.10159373976289031  1.0000
  C   C25       1.0  0.43790653668606433  0.5001438372943597  0.1441374671805065  1.0000
  C   C26       1.0  0.4708273225473222  0.5015732756383005  0.2264030534698236  1.0000
  C   C27       1.0  0.6683708132764251  0.5023437976037214  0.2675886672523333  1.0000
  C   C28       1.0  0.8332530334788187  0.5016131459509765  0.2250679361668517  1.0000
  N   N1        1.0  0.5887964949941277  0.0178719397554303  0.49842457287631  1.0000
  N   N2        1.0  0.41121066001802115  0.9821305189282512  0.5015759227069623  1.0000
  N   N3        1.0  0.4112024926986494  0.5015737797551766  0.9821274642025344  1.0000
  N   N4        1.0  0.5887878316003138  0.49842387439165486  0.017869116542442505  1.0000
  O   O1        1.0  0.11780221894584028  0.4981540265870096  0.6095932699223994  1.0000
  O   O2        1.0  0.45680231582071673  0.6093011079567531  0.4980612267423581  1.0000
  O   O3        1.0  0.543201235212038  0.5019377476411934  0.3906986705419513  1.0000
  O   O4        1.0  0.882199486810883  0.3904059914158253  0.5018474312925036  1.0000
  O   O5        1.0  0.8821939204923126  0.5018513530712241  0.3904037461209242  1.0000
  O   O6        1.0  0.5432058622284612  0.3907000742548091  0.501933423100283  1.0000
  O   O7        1.0  0.45679642322561886  0.4980676504615715  0.6092996026782059  1.0000
  O   O8        1.0  0.11781062450224057  0.6095963709247485  0.49814675278732773  1.0000
  O   O9        1.0  0.7741233076879724  0.5345340552682103  0.5345344655066454  1.0000
  O   O10       1.0  0.22588104740560055  0.46546483774250186  0.4654658229854007  1.0000
