data_image0
_chemical_formula_structural       Cd2H36C36N12Cl4
_chemical_formula_sum              "Cd2 H36 C36 N12 Cl4"
_cell_length_a       9.812624612303765
_cell_length_b       10.399616685869077
_cell_length_c       11.41571672524063
_cell_angle_alpha    62.5913232393203
_cell_angle_beta     79.17996139854056
_cell_angle_gamma    83.9860386641543

_space_group_name_H-M_alt    "P 1"
_space_group_IT_number       1

loop_
  _space_group_symop_operation_xyz
  'x, y, z'

loop_
  _atom_site_type_symbol
  _atom_site_label
  _atom_site_symmetry_multiplicity
  _atom_site_fract_x
  _atom_site_fract_y
  _atom_site_fract_z
  _atom_site_occupancy
  Cd  Cd1       1.0  0.008903778989953502  0.4157195825918407  0.6867880605091655  1.0000
  Cd  Cd2       1.0  0.9910977049822876  0.5842790732641348  0.31321349529182635  1.0000
  H   H1        1.0  0.33539286584091604  0.0641480635072469  0.8637077446731565  1.0000
  H   H2        1.0  0.6646066495328993  0.9358462513993686  0.13629506513834136  1.0000
  H   H3        1.0  0.5707098377014503  0.8643448556966647  0.6304340603103069  1.0000
  H   H4        1.0  0.4292904581365348  0.13565708959610837  0.36956108020960693  1.0000
  H   H5        1.0  0.7635743407955856  0.1750858894979928  0.6952066161526034  1.0000
  H   H6        1.0  0.2364239623969056  0.8249149177926612  0.3047937138042514  1.0000
  H   H7        1.0  0.5771104071760362  0.19190169353429812  0.9388030902453576  1.0000
  H   H8        1.0  0.42288997864791616  0.8080980615143504  0.06119556919323801  1.0000
  H   H9        1.0  0.6116408367442858  0.328981364501459  0.771889518332962  1.0000
  H   H10       1.0  0.38835961793575546  0.6710162160019023  0.22811090501394207  1.0000
  H   H11       1.0  0.3679165865422577  0.4103695988186473  0.6516144528347849  1.0000
  H   H12       1.0  0.6320848205582054  0.5896322992316954  0.34838665086671483  1.0000
  H   H13       1.0  0.0884475527847783  0.31577655381686043  0.00776932850612158  1.0000
  H   H14       1.0  0.9115538728963128  0.6842242687349726  0.9922313408917486  1.0000
  H   H15       1.0  0.34762436488635023  0.19658056872343374  0.07280159274849037  1.0000
  H   H16       1.0  0.6523769919386596  0.8034224283736864  0.9271973127410714  1.0000
  H   H17       1.0  0.22520090448564636  0.9522257845070786  0.7457234902683036  1.0000
  H   H18       1.0  0.7747994150314668  0.0477772048865077  0.2542755945759794  1.0000
  H   H19       1.0  0.3277007768081006  0.8234423537564126  0.7019856744688509  1.0000
  H   H20       1.0  0.6722954412036729  0.17655844597659615  0.29801413669226656  1.0000
  H   H21       1.0  0.1103517282124997  0.8696148443110798  0.9858141092091516  1.0000
  H   H22       1.0  0.8896507956168805  0.13038487904809412  0.014189456551115044  1.0000
  H   H23       1.0  0.26923102508246183  0.44121578536945083  0.1625745471245068  1.0000
  H   H24       1.0  0.7307693210309764  0.5587850608765522  0.8374227916073378  1.0000
  H   H25       1.0  0.4092387684784597  0.5853837014005594  0.9018548306207277  1.0000
  H   H26       1.0  0.590760519197211  0.41461715284075507  0.09814093245547181  1.0000
  H   H27       1.0  0.794196954231893  0.016925155246092095  0.4744432754224448  1.0000
  H   H28       1.0  0.20580135697628776  0.9830745843954819  0.5255557427255934  1.0000
  H   H29       1.0  0.8830301195209955  0.0935510657628242  0.5486299677909017  1.0000
  H   H30       1.0  0.1169703457239919  0.9064465068911077  0.4513713330611892  1.0000
  H   H31       1.0  0.8449344505577299  0.7566060111341812  0.5227629001511358  1.0000
  H   H32       1.0  0.15506189460127473  0.24339044735768306  0.47723956132141143  1.0000
  H   H33       1.0  0.09450095156704207  0.6266068176366276  0.8226935371178355  1.0000
  H   H34       1.0  0.9054973224798744  0.37339507300195873  0.1773063496374546  1.0000
  H   H35       1.0  0.9836253560267634  0.906834362333477  0.7672729380324836  1.0000
  H   H36       1.0  0.0163698829682701  0.09316426300014062  0.23272793888647664  1.0000
  C   C1        1.0  0.5495522996951578  0.12842875234046153  0.7889424223741627  1.0000
  C   C2        1.0  0.4504480781131051  0.8715720703572669  0.2110575488732493  1.0000
  C   C3        1.0  0.43430391558619885  0.048360766191756  0.8088614648397863  1.0000
  C   C4        1.0  0.5656986559693847  0.9516367983209832  0.19114210981842197  1.0000
  C   C5        1.0  0.44166804648786234  0.9521767785858658  0.753024266588525  1.0000
  C   C6        1.0  0.5583312728826328  0.047824052107174005  0.24697412900323454  1.0000
  C   C7        1.0  0.5655583853243441  0.9365270569312969  0.6769044045526584  1.0000
  C   C8        1.0  0.43444202964518297  0.06347161476941922  0.3230946980874946  1.0000
  C   C9        1.0  0.6818729687292303  0.0161746666147806  0.6567642792640669  1.0000
  C   C10       1.0  0.31812635064125766  0.983826164078259  0.343234116327693  1.0000
  C   C11       1.0  0.6735777515215416  0.11108665543857653  0.7133542785033171  1.0000
  C   C12       1.0  0.326420599397153  0.8889119930056425  0.28664606035147217  1.0000
  C   C13       1.0  0.5422746391410698  0.23944459575155722  0.8410982672780845  1.0000
  C   C14       1.0  0.4577257783777071  0.760555135748817  0.15890302467607123  1.0000
  C   C15       1.0  0.32632231481034774  0.37251172082373785  0.7568625123874497  1.0000
  C   C16       1.0  0.6736800713068547  0.6274923516260034  0.24313752555620727  1.0000
  C   C17       1.0  0.18505866692910897  0.3183012346554578  0.9430829228338806  1.0000
  C   C18       1.0  0.8149427190414685  0.6817006790937298  0.056916425857245684  1.0000
  C   C19       1.0  0.3123718125725716  0.25932450864331713  0.9772313336264132  1.0000
  C   C20       1.0  0.6876295839629449  0.7406773972564479  0.022768892569899904  1.0000
  C   C21       1.0  0.31292246445747196  0.8740811968608855  0.7694147470805529  1.0000
  C   C22       1.0  0.6870759261717367  0.12591636038597903  0.23058691248098032  1.0000
  C   C23       1.0  0.17176732408252346  0.7714572037665661  0.0010594772599005744  1.0000
  C   C24       1.0  0.8282341015985608  0.22854361878527382  0.9989411921379767  1.0000
  C   C25       1.0  0.25801463549468917  0.5521936696550968  0.08766030104982285  1.0000
  C   C26       1.0  0.7419836360029706  0.4478071611838389  0.9123373963914713  1.0000
  C   C27       1.0  0.32837082378806304  0.6216666682771504  0.9594808975080367  1.0000
  C   C28       1.0  0.6716264501122283  0.3783330636608824  0.040518299994722846  1.0000
  C   C29       1.0  0.8146268652720181  0.005954160053427398  0.5698567319387992  1.0000
  C   C30       1.0  0.18537252295456602  0.9940444960943327  0.4301434275612692  1.0000
  C   C31       1.0  0.8957870747568036  0.7560475632360382  0.5997191822229835  1.0000
  C   C32       1.0  0.1042092226760047  0.24395105410225434  0.40028327035162886  1.0000
  C   C33       1.0  0.025165057657673608  0.6951236070392425  0.7534423019182769  1.0000
  C   C34       1.0  0.9748323062285921  0.30487393465466545  0.24656041450317187  1.0000
  C   C35       1.0  0.9715283807995616  0.831272812756268  0.728783885589834  1.0000
  C   C36       1.0  0.0284719864437619  0.16872801779088323  0.271215208152391  1.0000
  N   N1        1.0  0.40138544455635383  0.29570534077207367  0.8577322880387256  1.0000
  N   N2        1.0  0.5986160579965158  0.7042922395853992  0.14226883345864377  1.0000
  N   N3        1.0  0.19511404282143022  0.3881361335382536  0.8058822280144894  1.0000
  N   N4        1.0  0.8048895343472112  0.6118614622262939  0.19411853477343746  1.0000
  N   N5        1.0  0.2720421504778088  0.7605142214656196  0.9054188064106581  1.0000
  N   N6        1.0  0.7279561712953112  0.23948551032653148  0.09458108924257391  1.0000
  N   N7        1.0  0.16100829275239192  0.6464105723730145  0.11224530392025386  1.0000
  N   N8        1.0  0.8389931329286993  0.3535902501788258  0.8877553654776235  1.0000
  N   N9        1.0  0.8902886391953259  0.8683921819846676  0.6307749817572839  1.0000
  N   N10       1.0  0.10970872469093962  0.13160535970923354  0.3692277346641644  1.0000
  N   N11       1.0  0.9771124242057284  0.6499197496460952  0.6726311559263676  1.0000
  N   N12       1.0  0.022886916294652296  0.35008106534809263  0.3273689946757655  1.0000
  Cl  Cl1       1.0  0.8050830159001593  0.4820260256822166  0.5422117129611052  1.0000
  Cl  Cl2       1.0  0.19491846807208194  0.5179726301737589  0.4577898428398868  1.0000
  Cl  Cl3       1.0  0.044694009588361894  0.1421778469337269  0.748309121186949  1.0000
  Cl  Cl4       1.0  0.9553054817383853  0.8578196709201223  0.2516976240509904  1.0000
