data_image0
_chemical_formula_structural       Zn2H28C44N4O14
_chemical_formula_sum              "Zn2 H28 C44 N4 O14"
_cell_length_a       9.585155217632986
_cell_length_b       11.010252742039203
_cell_length_c       23.725780708235465
_cell_angle_alpha    90.59138505714306
_cell_angle_beta     90.00467849295603
_cell_angle_gamma    90.07594587069102

_space_group_name_H-M_alt    "P 1"
_space_group_IT_number       1

loop_
  _space_group_symop_operation_xyz
  'x, y, z'

loop_
  _atom_site_type_symbol
  _atom_site_label
  _atom_site_symmetry_multiplicity
  _atom_site_fract_x
  _atom_site_fract_y
  _atom_site_fract_z
  _atom_site_occupancy
  Zn  Zn1       1.0  0.3699017471997906  0.49904367897169505  0.49981870787740956  1.0000
  Zn  Zn2       1.0  0.6526467774367362  0.4996443918719605  0.5002553313672564  1.0000
  H   H1        1.0  0.4984725758416744  0.8095278574358742  0.050669576411259215  1.0000
  H   H2        1.0  0.2848016517180554  0.5427484751593922  0.3210562757437573  1.0000
  H   H3        1.0  0.7420376044711645  0.8868314578844262  0.5085995813826045  1.0000
  H   H4        1.0  0.2948008433114211  0.11196754830395855  0.4918724907304295  1.0000
  H   H5        1.0  0.7418331457371181  0.11429983086463835  0.5000601213202672  1.0000
  H   H6        1.0  0.29497393594172655  0.8843793625739593  0.5005258271201072  1.0000
  H   H7        1.0  0.876229583976098  0.36669505473882663  0.4376414315417989  1.0000
  H   H8        1.0  0.1463007042220141  0.6311608437165289  0.5629246084901781  1.0000
  H   H9        1.0  0.8777453169760961  0.6324869790628539  0.5626753457377944  1.0000
  H   H10       1.0  0.14476152169177683  0.3679601505566835  0.4366547894643489  1.0000
  H   H11       1.0  0.13282386438609714  0.35813369938961154  0.7416918744075787  1.0000
  H   H12       1.0  0.4973853510166323  0.19176944503983145  0.9493993014176071  1.0000
  H   H13       1.0  0.10875196776819251  0.5190077914207407  0.7381242794335137  1.0000
  H   H14       1.0  0.0129153088660772  0.5213430527745044  0.8365610642862009  1.0000
  H   H15       1.0  0.9159387337923305  0.4188998933601552  0.7927792706941903  1.0000
  H   H16       1.0  0.0398256786445828  0.3614161652442007  0.8413449013357877  1.0000
  H   H17       1.0  0.13628591816986102  0.6413720685967871  0.2579295535967887  1.0000
  H   H18       1.0  0.1119808430733116  0.4804470818054865  0.2611602263145727  1.0000
  H   H19       1.0  0.0168090227550195  0.4788527046568162  0.1626151623647303  1.0000
  H   H20       1.0  0.9197743124974026  0.5808563704086678  0.2064590688729311  1.0000
  H   H21       1.0  0.0440814888142498  0.6388468919067589  0.1581570169342186  1.0000
  H   H22       1.0  0.494589383340255  0.8026255742821604  0.9438428826531862  1.0000
  H   H23       1.0  0.49751272200848723  0.19864946955411963  0.056245674700051006  1.0000
  H   H24       1.0  0.7240891318441881  0.5117845170238766  0.7856026599322092  1.0000
  H   H25       1.0  0.7278955413327141  0.49013882015183424  0.2149350470481295  1.0000
  H   H26       1.0  0.7264473967941357  0.5036220626794331  0.6792947057756606  1.0000
  H   H27       1.0  0.7288125160009217  0.49730343492685575  0.3212452365198004  1.0000
  H   H28       1.0  0.28251076931240243  0.4564025735616112  0.6785866551601885  1.0000
  C   C1        1.0  0.5188006938472469  0.7370923180923087  0.5088074825188613  1.0000
  C   C2        1.0  0.38051509988159893  0.5319628796559996  0.2969351106584526  1.0000
  C   C3        1.0  0.37658692713814196  0.4710622634413041  0.7617952882290239  1.0000
  C   C4        1.0  0.380019079261011  0.5293029644436444  0.23803445171457582  1.0000
  C   C5        1.0  0.503567436380365  0.4867027360085814  0.7907709355142956  1.0000
  C   C6        1.0  0.5074127075171262  0.5143974186754716  0.2093056475292272  1.0000
  C   C7        1.0  0.644715835808661  0.9371850679015874  0.5050480407784121  1.0000
  C   C8        1.0  0.39204017846300593  0.06158178604849949  0.4954917963254388  1.0000
  C   C9        1.0  0.6446592859584683  0.06287686089927289  0.5000528699804931  1.0000
  C   C10       1.0  0.3920925437083582  0.9358684336432572  0.5005143014105967  1.0000
  C   C11       1.0  0.5182946366193946  0.1259719179589212  0.4951909472514728  1.0000
  C   C12       1.0  0.5183621314371507  0.2616133560501055  0.4914599052053035  1.0000
  C   C13       1.0  0.5184081579773618  0.8727792852971773  0.5053290339010275  1.0000
  C   C14       1.0  0.9382485720669037  0.42575045306746506  0.4650418160411363  1.0000
  C   C15       1.0  0.08434176821167941  0.573059668252206  0.5350679810448611  1.0000
  C   C16       1.0  0.939069148028466  0.5734160840194703  0.5351025910922544  1.0000
  C   C17       1.0  0.08351536343367631  0.4260933437303151  0.46469310985608564  1.0000
  C   C18       1.0  0.5033656552037442  0.48072825768431204  0.6104605268995371  1.0000
  C   C19       1.0  0.5045918607044443  0.518422757964977  0.3896327157947185  1.0000
  C   C20       1.0  0.5007184917502983  0.39451408741340527  0.12286972463740399  1.0000
  C   C21       1.0  0.4960147128968729  0.6067319805761429  0.8771952273333667  1.0000
  C   C22       1.0  0.5034378476808499  0.6226616604903652  0.1207519623144435  1.0000
  C   C23       1.0  0.6282724429081341  0.49852361990472344  0.7616138646656765  1.0000
  C   C24       1.0  0.4999963577675004  0.3786015494788017  0.8793190578187335  1.0000
  C   C25       1.0  0.49944733965524796  0.6165775397134466  0.0583008760733321  1.0000
  C   C26       1.0  0.4976166146879777  0.38471155278970304  0.9417776934520603  1.0000
  C   C27       1.0  0.4985312709094244  0.5026111927050464  0.0300720675194768  1.0000
  C   C28       1.0  0.4974059354073148  0.4986698906222527  0.9700056160953424  1.0000
  C   C29       1.0  0.4988401524111623  0.39245170191460926  0.0603598956037601  1.0000
  C   C30       1.0  0.4961998285568753  0.6088233162655071  0.9397143828333797  1.0000
  C   C31       1.0  0.4978070378572852  0.7233537971832291  0.0276024261330576  1.0000
  C   C32       1.0  0.4973383161157728  0.2779231436025781  0.972476074566991  1.0000
  C   C33       1.0  0.495895211039347  0.7194923679264702  0.9684099318700704  1.0000
  C   C34       1.0  0.63174199526447  0.5028022475933014  0.2387290720620925  1.0000
  C   C35       1.0  0.49770921317352906  0.2817772090785766  0.031668520468159  1.0000
  C   C36       1.0  0.12871771874322493  0.4428215062474478  0.7669227747944235  1.0000
  C   C37       1.0  0.0180769005630808  0.435974095343937  0.812284989608429  1.0000
  C   C38       1.0  0.13226921283613544  0.5569036922167143  0.23253729305469759  1.0000
  C   C39       1.0  0.022007085097051498  0.5640181980829978  0.18704973222963162  1.0000
  C   C40       1.0  0.629727657442892  0.494709734150824  0.702926131574415  1.0000
  C   C41       1.0  0.6323886509214774  0.5061025634089659  0.2974216820659166  1.0000
  C   C42       1.0  0.5041248923816752  0.4800438701043105  0.6736481657496611  1.0000
  C   C43       1.0  0.5063589004468696  0.5198554049579869  0.3264472811381864  1.0000
  C   C44       1.0  0.3778912288177878  0.46782948703963  0.7028930074667912  1.0000
  N   N1        1.0  0.5070439046695299  0.5103284062547856  0.1487082359190168  1.0000
  N   N2        1.0  0.5027783148929643  0.4909489606625641  0.8513625159649508  1.0000
  N   N3        1.0  0.1547203039238667  0.4995262067408317  0.4998045136635696  1.0000
  N   N4        1.0  0.8678712599301761  0.49957700385361636  0.5001708324053808  1.0000
  O   O1        1.0  0.40079840772318687  0.6833889327692971  0.5096446843533471  1.0000
  O   O2        1.0  0.4915994366714003  0.6992031031163747  0.8487559092069575  1.0000
  O   O3        1.0  0.5050096746683082  0.7188247191421125  0.1474436574376412  1.0000
  O   O4        1.0  0.5012257489014046  0.28245398447832315  0.8526320930393682  1.0000
  O   O5        1.0  0.2606983386599921  0.4613138644496073  0.7945980276384148  1.0000
  O   O6        1.0  0.2644662253184861  0.5388422414253851  0.2050297818626206  1.0000
  O   O7        1.0  0.6367948372636151  0.3145693315736508  0.49101211412553886  1.0000
  O   O8        1.0  0.40025927381074666  0.31481716656080744  0.4899646476653032  1.0000
  O   O9        1.0  0.6373693061038211  0.6846585268716294  0.5097334358113841  1.0000
  O   O10       1.0  0.3849171644222764  0.480275156003074  0.5859262293776909  1.0000
  O   O11       1.0  0.6222249440464153  0.5163032686781647  0.4146965466753444  1.0000
  O   O12       1.0  0.3857009036057377  0.5181754762233195  0.41379623122028164  1.0000
  O   O13       1.0  0.6214243602548564  0.4830673387546085  0.5857500449208572  1.0000
  O   O14       1.0  0.49802063452862205  0.30197014103744374  0.1513019636610267  1.0000
