data_image0
_chemical_formula_structural       In6H36C48N6O30
_chemical_formula_sum              "In6 H36 C48 N6 O30"
_cell_length_a       8.093709774732178
_cell_length_b       17.202764293160083
_cell_length_c       17.209037874505494
_cell_angle_alpha    117.60153969189226
_cell_angle_beta     99.03021139883732
_cell_angle_gamma    99.0121940293538

_space_group_name_H-M_alt    "P 1"
_space_group_IT_number       1

loop_
  _space_group_symop_operation_xyz
  'x, y, z'

loop_
  _atom_site_type_symbol
  _atom_site_label
  _atom_site_symmetry_multiplicity
  _atom_site_fract_x
  _atom_site_fract_y
  _atom_site_fract_z
  _atom_site_occupancy
  In  In1       1.0  0.34305279422781615  0.5708381945389789  0.27123972051480655  1.0000
  In  In2       1.0  0.7723914574651118  0.7006312808341092  0.4292607833745308  1.0000
  In  In3       1.0  0.07169606967047329  0.7285913001937844  0.2993916428764223  1.0000
  In  In4       1.0  0.6569589301246097  0.42915683978972646  0.7287468146875824  1.0000
  In  In5       1.0  0.2275986322096841  0.2993705518304707  0.5707395005493578  1.0000
  In  In6       1.0  0.9283201755837851  0.27140781322580654  0.70061687276835  1.0000
  H   H1        1.0  0.7773934523346995  0.6007233854009257  0.8622947147978549  1.0000
  H   H2        1.0  0.17649661461037883  0.2619241091310869  0.3993880938619796  1.0000
  H   H3        1.0  0.9155255050885246  0.13771626363631378  0.7383363262746628  1.0000
  H   H4        1.0  0.22260130395166303  0.3992777673137695  0.13770327546365735  1.0000
  H   H5        1.0  0.8235171356310715  0.738075004042912  0.6006132638554149  1.0000
  H   H6        1.0  0.08447835290000683  0.8622780920920261  0.26166965045169377  1.0000
  H   H7        1.0  0.8810784890312888  0.5936313657721685  0.780999276263266  1.0000
  H   H8        1.0  0.28689096716627205  0.18738033298683376  0.405950535837853  1.0000
  H   H9        1.0  0.100316987120209  0.21898742152646375  0.8128219788839957  1.0000
  H   H10       1.0  0.11892899080405785  0.406375224502078  0.21900507913974115  1.0000
  H   H11       1.0  0.7131315231084372  0.8126262569645559  0.5940566740708063  1.0000
  H   H12       1.0  0.8996844911471414  0.7810021762693394  0.18718278086889473  1.0000
  H   H13       1.0  0.1259465770062819  0.6371944763066324  0.3810239276799834  1.0000
  H   H14       1.0  0.4888698652320898  0.7438974457992558  0.36262636522981506  1.0000
  H   H15       1.0  0.7447697841659817  0.6188671577711347  0.25624680621886853  1.0000
  H   H16       1.0  0.8740489947476178  0.3627958009777998  0.6189719930069231  1.0000
  H   H17       1.0  0.5111308063421801  0.2561030270362891  0.6373717482153651  1.0000
  H   H18       1.0  0.2552214489540034  0.38113195595223454  0.7437517223870954  1.0000
  H   H19       1.0  0.43114621062912317  0.5880978287860259  0.03814933756879676  1.0000
  H   H20       1.0  0.8430430950871184  0.4505125102285206  0.41227254993785317  1.0000
  H   H21       1.0  0.3933715272893394  0.9620028958006087  0.5496416637322241  1.0000
  H   H22       1.0  0.5688493475545043  0.41189992535348807  0.9618483006810904  1.0000
  H   H23       1.0  0.15695393334944183  0.5494906815109173  0.5877248093684385  1.0000
  H   H24       1.0  0.606624357117056  0.03800301490607439  0.450358031950806  1.0000
  H   H25       1.0  0.15379550289592464  0.535610749261444  0.7759382349095106  1.0000
  H   H26       1.0  0.6181266894625849  0.2406280616756931  0.4645705468511707  1.0000
  H   H27       1.0  0.37861458647682156  0.22409964789721215  0.7598871371946031  1.0000
  H   H28       1.0  0.8461883493629471  0.464383606532877  0.22405580098582328  1.0000
  H   H29       1.0  0.3818950154099454  0.7593744498656321  0.535432392212023  1.0000
  H   H30       1.0  0.6213775609072414  0.7758913096942095  0.2401198856477579  1.0000
  H   H31       1.0  0.9043632530640975  0.6083266647703454  0.9946718828356467  1.0000
  H   H32       1.0  0.29573558649514103  0.3861597345876362  0.39109006080767733  1.0000
  H   H33       1.0  0.9104278050005733  0.0053664418962782005  0.6139251410749651  1.0000
  H   H34       1.0  0.09563219637861657  0.3916683705134431  0.005325069603202263  1.0000
  H   H35       1.0  0.70427392566382  0.6138509342455195  0.608922725463309  1.0000
  H   H36       1.0  0.08957367373562868  0.9946306321297625  0.38606739082921143  1.0000
  C   C1        1.0  0.1695950194762618  0.6186315773657327  0.11966170315754  1.0000
  C   C2        1.0  0.5507109481458414  0.5012022586891263  0.3813149868730079  1.0000
  C   C3        1.0  0.050233491087041816  0.8803291710716935  0.49896507834898773  1.0000
  C   C4        1.0  0.8304008649301338  0.3813743333409433  0.8803379925254972  1.0000
  C   C5        1.0  0.449295856783138  0.4988029719526707  0.6186840403191167  1.0000
  C   C6        1.0  0.949761375110178  0.11967470044665868  0.5010324356059286  1.0000
  C   C7        1.0  0.16701054270469473  0.5983116567771062  0.02511193676713933  1.0000
  C   C8        1.0  0.5685561542697001  0.4269453129295115  0.40158662352437346  1.0000
  C   C9        1.0  0.14237042154304902  0.9749299975678624  0.57316208026986  1.0000
  C   C10       1.0  0.832986263570305  0.40168609745916933  0.9748886993876198  1.0000
  C   C11       1.0  0.43145302628571613  0.5730646758270622  0.5984176880529687  1.0000
  C   C12       1.0  0.8576257003500699  0.025073873708791394  0.42683087782525314  1.0000
  C   C13       1.0  0.3141362815694039  0.5832454620574765  0.9933229021356594  1.0000
  C   C14       1.0  0.7308404092765669  0.4104167700143008  0.4169535471193199  1.0000
  C   C15       1.0  0.3212083889108611  0.0067655726698561  0.5897135583044388  1.0000
  C   C16       1.0  0.6858639426408359  0.4167516121581868  0.006673023510671782  1.0000
  C   C17       1.0  0.2691612793369559  0.5895857420616437  0.5830479101716151  1.0000
  C   C18       1.0  0.678783409204641  0.9932321818823125  0.41029077481900345  1.0000
  C   C19       1.0  0.3095114927738365  0.5619368646534539  0.9040373823124596  1.0000
  C   C20       1.0  0.74749425624222  0.34239417806396943  0.4382256327845795  1.0000
  C   C21       1.0  0.40591875169548797  0.09601637633570448  0.6578479774092401  1.0000
  C   C22       1.0  0.6904766680535914  0.438063608542258  0.09596038608388821  1.0000
  C   C23       1.0  0.25251903072506815  0.6576090134493737  0.5617775789322293  1.0000
  C   C24       1.0  0.5940799834268802  0.9039827373694321  0.342155174273067  1.0000
  C   C25       1.0  0.47028976194144434  0.5490759646965984  0.8715948036102148  1.0000
  C   C26       1.0  0.9210482948695713  0.32272697564818026  0.4510555797580267  1.0000
  C   C27       1.0  0.5991031229122469  0.128493976172642  0.6774753641967379  1.0000
  C   C28       1.0  0.5296935105817155  0.4509272271760735  0.1283963074482699  1.0000
  C   C29       1.0  0.07895988280182568  0.6772734969868851  0.5489430893517522  1.0000
  C   C30       1.0  0.4008888944399871  0.8715092160128748  0.3225285973723402  1.0000
  C   C31       1.0  0.15833366459404632  0.555127479272727  0.8464221313115488  1.0000
  C   C32       1.0  0.6031162764516083  0.29154449132563787  0.44497047158424147  1.0000
  C   C33       1.0  0.3125298733404022  0.15364770663240526  0.7087972444039251  1.0000
  C   C34       1.0  0.8416512058740081  0.44486891570992526  0.15357408631190586  1.0000
  C   C35       1.0  0.39689552669248224  0.7084607394428558  0.5550347366391577  1.0000
  C   C36       1.0  0.687461817789071  0.8463473289859421  0.2912046597320098  1.0000
  C   C37       1.0  0.013983584320257583  0.5740651950148603  0.8799392517417816  1.0000
  C   C38       1.0  0.43976755700792586  0.3060031902238549  0.4258526907846942  1.0000
  C   C39       1.0  0.1346992175657533  0.12015031443282712  0.6942891242498349  1.0000
  C   C40       1.0  0.9860063942737582  0.4259339188981315  0.12006267060634467  1.0000
  C   C41       1.0  0.5602427617280057  0.6940040798258238  0.5741550950041014  1.0000
  C   C42       1.0  0.8653053194238893  0.879845400745715  0.3057181132756596  1.0000
  C   C43       1.0  0.01786195831395793  0.5952820488273787  0.9691008794178873  1.0000
  C   C44       1.0  0.4223732223389264  0.37381576702032493  0.40440413450106405  1.0000
  C   C45       1.0  0.04943744191340469  0.030943036287624195  0.6263269526329439  1.0000
  C   C46       1.0  0.9821300778732294  0.4047136662687408  0.03089613505881774  1.0000
  C   C47       1.0  0.5776385654800079  0.6261969406813533  0.5956045344617779  1.0000
  C   C48       1.0  0.9505597070794495  0.9690553975305606  0.3736711180978746  1.0000
  N   N1        1.0  0.8587038446816776  0.5692657593697276  0.8234320990816641  1.0000
  N   N2        1.0  0.28924075766636287  0.25429037235156216  0.43063739679639207  1.0000
  N   N3        1.0  0.03579905235854139  0.17663789480022976  0.7459440894205613  1.0000
  N   N4        1.0  0.14129159119076465  0.43073675276914264  0.17656657092016562  1.0000
  N   N5        1.0  0.710767865614173  0.7457134989814804  0.5693652032886902  1.0000
  N   N6        1.0  0.9642006034625082  0.8233530624865678  0.254061164851116  1.0000
  O   O1        1.0  0.2936785056901244  0.6030712046971303  0.1609254865286048  1.0000
  O   O2        1.0  0.6902819059260495  0.5581004455674261  0.3969484456455845  1.0000
  O   O3        1.0  0.1327828811115311  0.8389870785137675  0.44203870660302164  1.0000
  O   O4        1.0  0.7063340733806243  0.39694558115427  0.8390816426914968  1.0000
  O   O5        1.0  0.30971363985723593  0.44190478537509387  0.6030497480496493  1.0000
  O   O6        1.0  0.8672290449287201  0.16101339422933586  0.5579648888096145  1.0000
  O   O7        1.0  0.04835404881860242  0.650847317470877  0.1523050401111377  1.0000
  O   O8        1.0  0.3972468280380567  0.5015745033464256  0.3490683529304519  1.0000
  O   O9        1.0  0.8964923016449545  0.847720634427624  0.49872371660566023  1.0000
  O   O10       1.0  0.9516313765844798  0.34915519503943665  0.8476952132398523  1.0000
  O   O11       1.0  0.6027639974915644  0.49841373392477095  0.6509178740859838  1.0000
  O   O12       1.0  0.10350847750030573  0.1522825573157149  0.5012762447682135  1.0000
  O   O13       1.0  0.4473074960661948  0.47697932107832497  0.7929016817557795  1.0000
  O   O14       1.0  0.9703153903750064  0.31629529950026847  0.523202427208183  1.0000
  O   O15       1.0  0.6546432107102405  0.20720472291723974  0.6840967431797293  1.0000
  O   O16       1.0  0.5526689457350571  0.5230327068575135  0.2070819740002747  1.0000
  O   O17       1.0  0.029676525840834175  0.6837051734910701  0.4767932947851747  1.0000
  O   O18       1.0  0.345359738394997  0.7927903124524533  0.31590715657073803  1.0000
  O   O19       1.0  0.6112540732739761  0.6066858730418263  0.9200451095880099  1.0000
  O   O20       1.0  0.004130985840284042  0.3132992332513567  0.3933092538508092  1.0000
  O   O21       1.0  0.6917486481595034  0.08008898575173619  0.6866612189688936  1.0000
  O   O22       1.0  0.3887338683167131  0.393309162520552  0.07995303036270944  1.0000
  O   O23       1.0  0.9958797074337581  0.6866937624618003  0.6066878829175123  1.0000
  O   O24       1.0  0.308246449790893  0.9199053703406717  0.3133470147762054  1.0000
  O   O25       1.0  0.13585431620957422  0.6229923458165346  0.31955522455329793  1.0000
  O   O26       1.0  0.5129324841264236  0.6966658778807684  0.37690625259421046  1.0000
  O   O27       1.0  0.8162253716988701  0.6803826551507725  0.30345551980515495  1.0000
  O   O28       1.0  0.864146166193322  0.37698773554532744  0.6804369200261817  1.0000
  O   O29       1.0  0.487056587924158  0.3033339155694461  0.623091268542744  1.0000
  O   O30       1.0  0.18377701241085026  0.3196137393901212  0.6965425754278343  1.0000
