data_image0
_chemical_formula_structural       Al2H10C28N4O18F2
_chemical_formula_sum              "Al2 H10 C28 N4 O18 F2"
_cell_length_a       6.64325831393688
_cell_length_b       11.196512433818963
_cell_length_c       17.51572024048745
_cell_angle_alpha    83.70985485869615
_cell_angle_beta     83.32799288813418
_cell_angle_gamma    72.07995269367046

_space_group_name_H-M_alt    "P 1"
_space_group_IT_number       1

loop_
  _space_group_symop_operation_xyz
  'x, y, z'

loop_
  _atom_site_type_symbol
  _atom_site_label
  _atom_site_symmetry_multiplicity
  _atom_site_fract_x
  _atom_site_fract_y
  _atom_site_fract_z
  _atom_site_occupancy
  Al  Al1       1.0  0.4953401318064083  0.49861127373763037  0.49973311280010774  1.0000
  Al  Al2       1.0  0.9949955830773902  0.5020069585520233  0.49894013109301466  1.0000
  H   H1        1.0  0.2967148542956153  0.3542560258082331  0.5561214072575493  1.0000
  H   H2        1.0  0.7355618429347359  0.5766518980222698  0.40756700149032793  1.0000
  H   H3        1.0  0.5914686275108636  0.5721903896219941  0.27414793049902636  1.0000
  H   H4        1.0  0.6781453505188113  0.5719608528104841  0.13261635470806965  1.0000
  H   H5        1.0  0.1387665203429621  0.4397750822361032  0.11455391632885886  1.0000
  H   H6        1.0  0.9003187156905456  0.4773023605043535  0.8887558802204933  1.0000
  H   H7        1.0  0.3364204893362412  0.5305438705683869  0.7137837554530575  1.0000
  H   H8        1.0  0.23961898710834378  0.5386839101202054  0.8549786503337982  1.0000
  H   H9        1.0  0.19774581320550058  0.23557120217117242  0.3906857997476861  1.0000
  H   H10       1.0  0.45274602680628123  0.7667781925171157  0.42227406328954215  1.0000
  C   C1        1.0  0.8587641175131396  0.27482742883771044  0.4895886630900035  1.0000
  C   C2        1.0  0.7125581482237777  0.4960867553400233  0.636304627149556  1.0000
  C   C3        1.0  0.1383856286107773  0.7239056819316333  0.508296046169775  1.0000
  C   C4        1.0  0.2767459853767137  0.5103928807929988  0.3599690874574362  1.0000
  C   C5        1.0  0.31800419685502845  0.5084304855665849  0.275029537125448  1.0000
  C   C6        1.0  0.4932001404421482  0.5440336192117597  0.23840467250024483  1.0000
  C   C7        1.0  0.5418017455423438  0.543819083290053  0.15948225755230536  1.0000
  C   C8        1.0  0.41403331231389034  0.5073778157567688  0.11302436453854627  1.0000
  C   C9        1.0  0.23873713126261017  0.4703690506410041  0.14839152596516664  1.0000
  C   C10       1.0  0.19477369704528513  0.4711030045960173  0.22766471950041725  1.0000
  C   C11       1.0  0.46288744385687863  0.5077848759850666  0.032265783240923405  1.0000
  C   C12       1.0  0.5100073479592452  0.5092903505473886  0.9627701775865486  1.0000
  C   C13       1.0  0.5622094409275319  0.5090464316890079  0.8821419624532749  1.0000
  C   C14       1.0  0.7739532146916731  0.4911365471320153  0.8512694439371981  1.0000
  C   C15       1.0  0.8222937859024243  0.48785275420670604  0.7722252558871714  1.0000
  C   C16       1.0  0.6677026457159414  0.5018416679993153  0.7210194094670043  1.0000
  C   C17       1.0  0.4572174743740263  0.5201997136864235  0.7529817306160138  1.0000
  C   C18       1.0  0.40371346400774405  0.5243259152676741  0.8316212475566827  1.0000
  C   C19       1.0  0.9318511358673475  0.13351153092561674  0.4891848554040619  1.0000
  C   C20       1.0  0.12555961055488038  0.06800440026890443  0.4479995272579769  1.0000
  C   C21       1.0  0.8134391703461715  0.0645734339597581  0.5335227216742024  1.0000
  C   C22       1.0  0.24985354416094913  0.1332530258406166  0.39887160086261975  1.0000
  C   C23       1.0  0.4364586286253596  0.06756472163746  0.3605752290435332  1.0000
  C   C24       1.0  0.07225411813781336  0.8656381544423227  0.5032359353589653  1.0000
  C   C25       1.0  0.8843231308807161  0.9321949288959743  0.5415672342744811  1.0000
  C   C26       1.0  0.19587520058112057  0.932886062916481  0.4551527682300998  1.0000
  C   C27       1.0  0.39004316026748137  0.8685362350492059  0.41464310760488116  1.0000
  C   C28       1.0  0.5086630628662262  0.934411698633724  0.36955604873862297  1.0000
  N   N1        1.0  0.7605841091822322  0.8634163581533802  0.5950631469145475  1.0000
  N   N2        1.0  0.6192175477918482  0.1314130032600431  0.5811554292632762  1.0000
  N   N3        1.0  0.5497359305986295  0.13795636950695211  0.30451004959728306  1.0000
  N   N4        1.0  0.7228008034079566  0.86262806289745  0.3391687861989466  1.0000
  O   O1        1.0  0.6639577614490263  0.3279506598576418  0.48100679407335867  1.0000
  O   O2        1.0  0.8833047460694702  0.5136239123514984  0.6033586192453624  1.0000
  O   O3        1.0  0.9981708251741422  0.6754013520494695  0.4949098491430987  1.0000
  O   O4        1.0  0.41824044850159947  0.5318045895633005  0.3956551816215707  1.0000
  O   O5        1.0  0.32833642476718  0.6674871136914433  0.5217828435992684  1.0000
  O   O6        1.0  0.10484483463373112  0.49300375113735123  0.3923526080144838  1.0000
  O   O7        1.0  0.9971716220841174  0.3260322912110638  0.5007576893664376  1.0000
  O   O8        1.0  0.5716984400557551  0.4730110087091289  0.6015313555027786  1.0000
  O   O9        1.0  0.2659375017515729  0.4389263408435794  0.5307929766003665  1.0000
  O   O10       1.0  0.7252928294056601  0.5590277247283028  0.4632841540543636  1.0000
  O   O11       1.0  0.8557078556069797  0.7924652341083561  0.6468682347826655  1.0000
  O   O12       1.0  0.5721904752746526  0.8840097442914681  0.5836772094437065  1.0000
  O   O13       1.0  0.4468419054109275  0.15665066012132914  0.5537231933818274  1.0000
  O   O14       1.0  0.6489964207915687  0.15664843299713743  0.6449620057633039  1.0000
  O   O15       1.0  0.5759350128235852  0.23369276911564896  0.3253105138536369  1.0000
  O   O16       1.0  0.6043357254257913  0.09670611197195461  0.2401637024312605  1.0000
  O   O17       1.0  0.7468009464194337  0.7577355155341222  0.3166917752870687  1.0000
  O   O18       1.0  0.8662468775652173  0.9110763853986796  0.3414710426016398  1.0000
  F   F1        1.0  0.027191651737112545  0.43081086070836966  0.2584922929047905  1.0000
  F   F2        1.0  0.029474391573202814  0.4656584395203183  0.7455859660795239  1.0000
