data_image0
_chemical_formula_structural       Zn2H32C36N8O8F8
_chemical_formula_sum              "Zn2 H32 C36 N8 O8 F8"
_cell_length_a       8.575181077765027
_cell_length_b       8.575199559829109
_cell_length_c       13.255500185775327
_cell_angle_alpha    82.90374191749049
_cell_angle_beta     82.90385385926375
_cell_angle_gamma    88.79357154944752

_space_group_name_H-M_alt    "P 1"
_space_group_IT_number       1

loop_
  _space_group_symop_operation_xyz
  'x, y, z'

loop_
  _atom_site_type_symbol
  _atom_site_label
  _atom_site_symmetry_multiplicity
  _atom_site_fract_x
  _atom_site_fract_y
  _atom_site_fract_z
  _atom_site_occupancy
  Zn  Zn1       1.0  0.9998647252131008  0.0001366714587262994  0.750000075838031  1.0000
  Zn  Zn2       1.0  0.00013514078020190388  0.9998652734037341  0.24999975579880387  1.0000
  H   H1        1.0  0.7732701680979801  0.8658044647683167  0.6065259011603744  1.0000
  H   H2        1.0  0.13419619219904888  0.22673220120159945  0.8934749666061776  1.0000
  H   H3        1.0  0.2267308823991954  0.13419630735290156  0.3934731751454734  1.0000
  H   H4        1.0  0.8658048606920447  0.7732673911067207  0.1065257111092137  1.0000
  H   H5        1.0  0.6915842809631982  0.05108012301698749  0.4316817756102295  1.0000
  H   H6        1.0  0.9489201738114729  0.30841587083981625  0.06831968316991073  1.0000
  H   H7        1.0  0.3084179353392287  0.948921822070126  0.5683178711747984  1.0000
  H   H8        1.0  0.05107971095590361  0.6915825461828431  0.9316811788378417  1.0000
  H   H9        1.0  0.9781173800586629  0.3120102992079267  0.5881238026873914  1.0000
  H   H10       1.0  0.6879896253996167  0.021883036226121498  0.9118763053217904  1.0000
  H   H11       1.0  0.021881327160230103  0.6879892975153081  0.411875550336724  1.0000
  H   H12       1.0  0.31201142509756613  0.9781177358950967  0.0881227709840573  1.0000
  H   H13       1.0  0.794582476347543  0.3256274617337311  0.3418559446756291  1.0000
  H   H14       1.0  0.674372379843078  0.20541814218695711  0.158144637167716  1.0000
  H   H15       1.0  0.20541738261491102  0.6743756583020754  0.6581437950947517  1.0000
  H   H16       1.0  0.3256263250573497  0.7945814522164979  0.8418554706279409  1.0000
  H   H17       1.0  0.8940133972730138  0.44302963925706945  0.4131461109295955  1.0000
  H   H18       1.0  0.5569715844654796  0.10598618095894348  0.0868551856964004  1.0000
  H   H19       1.0  0.10598881439248942  0.5569723011904838  0.5868550453985151  1.0000
  H   H20       1.0  0.4430294848057769  0.894011063322473  0.9131449209803648  1.0000
  H   H21       1.0  0.8064219687506338  0.4929873639879217  0.8827696451997725  1.0000
  H   H22       1.0  0.5070133327903505  0.19357723718209732  0.6172310016349273  1.0000
  H   H23       1.0  0.1935779042735106  0.507013405701194  0.11723027830352353  1.0000
  H   H24       1.0  0.49298537682246757  0.8064211797282396  0.38276995279872483  1.0000
  H   H25       1.0  0.9139499280795178  0.4839208975283994  0.7606477663885229  1.0000
  H   H26       1.0  0.5160802661920059  0.08605055904374127  0.7393520712254613  1.0000
  H   H27       1.0  0.0860511200991994  0.516079872273046  0.23935206468887324  1.0000
  H   H28       1.0  0.4839184363899562  0.9139490330399338  0.2606487913417368  1.0000
  H   H29       1.0  0.7041088927364215  0.5144576273425795  0.7736306494194665  1.0000
  H   H30       1.0  0.48554355920195047  0.29589032582293123  0.7263691157376968  1.0000
  H   H31       1.0  0.2958909873185717  0.48554196717319786  0.22636936595029064  1.0000
  H   H32       1.0  0.514457500719992  0.7041080913120509  0.2736316538441486  1.0000
  C   C1        1.0  0.8025885410355116  0.9860775941704245  0.5765803656076898  1.0000
  C   C2        1.0  0.013923122263655302  0.19740767175473195  0.9234209171636465  1.0000
  C   C3        1.0  0.1974078134803321  0.013923182141056097  0.423417570858696  1.0000
  C   C4        1.0  0.9860767554728795  0.8025919204412729  0.07657985297765181  1.0000
  C   C5        1.0  0.7590837417249999  0.07591940241846369  0.49161577638473375  1.0000
  C   C6        1.0  0.9240825908761465  0.2409171540248919  0.008384766313675086  1.0000
  C   C7        1.0  0.2409172970289433  0.9240837223692179  0.5083823614166576  1.0000
  C   C8        1.0  0.0759184526656398  0.7590836111370007  0.9916165743068036  1.0000
  C   C9        1.0  0.9089695606704213  0.2168340739462734  0.5706320571753167  1.0000
  C   C10       1.0  0.7831653809555662  0.09103164485768638  0.9293680441580037  1.0000
  C   C11       1.0  0.09103032170303753  0.7831655228892769  0.429367203422899  1.0000
  C   C12       1.0  0.21683566251076772  0.9089703024368772  0.07063094028139012  1.0000
  C   C13       1.0  0.7969473509613181  0.3607599896639611  0.41825251817579817  1.0000
  C   C14       1.0  0.6392396909780517  0.2030522096518154  0.0817481362901802  1.0000
  C   C15       1.0  0.20305251271351923  0.639241952878727  0.5817480682325781  1.0000
  C   C16       1.0  0.3607601890769415  0.7969473848639549  0.9182518790795697  1.0000
  C   C17       1.0  0.6445704651314655  0.43594235533963377  0.4572274394851021  1.0000
  C   C18       1.0  0.5640589053769389  0.3554287701014544  0.04277220056448531  1.0000
  C   C19       1.0  0.3554293844816812  0.564061937549738  0.542772963190359  1.0000
  C   C20       1.0  0.43593980887280287  0.6445696514484354  0.9572272443260913  1.0000
  C   C21       1.0  0.5006904568311726  0.39375007257873296  0.429934499460721  1.0000
  C   C22       1.0  0.6062483667822179  0.49931089001515955  0.07006587871430268  1.0000
  C   C23       1.0  0.4993105772858471  0.606253047569396  0.570065147883753  1.0000
  C   C24       1.0  0.3937515226220896  0.5006875316470525  0.9299334737503671  1.0000
  C   C25       1.0  0.3598472088259542  0.4566081519825856  0.4717002973766427  1.0000
  C   C26       1.0  0.5433924966659165  0.6401521064906958  0.02829992239799136  1.0000
  C   C27       1.0  0.6401538206541345  0.5433949635259906  0.5283008595109138  1.0000
  C   C28       1.0  0.4566062269331327  0.3598451422056214  0.9716988595874979  1.0000
  C   C29       1.0  0.8355025734701584  0.7181812813758267  0.7929606573954899  1.0000
  C   C30       1.0  0.2818176082837596  0.16449758998092523  0.7070406716173211  1.0000
  C   C31       1.0  0.1644984864517838  0.2818171357591551  0.20704011218635543  1.0000
  C   C32       1.0  0.7181822694527753  0.8355020022150725  0.29296009852397015  1.0000
  C   C33       1.0  0.8143988099145928  0.5415250494709837  0.801537874360129  1.0000
  C   C34       1.0  0.4584765933156021  0.18560150904621506  0.6984618273819834  1.0000
  C   C35       1.0  0.18560107014040034  0.45847454504478674  0.19846214100962103  1.0000
  C   C36       1.0  0.5415232844209259  0.8143980831497825  0.30153894275931487  1.0000
  N   N1        1.0  0.8960545491460509  0.07525701850018857  0.6249086259090005  1.0000
  N   N2        1.0  0.9247434745227423  0.10394649457992945  0.8750914977288244  1.0000
  N   N3        1.0  0.1039429852367348  0.9247425804304964  0.3750900647694806  1.0000
  N   N4        1.0  0.0752575713375094  0.896054272901736  0.12490908812010555  1.0000
  N   N5        1.0  0.8280488905753246  0.22115942939045394  0.48867451815016244  1.0000
  N   N6        1.0  0.7788424451933127  0.17195037953032968  0.011326862058339788  1.0000
  N   N7        1.0  0.1719509754179711  0.7788425154720072  0.5113253134866724  1.0000
  N   N8        1.0  0.221159785170812  0.8280492152100931  0.9886729684596033  1.0000
  O   O1        1.0  0.9787029902328543  0.7674692143657891  0.7635592920366605  1.0000
  O   O2        1.0  0.23253221901401133  0.021296380589298294  0.7364404570361458  1.0000
  O   O3        1.0  0.021296885109755703  0.2325315576431065  0.2364398766950941  1.0000
  O   O4        1.0  0.7674676564040582  0.9787032092869266  0.2635610678766866  1.0000
  O   O5        1.0  0.7214298027196693  0.8063871268133904  0.8148825055121235  1.0000
  O   O6        1.0  0.193613479179497  0.278569215803074  0.6851186351509783  1.0000
  O   O7        1.0  0.2785689021807585  0.1936124675900642  0.18511760228353322  1.0000
  O   O8        1.0  0.8063863962385653  0.7214303740731505  0.3148828897618614  1.0000
  F   F1        1.0  0.4966267057165085  0.28848809780585327  0.3617321017353632  1.0000
  F   F2        1.0  0.7115085254267585  0.5033706706619653  0.13827031207699036  1.0000
  F   F3        1.0  0.5033743425376612  0.7115114898629143  0.6382700855231106  1.0000
  F   F4        1.0  0.28849019353536687  0.49662657339480615  0.8617299794515815  1.0000
  F   F5        1.0  0.22313507008139777  0.4117121406782686  0.4418730349292659  1.0000
  F   F6        1.0  0.5882868844964904  0.7768639113613458  0.05812802808620182  1.0000
  F   F7        1.0  0.7768648193229097  0.5882862809839363  0.5581263175354038  1.0000
  F   F8        1.0  0.41171418709323154  0.22313333523984363  0.9418713238190152  1.0000
