data_image0
_chemical_formula_structural       H20Pb2C24N4O10
_chemical_formula_sum              "H20 Pb2 C24 N4 O10"
_cell_length_a       7.114271896721798
_cell_length_b       10.613816460541367
_cell_length_c       10.70770663809873
_cell_angle_alpha    113.71546533818473
_cell_angle_beta     101.10731133950661
_cell_angle_gamma    106.3113332678335

_space_group_name_H-M_alt    "P 1"
_space_group_IT_number       1

loop_
  _space_group_symop_operation_xyz
  'x, y, z'

loop_
  _atom_site_type_symbol
  _atom_site_label
  _atom_site_symmetry_multiplicity
  _atom_site_fract_x
  _atom_site_fract_y
  _atom_site_fract_z
  _atom_site_occupancy
  H   H1        1.0  0.2174163015406378  0.14769875953448522  0.7433990470960623  1.0000
  H   H2        1.0  0.9739283860227912  0.40442193725390047  0.25686994440651745  1.0000
  H   H3        1.0  0.23125872600708428  0.8991970866577433  0.6961056056442132  1.0000
  H   H4        1.0  0.03523210358735444  0.20320295168352942  0.3041314956477592  1.0000
  H   H5        1.0  0.43542680741850864  0.0667459655209868  0.15960861933583462  1.0000
  H   H6        1.0  0.7761816178075592  0.9075371320820841  0.8406722842146839  1.0000
  H   H7        1.0  0.419531636893872  0.3104926222569518  0.1888794488920809  1.0000
  H   H8        1.0  0.7308064989931821  0.12196878300378701  0.8113907891513676  1.0000
  H   H9        1.0  0.6371774736892561  0.830152807633148  0.2585453688197178  1.0000
  H   H10       1.0  0.8785256219932336  0.5715397117046949  0.7413813552840481  1.0000
  H   H11       1.0  0.9764072971523345  0.04226086675380001  0.4266708840741771  1.0000
  H   H12       1.0  0.04951880737579033  0.6152865981946577  0.5728717647892481  1.0000
  H   H13       1.0  0.6325049033361408  0.27597194619414733  0.6491763964179712  1.0000
  H   H14       1.0  0.48364310017185375  0.6268632421380859  0.3508677385477271  1.0000
  H   H15       1.0  0.3071572013133306  0.05514302287242152  0.47055082764202893  1.0000
  H   H16       1.0  0.33685496269951176  0.584762982433972  0.529717775648102  1.0000
  H   H17       1.0  0.517384905508635  0.5731994662064254  0.147899176388684  1.0000
  H   H18       1.0  0.8697481053059803  0.42523065505334057  0.8520094484609047  1.0000
  H   H19       1.0  0.32620311593881013  0.41944629702515374  0.034780240028695245  1.0000
  H   H20       1.0  0.7916667291536185  0.3847795312389266  0.9653377563137652  1.0000
  Pb  Pb1       1.0  0.46921754935277  0.558549664704991  0.8537210589018545  1.0000
  Pb  Pb2       1.0  0.11529683007660924  0.7046615255460156  0.14596676705032524  1.0000
  C   C1        1.0  0.2628503581388841  0.12498740081325371  0.8329591726463974  1.0000
  C   C2        1.0  0.929851858354425  0.2921897220134539  0.16731146945438982  1.0000
  C   C3        1.0  0.2697092669941911  0.9870399362420204  0.806600924248464  1.0000
  C   C4        1.0  0.9631684516836997  0.18061220118594434  0.19366015057720187  1.0000
  C   C5        1.0  0.33126589960726  0.9640931312924297  0.9253592423528263  1.0000
  C   C6        1.0  0.9059886063725315  0.0389600810738884  0.07487724751813832  1.0000
  C   C7        1.0  0.38596721018975444  0.08126803898413473  0.06538424413397341  1.0000
  C   C8        1.0  0.8208141016045403  0.0162264103814067  0.9348842821446652  1.0000
  C   C9        1.0  0.37647049517874365  0.215821336764165  0.08111363760299643  1.0000
  C   C10       1.0  0.7954808291813934  0.135012649619199  0.9191480721177641  1.0000
  C   C11       1.0  0.3495883516509438  0.8199679192384085  0.9053065023089959  1.0000
  C   C12       1.0  0.9442017701352085  0.914736605139929  0.09469994485046136  1.0000
  C   C13       1.0  0.6419927548562825  0.9298762672616336  0.34750866101455813  1.0000
  C   C14       1.0  0.794497674607456  0.5823170231692673  0.6524092133628444  1.0000
  C   C15       1.0  0.8321448605583512  0.048534478229072406  0.442333161584081  1.0000
  C   C16       1.0  0.8897030262799746  0.6059872616972373  0.5574008330947039  1.0000
  C   C17       1.0  0.8337699748065431  0.17683274504002366  0.5534553564607166  1.0000
  C   C18       1.0  0.7802208171285656  0.6231572570316645  0.44629567900762623  1.0000
  C   C19       1.0  0.6419447850415876  0.17932326207330362  0.5653008132364051  1.0000
  C   C20       1.0  0.5767441555962448  0.6139974115085849  0.4346983831080351  1.0000
  C   C21       1.0  0.45876020425657765  0.054964848270799414  0.4661383991320136  1.0000
  C   C22       1.0  0.4927761916290335  0.5889325808191118  0.5339783192794914  1.0000
  C   C23       1.0  0.03965317747736923  0.3074088982166501  0.6539680612915859  1.0000
  C   C24       1.0  0.8852923150999459  0.6531526966465863  0.34556246576934774  1.0000
  N   N1        1.0  0.3146626987271971  0.23793708429503374  0.9678867132709073  1.0000
  N   N2        1.0  0.8467717720609045  0.27028421168203925  0.03240286922741122  1.0000
  N   N3        1.0  0.45817824507226135  0.9322096850717543  0.35889755423999514  1.0000
  N   N4        1.0  0.599398871359206  0.5733791230698772  0.6411703708894548  1.0000
  O   O1        1.0  0.34603755780410944  0.7303299657517215  0.7816329350370382  1.0000
  O   O2        1.0  0.06440562745982698  0.9486006366012065  0.2182510356130012  1.0000
  O   O3        1.0  0.3762572508677167  0.7967945820590218  0.014154197091883806  1.0000
  O   O4        1.0  0.8617947222262218  0.7827940427965105  0.9857869625563042  1.0000
  O   O5        1.0  0.20123023817161825  0.3036372030724054  0.6212093596981562  1.0000
  O   O6        1.0  0.07956460169911854  0.6820705072967571  0.3781208203630442  1.0000
  O   O7        1.0  0.04420810339515677  0.4153378884550564  0.7673769389210889  1.0000
  O   O8        1.0  0.7764077909266051  0.6477652756320965  0.23224344378382986  1.0000
  O   O9        1.0  0.36735352285047906  0.5316590845725601  0.08593811840837871  1.0000
  O   O10       1.0  0.7817058558409044  0.44573325070664555  0.9140338593429577  1.0000
