data_image0
_chemical_formula_structural       Li2H28C28S4N2O6
_chemical_formula_sum              "Li2 H28 C28 S4 N2 O6"
_cell_length_a       7.11594356526544
_cell_length_b       10.513653519788438
_cell_length_c       12.109614006680825
_cell_angle_alpha    103.96796506243122
_cell_angle_beta     97.30200332952114
_cell_angle_gamma    98.48978757240259

_space_group_name_H-M_alt    "P 1"
_space_group_IT_number       1

loop_
  _space_group_symop_operation_xyz
  'x, y, z'

loop_
  _atom_site_type_symbol
  _atom_site_label
  _atom_site_symmetry_multiplicity
  _atom_site_fract_x
  _atom_site_fract_y
  _atom_site_fract_z
  _atom_site_occupancy
  Li  Li1       1.0  0.8001661653518186  0.5521594590650808  0.06478398050575863  1.0000
  Li  Li2       1.0  0.19983394215151415  0.4478391846676145  0.9352138324268253  1.0000
  H   H1        1.0  0.29312228526058004  0.9221062232212637  0.9270197988493507  1.0000
  H   H2        1.0  0.7068821131165778  0.07789243910936962  0.0729790991315582  1.0000
  H   H3        1.0  0.32485132055917637  0.16995136795760865  0.9701119695906186  1.0000
  H   H4        1.0  0.6751506853859797  0.8300492740766502  0.029885553756422253  1.0000
  H   H5        1.0  0.2553734862482031  0.297307908982539  0.156334786639384  1.0000
  H   H6        1.0  0.7446175964166741  0.7026887067721646  0.843662059950475  1.0000
  H   H7        1.0  0.14533103758564894  0.1774229820684639  0.2987770899228295  1.0000
  H   H8        1.0  0.8546677273354747  0.8225756600853914  0.7012222950266038  1.0000
  H   H9        1.0  0.12129292381589357  0.9306168043261637  0.2566340809846679  1.0000
  H   H10       1.0  0.8787083799034434  0.0693808495547188  0.7433644192648501  1.0000
  H   H11       1.0  0.6820795672383397  0.6694269663577331  0.39334823258236906  1.0000
  H   H12       1.0  0.317919475452925  0.330562698652045  0.6066443092134932  1.0000
  H   H13       1.0  0.6015078554538393  0.6934146371254429  0.5913063878113078  1.0000
  H   H14       1.0  0.3984985258619106  0.306581040209494  0.40869034303837287  1.0000
  H   H15       1.0  0.9977648058401842  0.600483152135162  0.4483733857515731  1.0000
  H   H16       1.0  0.0022401054816115194  0.39952150868580827  0.5516350751821832  1.0000
  H   H17       1.0  0.07652430562664143  0.5722894489942689  0.2510443810144026  1.0000
  H   H18       1.0  0.9234673744796423  0.42770818195351284  0.7489601509826187  1.0000
  H   H19       1.0  0.059682506313841095  0.66099718484368  0.8704172564765997  1.0000
  H   H20       1.0  0.9403140541232843  0.3390034469148019  0.1295848974810312  1.0000
  H   H21       1.0  0.32578252827781995  0.6803852806033532  0.8972965706313261  1.0000
  H   H22       1.0  0.6742139569801111  0.31961534719473417  0.10270392586948422  1.0000
  H   H23       1.0  0.29141638991422525  0.5909196494652632  0.6922992371972967  1.0000
  H   H24       1.0  0.7085940287850434  0.4090909963593888  0.3077042113377644  1.0000
  H   H25       1.0  0.32623639558351414  0.7651215988173449  0.7111115430720929  1.0000
  H   H26       1.0  0.6737719743155353  0.23488704078493333  0.2888888801348628  1.0000
  H   H27       1.0  0.09328197712737561  0.6651065457434413  0.654032105085463  1.0000
  H   H28       1.0  0.906729341063283  0.334902110877934  0.3459709751866741  1.0000
  C   C1        1.0  0.1893753238468818  0.6547000742186313  0.9263137686131487  1.0000
  C   C2        1.0  0.8106223952166401  0.34529956570784043  0.07368824393299894  1.0000
  C   C3        1.0  0.21019097026081113  0.9150792380761885  0.09074309690527835  1.0000
  C   C4        1.0  0.7898114169057209  0.08491742001227463  0.9092536044759356  1.0000
  C   C5        1.0  0.2641921703672026  0.9796359257774085  0.008805960547867564  1.0000
  C   C6        1.0  0.7358043993874901  0.020359718723412402  0.9911926584072505  1.0000
  C   C7        1.0  0.2808876477725307  0.1181367532537578  0.03322620528378201  1.0000
  C   C8        1.0  0.7191136183571983  0.8818608986469131  0.9667714662373256  1.0000
  C   C9        1.0  0.2409493347114449  0.1892805678011058  0.1381575472755401  1.0000
  C   C10       1.0  0.7590434248498426  0.8107170508640991  0.8618396116057384  1.0000
  C   C11       1.0  0.1816811576037837  0.12223295238250392  0.21818625525787644  1.0000
  C   C12       1.0  0.8183203300713586  0.877765694909229  0.7818108143862618  1.0000
  C   C13       1.0  0.1670502802279828  0.9844984526932096  0.19541255886745296  1.0000
  C   C14       1.0  0.8329462143475156  0.015497187847209703  0.8045844026308373  1.0000
  C   C15       1.0  0.384332373807041  0.6192870983173364  0.3113530242955491  1.0000
  C   C16       1.0  0.6156623593752713  0.3807125226098407  0.6886455024570068  1.0000
  C   C17       1.0  0.5327139429361978  0.6538578712970134  0.40663274799138793  1.0000
  C   C18       1.0  0.46728396940070377  0.34613777478264757  0.5933642989468737  1.0000
  C   C19       1.0  0.4865651379712759  0.6679272123555081  0.5167389071011428  1.0000
  C   C20       1.0  0.513438101779478  0.3320724418071422  0.48326013229124243  1.0000
  C   C21       1.0  0.29427556733351434  0.6504980327523456  0.53400779625116  1.0000
  C   C22       1.0  0.7057304986224936  0.3495066197464567  0.4659949490236812  1.0000
  C   C23       1.0  0.14830186536902806  0.6150336800717042  0.4367569872914245  1.0000
  C   C24       1.0  0.8517014778329614  0.38497096728921326  0.5632480732887117  1.0000
  C   C25       1.0  0.19138818594341706  0.5983811098753835  0.32562458423154794  1.0000
  C   C26       1.0  0.8086067351868921  0.40161852095280187  0.6743780861630739  1.0000
  C   C27       1.0  0.24809749303953052  0.6690821684598234  0.6537828164271957  1.0000
  C   C28       1.0  0.7519124073897178  0.33092648262230995  0.34622017840496977  1.0000
  S   S1        1.0  0.19423862129178812  0.7379925505813602  0.061546349038224  1.0000
  S   S2        1.0  0.8057601436293423  0.2620060915724878  0.9384530359112162  1.0000
  S   S3        1.0  0.442136371275062  0.6077088534745413  0.17126441950220792  1.0000
  S   S4        1.0  0.557864292087892  0.392291786980877  0.828734675861682  1.0000
  N   N1        1.0  0.3957311186767924  0.7383897475097924  0.1375957787716047  1.0000
  N   N2        1.0  0.6042669682983542  0.26161187923839446  0.8624033725637972  1.0000
  O   O1        1.0  0.018183830554846712  0.6930754554385316  0.10491545764133998  1.0000
  O   O2        1.0  0.9818207557703077  0.3069232167931091  0.8950875839816347  1.0000
  O   O3        1.0  0.3259253021307771  0.48270270875497806  0.09508021087771823  1.0000
  O   O4        1.0  0.6740694686411359  0.5172969141523963  0.9049191446032552  1.0000
  O   O5        1.0  0.6504952534175105  0.6154175093638872  0.18428889194410666  1.0000
  O   O6        1.0  0.3495009727054068  0.384582121062941  0.8157113777052486  1.0000
