data_image0
_chemical_formula_structural       Zn2H34C56N2O8
_chemical_formula_sum              "Zn2 H34 C56 N2 O8"
_cell_length_a       17.164844988887683
_cell_length_b       16.61021732330072
_cell_length_c       17.666193297470826
_cell_angle_alpha    89.1783872014527
_cell_angle_beta     88.17102980559947
_cell_angle_gamma    85.44483452453076

_space_group_name_H-M_alt    "P 1"
_space_group_IT_number       1

loop_
  _space_group_symop_operation_xyz
  'x, y, z'

loop_
  _atom_site_type_symbol
  _atom_site_label
  _atom_site_symmetry_multiplicity
  _atom_site_fract_x
  _atom_site_fract_y
  _atom_site_fract_z
  _atom_site_occupancy
  Zn  Zn1       1.0  0.5152195378425191  0.5854365120264191  0.5019609357985573  1.0000
  Zn  Zn2       1.0  0.507408611120816  0.411819841685059  0.5109492447407575  1.0000
  H   H1        1.0  0.28940195116327067  0.41249141287272545  0.42402230032600136  1.0000
  H   H2        1.0  0.2552058902802727  0.6602674545253605  0.490359055601381  1.0000
  H   H3        1.0  0.020363722733435494  0.4143274488665227  0.4037202057074225  1.0000
  H   H4        1.0  0.004729302308525996  0.5956658500517946  0.4401062249545618  1.0000
  H   H5        1.0  0.11332417936257147  0.6610727757005748  0.4629179970464961  1.0000
  H   H6        1.0  0.8933067074792332  0.36166511131676066  0.3817141383446909  1.0000
  H   H7        1.0  0.9012849184238335  0.5855416939829325  0.5010667882198305  1.0000
  H   H8        1.0  0.14940972672576439  0.412693700509422  0.3928115713601557  1.0000
  H   H9        1.0  0.4074725186457825  0.6154047458040494  0.1470987147605527  1.0000
  H   H10       1.0  0.509800187427274  0.383805954890363  0.8899114970731219  1.0000
  H   H11       1.0  0.43748333717432075  0.6061304800328459  0.2848859323930171  1.0000
  H   H12       1.0  0.760974711168032  0.5830839479124776  0.5357327765213286  1.0000
  H   H13       1.0  0.5338649824549718  0.3875615215565135  0.7497870832944713  1.0000
  H   H14       1.0  0.5329699084407336  0.36152230707505595  0.2570560442299836  1.0000
  H   H15       1.0  0.4317361716144532  0.6316343531506163  0.740645290122103  1.0000
  H   H16       1.0  0.5085415871890077  0.37120434595565394  0.11813333719761232  1.0000
  H   H17       1.0  0.4057080042753896  0.6285694143975817  0.8806311204730903  1.0000
  H   H18       1.0  0.5204787232040715  0.7634520941661548  0.2815591113609699  1.0000
  H   H19       1.0  0.5938254769136931  0.6896979952536526  0.1769381676014135  1.0000
  H   H20       1.0  0.7091246640012655  0.5946636735583724  0.2049252599702314  1.0000
  H   H21       1.0  0.7508107638691114  0.5736037136882074  0.3383696066506232  1.0000
  H   H22       1.0  0.6758009539594808  0.6450120850022573  0.4426719809537616  1.0000
  H   H23       1.0  0.4410671296663224  0.8635835018107585  0.5987019113540555  1.0000
  H   H24       1.0  0.4363096116062906  0.3449516488688929  0.6662446748556548  1.0000
  H   H25       1.0  0.3275376405644152  0.4233179669580167  0.7341132619709114  1.0000
  H   H26       1.0  0.19173486455459002  0.4245684344704941  0.6872345165797  1.0000
  H   H27       1.0  0.16566969540234308  0.3447115386636029  0.57388947815965  1.0000
  H   H28       1.0  0.27463949270318716  0.2639095404120724  0.5076074245613427  1.0000
  H   H29       1.0  0.6015667322805172  0.12820583745115496  0.44567153451342284  1.0000
  H   H30       1.0  0.4671153534735737  0.7127270475050622  0.5972517715664196  1.0000
  H   H31       1.0  0.6023481858137315  0.2770423557410098  0.46780355161875065  1.0000
  H   H32       1.0  0.5580839346910623  0.8692013717269375  0.3785256085696531  1.0000
  H   H33       1.0  0.3705829229487207  0.14092009332964042  0.5520021489113134  1.0000
  H   H34       1.0  0.7525551064137375  0.3588318744614157  0.4200022952535106  1.0000
  C   C1        1.0  0.49955071538894186  0.5112711158127184  0.652673240505834  1.0000
  C   C2        1.0  0.4484395221656427  0.5776663354903562  0.7739829473601958  1.0000
  C   C3        1.0  0.4922426999655371  0.4222327315937378  0.155025918220673  1.0000
  C   C4        1.0  0.43389674508274806  0.5759095742746608  0.8518186796423493  1.0000
  C   C5        1.0  0.4574075530106754  0.4943803776048626  0.12313127073399951  1.0000
  C   C6        1.0  0.45673766154753526  0.5061813210941962  0.8948617034573091  1.0000
  C   C7        1.0  0.44884037295203427  0.5005293079958975  0.0438520021180508  1.0000
  C   C8        1.0  0.4485455077270258  0.5044055571451054  0.9747395678741241  1.0000
  C   C9        1.0  0.4713354239916399  0.8336368517879436  0.5505284519697115  1.0000
  C   C10       1.0  0.5514956450265912  0.16178615034458937  0.47277766791943077  1.0000
  C   C11       1.0  0.4860639402031879  0.7504307010062874  0.550154254998013  1.0000
  C   C12       1.0  0.5061024015310451  0.4793213101675065  0.3608097086806765  1.0000
  C   C13       1.0  0.5523415702612766  0.2438105996729688  0.4853526081439909  1.0000
  C   C14       1.0  0.5495229218996869  0.7523738371230949  0.43126967084073436  1.0000
  C   C15       1.0  0.4276116947877568  0.251718326536718  0.5429185669324283  1.0000
  C   C16       1.0  0.36273299165556944  0.5319323496548589  0.486418849570761  1.0000
  C   C17       1.0  0.6621744476774366  0.4723383067543736  0.5001313380098864  1.0000
  C   C18       1.0  0.5359943005642265  0.836532939569274  0.4275080726517828  1.0000
  C   C19       1.0  0.4225049856672101  0.16911155590229043  0.5314950496134117  1.0000
  C   C20       1.0  0.4972624525032856  0.878702572185496  0.48780030314830464  1.0000
  C   C21       1.0  0.48521114708199764  0.122423686582394  0.4970324367556387  1.0000
  C   C22       1.0  0.4882274308103192  0.9641618059160635  0.487437593903671  1.0000
  C   C23       1.0  0.4357565585170491  0.5601993570459811  0.17112781613189304  1.0000
  C   C24       1.0  0.48435462195706686  0.03766317585340321  0.49020953896317826  1.0000
  C   C25       1.0  0.27998132053512137  0.535369019716633  0.4617323708593304  1.0000
  C   C26       1.0  0.7476421354696825  0.4710395055224126  0.47981807438316076  1.0000
  C   C27       1.0  0.2499737410435188  0.4665830490112485  0.4319911670094996  1.0000
  C   C28       1.0  0.7903736179617056  0.5352048946742868  0.5013254476542741  1.0000
  C   C29       1.0  0.17158348148838334  0.4671379891705599  0.41498251932209484  1.0000
  C   C30       1.0  0.8688278348216442  0.5367437856462232  0.4808209701365485  1.0000
  C   C31       1.0  0.12003600431541629  0.5362187997257949  0.4288151264251496  1.0000
  C   C32       1.0  0.9079575826011208  0.4746760422242319  0.4369432200046788  1.0000
  C   C33       1.0  0.1521413687622655  0.6065303311103987  0.4536717171620809  1.0000
  C   C34       1.0  0.49228640424331627  0.4377954938431757  0.856894811218794  1.0000
  C   C35       1.0  0.8644386229519155  0.41056340437710753  0.4155203842349451  1.0000
  C   C36       1.0  0.23091717957693444  0.6063658080305958  0.4696343310328431  1.0000
  C   C37       1.0  0.78576298081164  0.4085465580628451  0.4368753280277105  1.0000
  C   C38       1.0  0.03533451839353321  0.536914756833184  0.4271515729841937  1.0000
  C   C39       1.0  0.9917206680767378  0.4731679129676181  0.41955455576572126  1.0000
  C   C40       1.0  0.5936853533899508  0.7091479162909949  0.368931333666481  1.0000
  C   C41       1.0  0.5716282553926887  0.7225154690143042  0.29366762815165265  1.0000
  C   C42       1.0  0.612759048060532  0.6810005999326165  0.23502773328272747  1.0000
  C   C43       1.0  0.6771927655911442  0.6272874278496232  0.250851592222439  1.0000
  C   C44       1.0  0.7004169522365018  0.6151671010498703  0.32549438572616646  1.0000
  C   C45       1.0  0.45205192526526605  0.5550613336091816  0.24763923668454885  1.0000
  C   C46       1.0  0.658718210039545  0.6556732125525002  0.3843579271119282  1.0000
  C   C47       1.0  0.3625970068176159  0.2992209483477311  0.5827957039195438  1.0000
  C   C48       1.0  0.37687621593693155  0.3441043460273861  0.6467876521944759  1.0000
  C   C49       1.0  0.3155277528988734  0.388520293145973  0.6844798270574373  1.0000
  C   C50       1.0  0.23953777430071452  0.3889011893591957  0.6583386219214377  1.0000
  C   C51       1.0  0.22476277819834678  0.3436262789893689  0.5950153917907529  1.0000
  C   C52       1.0  0.28585685286085283  0.29820469210360306  0.5578459418664039  1.0000
  C   C53       1.0  0.505715645899862  0.4399095373856241  0.7790664927110383  1.0000
  C   C54       1.0  0.48804614472832253  0.4838307198143497  0.27850611865012814  1.0000
  C   C55       1.0  0.48469345182979856  0.5099924980383292  0.7367307526573939  1.0000
  C   C56       1.0  0.506415087570673  0.41698520131054556  0.23191482771429864  1.0000
  N   N1        1.0  0.5243340505651801  0.7101607487430855  0.49248679510341026  1.0000
  N   N2        1.0  0.4924972803450345  0.2881949513269362  0.5198630987627482  1.0000
  O   O1        1.0  0.49365858434925497  0.5794034577812185  0.6185764915568868  1.0000
  O   O2        1.0  0.5101703268156256  0.4099587090092029  0.39256565433692003  1.0000
  O   O3        1.0  0.5164240713780899  0.44294974053165964  0.6216459002066372  1.0000
  O   O4        1.0  0.5152009231791439  0.5463410382535727  0.3924205585256503  1.0000
  O   O5        1.0  0.3941395786590718  0.5983269020201192  0.49259350793033013  1.0000
  O   O6        1.0  0.6291459562475339  0.40658022966241697  0.4968876857612016  1.0000
  O   O7        1.0  0.39523933219067686  0.4615666403025571  0.49968603809376333  1.0000
  O   O8        1.0  0.628445692626066  0.5410722231416827  0.5180221791412833  1.0000
