data_image0
_chemical_formula_structural       Zn2H48C42N2O14
_chemical_formula_sum              "Zn2 H48 C42 N2 O14"
_cell_length_a       9.702763867045194
_cell_length_b       11.016813455934672
_cell_length_c       16.01775499010818
_cell_angle_alpha    90.12708189129556
_cell_angle_beta     94.88034091970356
_cell_angle_gamma    92.67447543760063

_space_group_name_H-M_alt    "P 1"
_space_group_IT_number       1

loop_
  _space_group_symop_operation_xyz
  'x, y, z'

loop_
  _atom_site_type_symbol
  _atom_site_label
  _atom_site_symmetry_multiplicity
  _atom_site_fract_x
  _atom_site_fract_y
  _atom_site_fract_z
  _atom_site_occupancy
  Zn  Zn1       1.0  0.3616348743940847  0.48715652045415697  0.5005916485885251  1.0000
  Zn  Zn2       1.0  0.6461748850341991  0.5023693560136664  0.5013502132979825  1.0000
  H   H1        1.0  0.29325574216041866  0.582916005387645  0.050974134764239  1.0000
  H   H2        1.0  0.7107926956740444  0.8820518254804952  0.551627797307674  1.0000
  H   H3        1.0  0.1696057702933942  0.10159718113177972  0.5051277462786246  1.0000
  H   H4        1.0  0.2110286571561062  0.11151472842723113  0.3988806714623578  1.0000
  H   H5        1.0  0.20283370525743294  0.8824265498284093  0.3894713473489801  1.0000
  H   H6        1.0  0.8509013226809117  0.4316048088581185  0.3766517560915403  1.0000
  H   H7        1.0  0.11115713149659001  0.41454730607715373  0.380786940680089  1.0000
  H   H8        1.0  0.1784784160412798  0.6837664213587828  0.6499200619503611  1.0000
  H   H9        1.0  0.89469644271248  0.5644596108982894  0.6873942872902603  1.0000
  H   H10       1.0  0.6677763696706335  0.5906898877175238  0.1024766324802613  1.0000
  H   H11       1.0  0.508688222110628  0.2912942405193347  0.9240259920822993  1.0000
  H   H12       1.0  0.6718742295315041  0.36417191201684324  0.9502017160352736  1.0000
  H   H13       1.0  0.46512276926033286  0.2868528664711789  0.06573201862209288  1.0000
  H   H14       1.0  0.2838524331849186  0.2770131250880254  0.9270089180469157  1.0000
  H   H15       1.0  0.35264239315039  0.3073892085803678  0.82795620927255  1.0000
  H   H16       1.0  0.10904170014480033  0.3253718697692207  0.7621241287687681  1.0000
  H   H17       1.0  0.1387620621164487  0.17966724878900928  0.8054681223574038  1.0000
  H   H18       1.0  0.0441891057174928  0.28504856249488597  0.8597216013521561  1.0000
  H   H19       1.0  0.07161013708257971  0.5059784813883893  0.0647583300846648  1.0000
  H   H20       1.0  0.1793730429763016  0.46746223622743344  0.1562084405583022  1.0000
  H   H21       1.0  0.09614917139887781  0.24925856689480236  0.1389914640600196  1.0000
  H   H22       1.0  0.954502409298378  0.34520963549474  0.1461345094124837  1.0000
  H   H23       1.0  0.9898403515536176  0.28648566708257317  0.04699400340779649  1.0000
  H   H24       1.0  0.634836715597821  0.35015096964797715  0.0907702785317284  1.0000
  H   H25       1.0  0.81728079436391  0.18562594231035942  0.4717941636083367  1.0000
  H   H26       1.0  0.8992785459050127  0.054134087857590905  0.5144609665362978  1.0000
  H   H27       1.0  0.9948612385418231  0.17621888298027244  0.6408193536746083  1.0000
  H   H28       1.0  0.0456644954319501  0.24943958487285292  0.5488210464964638  1.0000
  H   H29       1.0  0.904915917424745  0.3038338433161983  0.6016421764377499  1.0000
  H   H30       1.0  0.15948950158463054  0.8739610674216326  0.4953599441820629  1.0000
  H   H31       1.0  0.15205462789216986  0.6502826404808884  0.9585201268426431  1.0000
  H   H32       1.0  0.15764448475796658  0.654801422100796  0.8481864078723333  1.0000
  H   H33       1.0  0.2889442701759322  0.8593621009015919  0.8623499508982067  1.0000
  H   H34       1.0  0.1242334869698425  0.8623797871986837  0.9034151973454385  1.0000
  H   H35       1.0  0.2771365378942646  0.855115630995897  0.9727676610709182  1.0000
  H   H36       1.0  0.1574208694106787  0.5366970094690232  0.695468766595745  1.0000
  H   H37       1.0  0.9970606891231454  0.7553715934917236  0.7631484780085813  1.0000
  H   H38       1.0  0.8135319509457447  0.7647041277116314  0.7462675393322371  1.0000
  H   H39       1.0  0.8484858004668894  0.9678191032698038  0.6749443794865188  1.0000
  H   H40       1.0  0.9316273309989357  0.9697014360339081  0.7780395468573716  1.0000
  H   H41       1.0  0.031340113169797186  0.9540423847541036  0.6905587106878812  1.0000
  H   H42       1.0  0.8930989999051562  0.6850193397793305  0.9195206028257914  1.0000
  H   H43       1.0  0.7468229585562299  0.6364872512138007  0.8504640214791763  1.0000
  H   H44       1.0  0.830528414166899  0.42765802528114705  0.845508044060736  1.0000
  H   H45       1.0  0.966533226383575  0.5313877274560497  0.8202784334737601  1.0000
  H   H46       1.0  0.9717041822277324  0.46773412514532714  0.9212772282466731  1.0000
  H   H47       1.0  0.5897111127816075  0.6798789294249089  0.9401426844884639  1.0000
  H   H48       1.0  0.5203649252008374  0.6761893606352204  0.0752764972777982  1.0000
  C   C1        1.0  0.4965533798320649  0.7283756003630161  0.4976110446395552  1.0000
  C   C2        1.0  0.3340588666025043  0.4973198620575374  0.0300520916193392  1.0000
  C   C3        1.0  0.4755942247963675  0.4816626635087787  0.0806305123559312  1.0000
  C   C4        1.0  0.5372444102961821  0.3626993913604579  0.0524465518631487  1.0000
  C   C5        1.0  0.5612612342742552  0.3680724863253176  0.9586123364112211  1.0000
  C   C6        1.0  0.46277013573897824  0.47729642886049106  0.17016788267271474  1.0000
  C   C7        1.0  0.5308358037246633  0.49517027482875153  0.8311870503910868  1.0000
  C   C8        1.0  0.5366273255495033  0.49874281353229594  0.755693189434254  1.0000
  C   C9        1.0  0.37977830708431537  0.929186272572622  0.4829553324772107  1.0000
  C   C10       1.0  0.49678413214748923  0.8631220801659722  0.5032084246875925  1.0000
  C   C11       1.0  0.6182296806906252  0.930810728048087  0.5321961270452249  1.0000
  C   C12       1.0  0.5338930996654342  0.5032076426185698  0.6654091352334035  1.0000
  C   C13       1.0  0.621953254059399  0.05751381910960162  0.5392156295591235  1.0000
  C   C14       1.0  0.5046112892163778  0.12509765338035092  0.5139900143159579  1.0000
  C   C15       1.0  0.3846367613040301  0.05572467165903562  0.488158893141474  1.0000
  C   C16       1.0  0.23274350218310502  0.06409159553638939  0.4585109163709332  1.0000
  C   C17       1.0  0.22720672599270128  0.9205849387362263  0.45270814569456524  1.0000
  C   C18       1.0  0.9455513776006867  0.5576537948145273  0.5562308189273181  1.0000
  C   C19       1.0  0.919509031498201  0.4648346389291191  0.4300799856176596  1.0000
  C   C20       1.0  0.06279151074978269  0.45407687965499116  0.4328439000605613  1.0000
  C   C21       1.0  0.08767923292818842  0.5435282236700304  0.5605410654103908  1.0000
  C   C22       1.0  0.11518614933655164  0.5984200071362267  0.6470531788575116  1.0000
  C   C23       1.0  0.5058083566779388  0.2603617002856069  0.5121189600608532  1.0000
  C   C24       1.0  0.9514346152538451  0.6178237516023017  0.6420648933878184  1.0000
  C   C25       1.0  0.47694327635402095  0.47805267586305417  0.33666219836167954  1.0000
  C   C26       1.0  0.35943216334014483  0.5154604771613265  0.9344497809852683  1.0000
  C   C27       1.0  0.608889982257331  0.5919901238952079  0.9700717126649324  1.0000
  C   C28       1.0  0.5714518792352479  0.592437279122798  0.06139517628823649  1.0000
  C   C29       1.0  0.4656738737178472  0.47521804988449645  0.2461571528101629  1.0000
  C   C30       1.0  0.5149957975265096  0.4903532638942423  0.9202910803202258  1.0000
  C   C31       1.0  0.2663553161276653  0.32329993085756564  0.8665348456087971  1.0000
  C   C32       1.0  0.1311720639487248  0.2762742737659636  0.8209908713759833  1.0000
  C   C33       1.0  0.1312785545681265  0.432694774519291  0.09539235333667051  1.0000
  C   C34       1.0  0.037709406261704694  0.3215362981941041  0.107427088577424  1.0000
  C   C35       1.0  0.8540378691776808  0.1406035077639345  0.5303002667988964  1.0000
  C   C36       1.0  0.9563954469987979  0.2223654172325169  0.5834172028171737  1.0000
  C   C37       1.0  0.21242753758839683  0.68632242187266  0.9078322181035787  1.0000
  C   C38       1.0  0.2269615980340163  0.8238475568056673  0.911957923473132  1.0000
  C   C39       1.0  0.9128522333076816  0.7920491743121406  0.7211882172651016  1.0000
  C   C40       1.0  0.9318658936006585  0.9287425716725154  0.7153887075214911  1.0000
  C   C41       1.0  0.8223207505862504  0.6064458328536093  0.9003239840325677  1.0000
  C   C42       1.0  0.9018014921768441  0.5020895604158468  0.8701524131847549  1.0000
  N   N1        1.0  0.8576632369378602  0.5161028479041933  0.4935370433952642  1.0000
  N   N2        1.0  0.14975541336665535  0.4909203445232038  0.499970109802959  1.0000
  O   O1        1.0  0.3798729774432914  0.6712679103231665  0.4815485343331148  1.0000
  O   O2        1.0  0.6134204827702306  0.6803308447501238  0.5097725337170759  1.0000
  O   O3        1.0  0.4157116634600229  0.5200320807478606  0.6270209151177897  1.0000
  O   O4        1.0  0.6472425369108663  0.49009434441100547  0.6323944126410055  1.0000
  O   O5        1.0  0.3912575817352463  0.3079711678373016  0.5231240032628506  1.0000
  O   O6        1.0  0.6174455052818714  0.31793439184480127  0.496288959480232  1.0000
  O   O7        1.0  0.36644386801950185  0.4561159196039029  0.3729575420470752  1.0000
  O   O8        1.0  0.5975863647296792  0.5032116043458219  0.3718529912668345  1.0000
  O   O9        1.0  0.25862358508698685  0.45217246613529477  0.8797916957500647  1.0000
  O   O10       1.0  0.23765021066227382  0.399825622805011  0.04335956856015599  1.0000
  O   O11       1.0  0.7378804808079095  0.11654542064898979  0.5792359606951649  1.0000
  O   O12       1.0  0.34894826018744135  0.6407136502742148  0.9148554352387706  1.0000
  O   O13       1.0  0.9147542331136125  0.7397534428238262  0.6387174203334922  1.0000
  O   O14       1.0  0.7524100181229232  0.56850539485567  0.9722672447194611  1.0000
