data_image0
_chemical_formula_structural       Cu2H24C20N4O10
_chemical_formula_sum              "Cu2 H24 C20 N4 O10"
_cell_length_a       8.001598460040773
_cell_length_b       8.091509920561526
_cell_length_c       9.6481793021901
_cell_angle_alpha    113.18287299934264
_cell_angle_beta     89.99974013452695
_cell_angle_gamma    90.00034425007506

_space_group_name_H-M_alt    "P 1"
_space_group_IT_number       1

loop_
  _space_group_symop_operation_xyz
  'x, y, z'

loop_
  _atom_site_type_symbol
  _atom_site_label
  _atom_site_symmetry_multiplicity
  _atom_site_fract_x
  _atom_site_fract_y
  _atom_site_fract_z
  _atom_site_occupancy
  Cu  Cu1       1.0  0.9781036959753773  0.6014314212727215  0.07814058766214067  1.0000
  Cu  Cu2       1.0  0.4781056364885713  0.3985706623658131  0.9218580606044142  1.0000
  H   H1        1.0  0.6707370969675991  0.8651270543000392  0.10415995065967817  1.0000
  H   H2        1.0  0.17073381483115918  0.1348721610283121  0.8958399136683327  1.0000
  H   H3        1.0  0.7674006387136173  0.9627366935211087  0.9850610798089505  1.0000
  H   H4        1.0  0.2673978947926088  0.037271044808683484  0.014942354386739997  1.0000
  H   H5        1.0  0.9906201479264566  0.17372213294935077  0.4332075851316475  1.0000
  H   H6        1.0  0.4906216828424518  0.8262759453847507  0.566791728131804  1.0000
  H   H7        1.0  0.14322523228490516  0.10919106612813323  0.535413730133797  1.0000
  H   H8        1.0  0.6432241732288869  0.8908040656835112  0.464579667096416  1.0000
  H   H9        1.0  0.9305740339749557  0.10771291018224359  0.5806838354419668  1.0000
  H   H10       1.0  0.4305717928691308  0.8922861674384633  0.41931915253412905  1.0000
  H   H11       1.0  0.22709844159149375  0.3305019855194047  0.34117401845880835  1.0000
  H   H12       1.0  0.7271086946768575  0.6694989011094703  0.6588230925026011  1.0000
  H   H13       1.0  0.034559561588856993  0.9916918969296945  0.11739808185832608  1.0000
  H   H14       1.0  0.5345570186506095  0.008315976562471393  0.8826104188194536  1.0000
  H   H15       1.0  0.8735000610314642  0.09508568400512732  0.2519206821421704  1.0000
  H   H16       1.0  0.37350107277998745  0.9049157855375967  0.7480843695290531  1.0000
  H   H17       1.0  0.22745539863742437  0.428893670823591  0.6200121833499779  1.0000
  H   H18       1.0  0.7274603460370413  0.5711045120470359  0.37998504402785477  1.0000
  H   H19       1.0  0.11016180253389506  0.7281525835296491  0.7823662123406906  1.0000
  H   H20       1.0  0.6101533171023518  0.27184900653188754  0.21763572300532996  1.0000
  H   H21       1.0  0.014795556115373597  0.9334792753188238  0.6674606931559453  1.0000
  H   H22       1.0  0.5147926721765117  0.06651915851426791  0.3325405277394822  1.0000
  H   H23       1.0  0.7547523844952264  0.6251149525207965  0.8933563027606156  1.0000
  H   H24       1.0  0.25474745388569886  0.3748901026132216  0.10664212093772109  1.0000
  C   C1        1.0  0.11621883637715769  0.5738324390177568  0.343455522078294  1.0000
  C   C2        1.0  0.6162263595761883  0.4261665090165252  0.6565444561237257  1.0000
  C   C3        1.0  0.06088892805891529  0.7514225422758828  0.4366405748779983  1.0000
  C   C4        1.0  0.5608958786690507  0.24857480700597284  0.5633580312603996  1.0000
  C   C5        1.0  0.17865457465433102  0.4623041910043995  0.41354397989587  1.0000
  C   C6        1.0  0.6786606713250405  0.537691063952103  0.5864524357637039  1.0000
  C   C7        1.0  0.009650989982482398  0.8855799949259477  0.3780233453280745  1.0000
  C   C8        1.0  0.509651793418378  0.11441708624003871  0.6219763986651685  1.0000
  C   C9        1.0  0.9207047793007204  0.9664325682434551  0.17014931849157489  1.0000
  C   C10       1.0  0.42070749046740014  0.033569183357492705  0.8298525421235537  1.0000
  C   C11       1.0  0.17942291076383293  0.5179494701738109  0.5689480538588968  1.0000
  C   C12       1.0  0.6794295280669687  0.48204840972331914  0.4310533971161874  1.0000
  C   C13       1.0  0.11668321220103905  0.6876013239027967  0.6608431498444672  1.0000
  C   C14       1.0  0.6166817999749696  0.3123950220793218  0.3391507596602494  1.0000
  C   C15       1.0  0.06215589111030079  0.8018401246728716  0.5947087209215172  1.0000
  C   C16       1.0  0.5621559106877141  0.19815580216535264  0.40529457982562894  1.0000
  C   C17       1.0  0.7881538310605832  0.8809171977232922  0.051386727489720875  1.0000
  C   C18       1.0  0.28815140908918824  0.11908529883469042  0.948612774404495  1.0000
  C   C19       1.0  0.0174954009993655  0.07980846945243768  0.4859915935279489  1.0000
  C   C20       1.0  0.517495497798535  0.9201886501754827  0.5140081340795462  1.0000
  N   N1        1.0  0.963928063027218  0.8386682347488518  0.23790572225446752  1.0000
  N   N2        1.0  0.46393318359088187  0.16133109075899196  0.7620920419618145  1.0000
  N   N3        1.0  0.8506070578334428  0.267965334172125  0.921634639953517  1.0000
  N   N4        1.0  0.3506082243428636  0.732034746262677  0.0783658794480573  1.0000
  O   O1        1.0  0.11698764750717319  0.508119964071831  0.19336535678722563  1.0000
  O   O2        1.0  0.6169934915561441  0.49187900459277495  0.8066335889950267  1.0000
  O   O3        1.0  0.976298525226795  0.3608842783046954  0.9049021603466584  1.0000
  O   O4        1.0  0.4762990288945516  0.6391191070649639  0.0950990101528149  1.0000
  O   O5        1.0  0.8504183518273007  0.7062272874285115  0.953465460255039  1.0000
  O   O6        1.0  0.3504145067802681  0.29377821992446224  0.046533794417349776  1.0000
  O   O7        1.0  0.7523093954562793  0.3416387389833416  0.030869445429694102  1.0000
  O   O8        1.0  0.25231391726517666  0.6583568602578608  0.9691278471866482  1.0000
  O   O9        1.0  0.8322180072625539  0.11031723073547542  0.8283313710973558  1.0000
  O   O10       1.0  0.33221337460676637  0.8896813983375651  0.17166976070989656  1.0000
