data_image0
_chemical_formula_structural       Zn8P4H16C28O20F4
_chemical_formula_sum              "Zn8 P4 H16 C28 O20 F4"
_cell_length_a       5.754840289617724
_cell_length_b       8.56676225312672
_cell_length_c       19.44672943503357
_cell_angle_alpha    90.00021124626532
_cell_angle_beta     89.99999089077693
_cell_angle_gamma    100.96651138590654

_space_group_name_H-M_alt    "P 1"
_space_group_IT_number       1

loop_
  _space_group_symop_operation_xyz
  'x, y, z'

loop_
  _atom_site_type_symbol
  _atom_site_label
  _atom_site_symmetry_multiplicity
  _atom_site_fract_x
  _atom_site_fract_y
  _atom_site_fract_z
  _atom_site_occupancy
  Zn  Zn1       1.0  0.2549802387184883  0.03765023492817929  0.4690845575624251  1.0000
  Zn  Zn2       1.0  0.7450187935320541  0.4623495590176743  0.9690846488832249  1.0000
  Zn  Zn3       1.0  0.7450209839274962  0.9623507101544889  0.530916261547773  1.0000
  Zn  Zn4       1.0  0.25497687314344825  0.5376502288318006  0.030916170226170395  1.0000
  Zn  Zn5       1.0  0.6529432693665099  0.3626230641426814  0.5015679095622401  1.0000
  Zn  Zn6       1.0  0.3470541841113359  0.13737629331631496  0.0015679762017341999  1.0000
  Zn  Zn7       1.0  0.34706004004245716  0.637379059325468  0.4984318810982913  1.0000
  Zn  Zn8       1.0  0.652940778241735  0.8626211165922508  0.9984318144551664  1.0000
  P   P1        1.0  0.8843589199555312  0.1973135756681899  0.0679503822339669  1.0000
  P   P2        1.0  0.11563727896268718  0.3026875512782538  0.567950244699382  1.0000
  P   P3        1.0  0.11563604239753998  0.8026838342403763  0.9320494084229335  1.0000
  P   P4        1.0  0.884364295843028  0.6973145827682499  0.4320495459612061  1.0000
  H   H1        1.0  0.9747071120569757  0.35726412600511986  0.31230779498661576  1.0000
  H   H2        1.0  0.025284679755600305  0.1427343642075201  0.8123068870132568  1.0000
  H   H3        1.0  0.02529375842679834  0.6427356301026776  0.6876914814467623  1.0000
  H   H4        1.0  0.9747096044753858  0.8572666231797252  0.18769187519600905  1.0000
  H   H5        1.0  0.1093862759275197  0.3527604440557894  0.19013611261507174  1.0000
  H   H6        1.0  0.8906080716112258  0.14724055354828636  0.6901346545972868  1.0000
  H   H7        1.0  0.8906125077917864  0.647238133659904  0.8098626495921195  1.0000
  H   H8        1.0  0.10939247291118898  0.8527639690064388  0.3098635933894158  1.0000
  H   H9        1.0  0.4331238181763054  0.06545768813392529  0.13614632919244227  1.0000
  H   H10       1.0  0.5668718077983286  0.4345416463929793  0.6361474125233926  1.0000
  H   H11       1.0  0.5668732309412334  0.9345409001667446  0.8638539756906524  1.0000
  H   H12       1.0  0.43313114945090814  0.5654592881113416  0.36385340658675597  1.0000
  H   H13       1.0  0.302471882358013  0.0735886794343656  0.2570227058649905  1.0000
  H   H14       1.0  0.6975211853940521  0.4264081365753042  0.7570232551983267  1.0000
  H   H15       1.0  0.6975251667600162  0.926409908868507  0.7429781132433886  1.0000
  H   H16       1.0  0.30247621588519985  0.5735916406980264  0.24297807813630354  1.0000
  C   C1        1.0  0.5541472337821887  0.21414015080294035  0.3651283959536328  1.0000
  C   C2        1.0  0.4458491592766193  0.2858563832466885  0.8651287287425046  1.0000
  C   C3        1.0  0.44585884051284097  0.7858595735764311  0.6348724231554498  1.0000
  C   C4        1.0  0.5541461552381577  0.7141422156345383  0.1348720903659313  1.0000
  C   C5        1.0  0.6313807406931601  0.21446211601049467  0.29183123628882857  1.0000
  C   C6        1.0  0.3686158633214164  0.28553497769365066  0.7918305439551714  1.0000
  C   C7        1.0  0.3686183951883493  0.7855376506800694  0.7081690685951755  1.0000
  C   C8        1.0  0.6313832725596028  0.7144647889947037  0.208169246703541  1.0000
  C   C9        1.0  0.8587031573796509  0.2942776680118583  0.27290523402788835  1.0000
  C   C10       1.0  0.14128994096913058  0.205719284359418  0.7729054513849292  1.0000
  C   C11       1.0  0.14129562634014553  0.705720909706038  0.7270940424045804  1.0000
  C   C12       1.0  0.8587060778660955  0.7942816924538858  0.2270943392748492  1.0000
  C   C13       1.0  0.9327239359003625  0.2912507728260962  0.2048907080740889  1.0000
  C   C14       1.0  0.0672690576206065  0.2087515510063085  0.7048899056108979  1.0000
  C   C15       1.0  0.06727484781944075  0.7087478048918072  0.7951085683583797  1.0000
  C   C16       1.0  0.9327297522990534  0.7912529821289735  0.2951088566011393  1.0000
  C   C17       1.0  0.7809713731352231  0.20825832338913833  0.1549521698230478  1.0000
  C   C18       1.0  0.21902255446363475  0.2917411831725686  0.6549520092904045  1.0000
  C   C19       1.0  0.21902497166037446  0.7917378869728252  0.8450476208328367  1.0000
  C   C20       1.0  0.7809793725027987  0.7082621398421765  0.34504778137114295  1.0000
  C   C21       1.0  0.5537750979733642  0.12967242547023963  0.17402935531701047  1.0000
  C   C22       1.0  0.4462206009807659  0.3703272343073109  0.6740298257715408  1.0000
  C   C23       1.0  0.4462233335867083  0.8703249632838279  0.8259709495650752  1.0000
  C   C24       1.0  0.5537813259866553  0.6296760887118464  0.32597099334057583  1.0000
  C   C25       1.0  0.4792538929263158  0.13337416154908505  0.241980117897853  1.0000
  C   C26       1.0  0.5207391458467399  0.36662252530867073  0.7419805785991257  1.0000
  C   C27       1.0  0.5207462732374991  0.8666232166288451  0.7580207012094603  1.0000
  C   C28       1.0  0.4792586075927403  0.6333784409306984  0.258020240511179  1.0000
  O   O1        1.0  0.34543480373971386  0.13920782072723628  0.3799776236650699  1.0000
  O   O2        1.0  0.6545619700858509  0.3607900297803112  0.8799775539582195  1.0000
  O   O3        1.0  0.6545730051580704  0.8607918930715782  0.6200226812186713  1.0000
  O   O4        1.0  0.3454329922677104  0.6392073801304576  0.1200227509239653  1.0000
  O   O5        1.0  0.7033120224211158  0.2884543956322857  0.4078096657391653  1.0000
  O   O6        1.0  0.2966865396247726  0.21154368325422715  0.9078093706127035  1.0000
  O   O7        1.0  0.2966919913092951  0.7115501057723606  0.5921901249232846  1.0000
  O   O8        1.0  0.7033101573315506  0.7884537160759846  0.09219042004414749  1.0000
  O   O9        1.0  0.9525822865239845  0.3689802805218035  0.037142255122141386  1.0000
  O   O10       1.0  0.0474138530433734  0.13102058191331167  0.5371418411750781  1.0000
  O   O11       1.0  0.047414058271613185  0.6310159298401599  0.9628575355337429  1.0000
  O   O12       1.0  0.9525856349988614  0.8689803737455006  0.4628584637098853  1.0000
  O   O13       1.0  0.09615126295134498  0.11440187374613227  0.0700134061654296  1.0000
  O   O14       1.0  0.903847731026211  0.385602827237463  0.5700128502380792  1.0000
  O   O15       1.0  0.9038454340054685  0.8855955255862893  0.9299868987166988  1.0000
  O   O16       1.0  0.09615593054446951  0.6144004852033476  0.4299879688739877  1.0000
  O   O17       1.0  0.6780854588776037  0.10245423826287947  0.024783154233553296  1.0000
  O   O18       1.0  0.3219123914846093  0.3975465074860479  0.524783675254909  1.0000
  O   O19       1.0  0.3219112380782149  0.8975431610651226  0.9752161221980131  1.0000
  O   O20       1.0  0.6780891833206083  0.602455626558246  0.4752156011803946  1.0000
  F   F1        1.0  0.5315471105311076  0.1260039246849587  0.53661937212199  1.0000
  F   F2        1.0  0.468459787808527  0.3739980587560439  0.036618275719440894  1.0000
  F   F3        1.0  0.4684544642760925  0.8739982093681603  0.46338196121445907  1.0000
  F   F4        1.0  0.5315466386467236  0.626002854589366  0.9633820291653166  1.0000
