data_image0
_chemical_formula_structural       Mn4P4H40C24N4O20
_chemical_formula_sum              "Mn4 P4 H40 C24 N4 O20"
_cell_length_a       7.6266629502059455
_cell_length_b       10.04391458629593
_cell_length_c       12.745912091494157
_cell_angle_alpha    104.26238513908537
_cell_angle_beta     90.00073322540555
_cell_angle_gamma    90.00022187011385

_space_group_name_H-M_alt    "P 1"
_space_group_IT_number       1

loop_
  _space_group_symop_operation_xyz
  'x, y, z'

loop_
  _atom_site_type_symbol
  _atom_site_label
  _atom_site_symmetry_multiplicity
  _atom_site_fract_x
  _atom_site_fract_y
  _atom_site_fract_z
  _atom_site_occupancy
  Mn  Mn1       1.0  0.7507787876247602  0.905957296538027  0.11287442998985858  1.0000
  Mn  Mn2       1.0  0.2507759226028838  0.094043759130173  0.387123987027458  1.0000
  Mn  Mn3       1.0  0.24922751737359758  0.09405108092955318  0.8871247760446294  1.0000
  Mn  Mn4       1.0  0.7492330047235  0.9059502164799725  0.6128738825293994  1.0000
  P   P1        1.0  0.8618432605175242  0.9023495120752898  0.8643173202775928  1.0000
  P   P2        1.0  0.36184945177839717  0.09764828623901418  0.6356838423899447  1.0000
  P   P3        1.0  0.1381656668513855  0.09765887565157529  0.13568110323241464  1.0000
  P   P4        1.0  0.6381607867444854  0.902343614391029  0.36431517773583993  1.0000
  H   H1        1.0  0.38822795632988516  0.9217802697660745  0.07248069881366355  1.0000
  H   H2        1.0  0.888221555747492  0.07822461874127379  0.42752189037634747  1.0000
  H   H3        1.0  0.6117744150988216  0.07822604295831329  0.9275188752308454  1.0000
  H   H4        1.0  0.11178737159429629  0.9217672716332075  0.572477912279652  1.0000
  H   H5        1.0  0.42865432916549634  0.8867583828130777  0.1826575336652  1.0000
  H   H6        1.0  0.9286444356137975  0.11325085486335947  0.3173454557620659  1.0000
  H   H7        1.0  0.5713441086514096  0.1132386847393292  0.8173401750728786  1.0000
  H   H8        1.0  0.0713658028936734  0.8867431310023405  0.6826516312645836  1.0000
  H   H9        1.0  0.5847358306773245  0.0962626979466634  0.2599625420382594  1.0000
  H   H10       1.0  0.0847483504632649  0.9037354817658636  0.24002461706486866  1.0000
  H   H11       1.0  0.41527309671848645  0.9037353251128553  0.7400408517517293  1.0000
  H   H12       1.0  0.9152592656551094  0.0962688482560665  0.759969064742222  1.0000
  H   H13       1.0  0.535512841962884  0.1490476657655151  0.159968047749345  1.0000
  H   H14       1.0  0.0354944554531755  0.8509472136431171  0.34001336348956107  1.0000
  H   H15       1.0  0.4644921519089493  0.8509544354876865  0.8400385226487118  1.0000
  H   H16       1.0  0.9645184053721251  0.1490427145288393  0.6599789818513743  1.0000
  H   H17       1.0  0.6530304321717537  0.62275904460855  0.13397716612357163  1.0000
  H   H18       1.0  0.1530298647751636  0.37725673034876184  0.36603367729096453  1.0000
  H   H19       1.0  0.3469470267495041  0.37727401729458165  0.8660246662814188  1.0000
  H   H20       1.0  0.8469725066193659  0.6227351600070746  0.6339661253363504  1.0000
  H   H21       1.0  0.6371094686047627  0.37705780056559485  0.022985193409368825  1.0000
  H   H22       1.0  0.1371282603752917  0.6229558293996433  0.4770250962568525  1.0000
  H   H23       1.0  0.3628325881846379  0.6229752817405013  0.9770150737688182  1.0000
  H   H24       1.0  0.8628688663256623  0.3770318494626324  0.5229817026895773  1.0000
  H   H25       1.0  0.7931745655251274  0.31572910412774036  0.8443414105348808  1.0000
  H   H26       1.0  0.2931998981605871  0.6842753712753903  0.6556699925087771  1.0000
  H   H27       1.0  0.2067779808173569  0.6842905010650995  0.15566555281396433  1.0000
  H   H28       1.0  0.7067998508555887  0.31570412042912466  0.3443328008064199  1.0000
  H   H29       1.0  0.961544236284645  0.4980148066921474  0.7855651203456874  1.0000
  H   H30       1.0  0.46156465720443407  0.5019803540729201  0.7144456835353666  1.0000
  H   H31       1.0  0.03843846734722689  0.5019831855372986  0.21444062093740976  1.0000
  H   H32       1.0  0.5384468925062152  0.49800225014090677  0.2855553839866901  1.0000
  H   H33       1.0  0.08180402409828957  0.7266896340566547  0.8282928847579998  1.0000
  H   H34       1.0  0.5818049362825377  0.2733126731591469  0.6717117660058136  1.0000
  H   H35       1.0  0.9182075257018594  0.2733155899427757  0.1717111772880173  1.0000
  H   H36       1.0  0.4182066133436492  0.7266752005289092  0.32828016482066863  1.0000
  H   H37       1.0  0.08000809131563359  0.8200363382084604  0.9656534030295489  1.0000
  H   H38       1.0  0.5800134547434582  0.1799618088361044  0.5343535331639089  1.0000
  H   H39       1.0  0.9199942801641183  0.17996474604902346  0.034352177566724214  1.0000
  H   H40       1.0  0.41999678370868304  0.8200239796125571  0.4656403307559743  1.0000
  C   C1        1.0  0.718050082752093  0.5895775272606798  0.05564603178155644  1.0000
  C   C2        1.0  0.2180500502001976  0.41043150889873914  0.4443576695539662  1.0000
  C   C3        1.0  0.2819339319916594  0.41044328979467787  0.944347053312228  1.0000
  C   C4        1.0  0.7819562547697387  0.5895583064844487  0.5556432836537369  1.0000
  C   C5        1.0  0.7102201929905476  0.4544363799647399  0.9946321529473751  1.0000
  C   C6        1.0  0.21023635771641117  0.5455737562084835  0.5053821152567154  1.0000
  C   C7        1.0  0.2897362869360691  0.5455883716915582  0.005375064154513663  1.0000
  C   C8        1.0  0.789763391354171  0.4544190998689999  0.4946225898291772  1.0000
  C   C9        1.0  0.7960652347586998  0.4204131080417781  0.8949430263938467  1.0000
  C   C10       1.0  0.2960771511897704  0.5795925750362159  0.6050560885664994  1.0000
  C   C11       1.0  0.20390304568137907  0.5795994807962898  0.10504918313218074  1.0000
  C   C12       1.0  0.7039239090114079  0.4203931211198721  0.3949448181367786  1.0000
  C   C13       1.0  0.8884253196509417  0.5222532143545421  0.8614579157331832  1.0000
  C   C14       1.0  0.3884426809069552  0.47774976888666026  0.6385523412340319  1.0000
  C   C15       1.0  0.11154951689993449  0.4777602069575123  0.1385493692589463  1.0000
  C   C16       1.0  0.611563624028264  0.5222380227718374  0.36144584985710543  1.0000
  C   C17       1.0  0.8929211260827897  0.655905476180969  0.9277250207721437  1.0000
  C   C18       1.0  0.3929272109384527  0.34409453289708125  0.5722783934378413  1.0000
  C   C19       1.0  0.10707468938678488  0.34410188426851823  0.07227319542613493  1.0000
  C   C20       1.0  0.6070856499198809  0.6558881225796255  0.42771876141019766  1.0000
  C   C21       1.0  0.9959478005375644  0.7676533641209957  0.8978097071176523  1.0000
  C   C22       1.0  0.495952647412274  0.23235547970058687  0.6021939191000314  1.0000
  C   C23       1.0  0.004057193308284499  0.23235393484361566  0.10219320433648701  1.0000
  C   C24       1.0  0.5040667693721517  0.76763340074627  0.397799784087134  1.0000
  N   N1        1.0  0.8055430355662806  0.6886613891271125  0.02310967816995912  1.0000
  N   N2        1.0  0.30555106385141056  0.3113408413112424  0.4769019459663469  1.0000
  N   N3        1.0  0.19444229049537398  0.3113510049746893  0.976897399613712  1.0000
  N   N4        1.0  0.6944578634363411  0.6886449163782017  0.5230942655556561  1.0000
  O   O1        1.0  0.738763095398589  0.9592643394429815  0.9618145040806143  1.0000
  O   O2        1.0  0.23878788850012708  0.040720411393671406  0.5381846596137905  1.0000
  O   O3        1.0  0.26124320957693203  0.04074096655615729  0.0381832976548466  1.0000
  O   O4        1.0  0.7612236612504475  0.9592724754728718  0.4618176979158832  1.0000
  O   O5        1.0  0.7562781420848168  0.8429356814676224  0.7611343297734265  1.0000
  O   O6        1.0  0.256257998709131  0.15706365275570278  0.7388600631999792  1.0000
  O   O7        1.0  0.24374127476107074  0.15706448836837686  0.23886243574762034  1.0000
  O   O8        1.0  0.7437496174352347  0.8429354795548107  0.26113727755102906  1.0000
  O   O9        1.0  0.9930830055888434  0.012655747966114503  0.8463316746286509  1.0000
  O   O10       1.0  0.49310327894478684  0.987357990263057  0.6536901786494128  1.0000
  O   O11       1.0  0.006920677041193799  0.9873495170182522  0.15366925723913744  1.0000
  O   O12       1.0  0.5069095820396113  0.012638974812077203  0.3463153555112797  1.0000
  O   O13       1.0  0.4581001215728832  0.8575130355648071  0.10552213704482945  1.0000
  O   O14       1.0  0.9581025180301666  0.14248815172931018  0.39447945208138446  1.0000
  O   O15       1.0  0.5419009386268312  0.14249022619107174  0.894474467623013  1.0000
  O   O16       1.0  0.041909031706303786  0.8575088851049057  0.6055206043219173  1.0000
  O   O17       1.0  0.6388257291090511  0.12534503997357405  0.1970401698086235  1.0000
  O   O18       1.0  0.13882240343816923  0.874654372107969  0.3029554951795604  1.0000
  O   O19       1.0  0.36118057589115427  0.8746530035821461  0.8029616588979921  1.0000
  O   O20       1.0  0.8611917686415606  0.1253458079649405  0.6970404877825871  1.0000
