data_image0
_chemical_formula_structural       Cd2H24C18S2N12O12
_chemical_formula_sum              "Cd2 H24 C18 S2 N12 O12"
_cell_length_a       7.647360138380043
_cell_length_b       8.409182645245265
_cell_length_c       12.87072092436204
_cell_angle_alpha    72.36700246331708
_cell_angle_beta     86.1247615853617
_cell_angle_gamma    68.65609146445173

_space_group_name_H-M_alt    "P 1"
_space_group_IT_number       1

loop_
  _space_group_symop_operation_xyz
  'x, y, z'

loop_
  _atom_site_type_symbol
  _atom_site_label
  _atom_site_symmetry_multiplicity
  _atom_site_fract_x
  _atom_site_fract_y
  _atom_site_fract_z
  _atom_site_occupancy
  Cd  Cd1       1.0  0.18707302664341785  0.9532531216754807  0.678107050975555  1.0000
  Cd  Cd2       1.0  0.812923922375411  0.04675397725027611  0.3218891629369836  1.0000
  H   H1        1.0  0.042048473427172384  0.2416574743832314  0.008284878854425424  1.0000
  H   H2        1.0  0.9579620378801079  0.7583373817956841  0.9917132968693066  1.0000
  H   H3        1.0  0.1438147719914652  0.564389097127034  0.6398536775291034  1.0000
  H   H4        1.0  0.8561830781654007  0.4356153084114426  0.3601445755494693  1.0000
  H   H5        1.0  0.5906449421597061  0.8194915687389892  0.6627045292119433  1.0000
  H   H6        1.0  0.40934832081940425  0.1805142170027594  0.3372974668023261  1.0000
  H   H7        1.0  0.4809340579784944  0.7149849775028584  0.6281759938476768  1.0000
  H   H8        1.0  0.5190673351197505  0.28501667685664245  0.3718242418706268  1.0000
  H   H9        1.0  0.22131964737335608  0.18067709598407333  0.4936184446961675  1.0000
  H   H10       1.0  0.7786750338047383  0.8193392679565578  0.506382298195227  1.0000
  H   H11       1.0  0.34234679314197775  0.21415999055155052  0.5758757919488744  1.0000
  H   H12       1.0  0.6576505298394719  0.7858563155973857  0.4241248944162165  1.0000
  H   H13       1.0  0.2952612844641178  0.9750603400748262  0.18249363658435402  1.0000
  H   H14       1.0  0.7047482967211776  0.024937200628386304  0.817503279594895  1.0000
  H   H15       1.0  0.5487027656657091  0.67865494516181  0.21895933588145763  1.0000
  H   H16       1.0  0.4513016206861734  0.3213387176656965  0.7810392211195207  1.0000
  H   H17       1.0  0.655662509198244  0.5337525987043107  0.07079430897079672  1.0000
  H   H18       1.0  0.34434015694822745  0.46622383683676116  0.9292083167298202  1.0000
  H   H19       1.0  0.5077144000163187  0.6822631865394867  0.8833688668171931  1.0000
  H   H20       1.0  0.4922800762216823  0.31772138270592637  0.11663321178873785  1.0000
  H   H21       1.0  0.9705759216116047  0.3201372758696054  0.6976245328049018  1.0000
  H   H22       1.0  0.029429159347792166  0.6798616716258438  0.3023737874454183  1.0000
  H   H23       1.0  0.8073963264043654  0.35127678960478903  0.8015324176646458  1.0000
  H   H24       1.0  0.19261067276691082  0.6487168065680251  0.1984668624315731  1.0000
  C   C1        1.0  0.08664644118438496  0.5820585515718548  0.716872522576594  1.0000
  C   C2        1.0  0.9133505676237731  0.41794454503181555  0.28312599872661076  1.0000
  C   C3        1.0  0.25660549500572205  0.9921177692341276  0.01289919030474347  1.0000
  C   C4        1.0  0.7434009974500524  0.007873135858297107  0.9871044960852797  1.0000
  C   C5        1.0  0.340688382113818  0.9125831754880452  0.11791774094864138  1.0000
  C   C6        1.0  0.659315437733234  0.0874117985811509  0.8820829149554894  1.0000
  C   C7        1.0  0.48362635036102114  0.7454555505023495  0.13686116850779936  1.0000
  C   C8        1.0  0.5163684690342336  0.25454223715131263  0.8631422955384734  1.0000
  C   C9        1.0  0.5425265558492782  0.6637334583827011  0.053281289023942746  1.0000
  C   C10       1.0  0.4574664237619145  0.3362551066287126  0.9467216289406436  1.0000
  C   C11       1.0  0.45963496782909613  0.7441920139890784  0.9482052006699178  1.0000
  C   C12       1.0  0.5403640171588434  0.2558057490179309  0.0517927212361045  1.0000
  C   C13       1.0  0.3136743653228819  0.910751168639486  0.928587259574499  1.0000
  C   C14       1.0  0.6863181039299632  0.08924274538765792  0.0714123314164112  1.0000
  C   C15       1.0  0.08916058783361076  0.16849722446654888  0.8593015865301864  1.0000
  C   C16       1.0  0.9108505787517772  0.83149232701156  0.14069601805952195  1.0000
  C   C17       1.0  0.9538475456280934  0.3315426901615268  0.7805225563855486  1.0000
  C   C18       1.0  0.0461620953465313  0.6684508482195926  0.2194766671843594  1.0000
  S   S1        1.0  0.7284480442048177  0.10866548444635532  0.5832816486483664  1.0000
  S   S2        1.0  0.2715461864042651  0.8913522261879123  0.41671807466001803  1.0000
  N   N1        1.0  0.2060188321611278  0.025044493212007506  0.8337644234001685  1.0000
  N   N2        1.0  0.7939848867457608  0.9749479138585999  0.1662297240961976  1.0000
  N   N3        1.0  0.11350117398958297  0.15326104460444162  0.9661131660057832  1.0000
  N   N4        1.0  0.8865111975616742  0.8467284425258796  0.033887528806936  1.0000
  N   N5        1.0  0.9889272538801916  0.49037682833174057  0.7827465901648977  1.0000
  N   N6        1.0  0.011077407315561063  0.5096194546722757  0.2172537975146014  1.0000
  N   N7        1.0  0.0966947592963621  0.7011333761652807  0.7620636156381906  1.0000
  N   N8        1.0  0.9033005070250582  0.29887110489086405  0.23793313472361177  1.0000
  N   N9        1.0  0.003157722501853824  0.6805634564938003  0.8557375151579975  1.0000
  N   N10       1.0  0.9968381121458161  0.319435693272581  0.1442610029343996  1.0000
  N   N11       1.0  0.9375027986148151  0.5539211478066477  0.8692018245389972  1.0000
  N   N12       1.0  0.0625018915648923  0.4460751440603516  0.1307977835189646  1.0000
  O   O1        1.0  0.8694423512048386  0.11425531534015929  0.655099397952327  1.0000
  O   O2        1.0  0.13056282705187522  0.8857542392500123  0.34489769743827026  1.0000
  O   O3        1.0  0.539589025951649  0.22367350978313993  0.6044497707938206  1.0000
  O   O4        1.0  0.4604062320767426  0.776352123421553  0.3955499871993311  1.0000
  O   O5        1.0  0.7396784935202302  0.9182402528758971  0.6074654833669014  1.0000
  O   O6        1.0  0.2603050829235869  0.08177766233620079  0.3925368049113374  1.0000
  O   O7        1.0  0.7716400762277047  0.17526822486532012  0.4662718232238632  1.0000
  O   O8        1.0  0.22835336065512005  0.8247376140543496  0.5337254950611622  1.0000
  O   O9        1.0  0.5069418671920616  0.7486640923578206  0.6904640645683243  1.0000
  O   O10       1.0  0.49305328319354647  0.2513403532463841  0.3095358042796406  1.0000
  O   O11       1.0  0.21467275266480354  0.21236961774169325  0.5628556476552475  1.0000
  O   O12       1.0  0.7853246011220207  0.7876426772221592  0.4371481257220465  1.0000
