data_image0
_chemical_formula_structural       Co2H24C16O12
_chemical_formula_sum              "Co2 H24 C16 O12"
_cell_length_a       7.112022291939028
_cell_length_b       8.11785803558605
_cell_length_c       10.454779989390431
_cell_angle_alpha    108.40458353700083
_cell_angle_beta     109.88903529643572
_cell_angle_gamma    89.99670999364643

_space_group_name_H-M_alt    "P 1"
_space_group_IT_number       1

loop_
  _space_group_symop_operation_xyz
  'x, y, z'

loop_
  _atom_site_type_symbol
  _atom_site_label
  _atom_site_symmetry_multiplicity
  _atom_site_fract_x
  _atom_site_fract_y
  _atom_site_fract_z
  _atom_site_occupancy
  Co  Co1       1.0  0.5000004690103451  0.9999996729112084  0.5000004274266772  1.0000
  Co  Co2       1.0  6.117875841100684e-07  0.4999997643776409  0.4999995995413827  1.0000
  H   H1        1.0  0.26749632041313015  0.9797026059630267  0.19786732452991626  1.0000
  H   H2        1.0  0.0685780967326224  0.5212577017097928  0.8019754223508856  1.0000
  H   H3        1.0  0.7325074289702581  0.020295863310977297  0.8021353213409981  1.0000
  H   H4        1.0  0.9314187095766467  0.47874472101172927  0.19802375442619538  1.0000
  H   H5        1.0  0.8848447808352301  0.14217713943396146  0.0721428172243321  1.0000
  H   H6        1.0  0.8132436417744415  0.35693512502985664  0.9276096510344304  1.0000
  H   H7        1.0  0.11516043682070178  0.8578213527899975  0.9278563433324081  1.0000
  H   H8        1.0  0.1867531645348208  0.6430672976916723  0.07238952574265063  1.0000
  H   H9        1.0  0.718559872707864  0.14956331051035215  0.41707994466103326  1.0000
  H   H10       1.0  0.3014942956696202  0.3501795693140224  0.5821385064425187  1.0000
  H   H11       1.0  0.28143825800710687  0.8504377896010309  0.5829211179008028  1.0000
  H   H12       1.0  0.6985034473758772  0.6498189342282144  0.4178589512134964  1.0000
  H   H13       1.0  0.7352189575316996  0.9509744712110971  0.1884287491081055  1.0000
  H   H14       1.0  0.5458966773880646  0.5480374278763448  0.8111940612495374  1.0000
  H   H15       1.0  0.2647834807707595  0.049025308066241294  0.8115739239252094  1.0000
  H   H16       1.0  0.4541025539171315  0.45196107970564725  0.1888027805130434  1.0000
  H   H17       1.0  0.8633749466831585  0.8872698641738951  0.3425180076262323  1.0000
  H   H18       1.0  0.5210535215365651  0.6125491732837317  0.6576873272088904  1.0000
  H   H19       1.0  0.1366263710419133  0.11273252654305567  0.6574860167856046  1.0000
  H   H20       1.0  0.4789440243430007  0.38744803512564363  0.3423078497574111  1.0000
  H   H21       1.0  0.6154410145382343  0.785901317705779  0.2250675819275543  1.0000
  H   H22       1.0  0.38979921611957014  0.7136389818138155  0.7744345587287571  1.0000
  H   H23       1.0  0.3845629186863063  0.21409845930790536  0.7749354316859042  1.0000
  H   H24       1.0  0.6102000151856259  0.28635952576816953  0.2255622830338241  1.0000
  C   C1        1.0  0.15167623507811354  0.18241591466190946  0.33584673058054193  1.0000
  C   C2        1.0  0.8163151218530229  0.3172351290402131  0.6640883804012035  1.0000
  C   C3        1.0  0.8483263737407255  0.8175851849619064  0.6641543972481543  1.0000
  C   C4        1.0  0.18368281169601627  0.6827646759383014  0.33591040147093315  1.0000
  C   C5        1.0  0.14750589856975435  0.06315477864669107  0.1954049626921872  1.0000
  C   C6        1.0  0.9518875843457193  0.43706173959259326  0.8045516161650995  1.0000
  C   C7        1.0  0.8524967169114741  0.9368463146737298  0.8045971216100938  1.0000
  C   C8        1.0  0.04810922196354991  0.5629406831289357  0.19544756061198149  1.0000
  C   C9        1.0  0.003230888622162801  0.056738345901429496  0.06913003311375121  1.0000
  C   C10       1.0  0.9342378918866526  0.443072609652958  0.9308536186229263  1.0000
  C   C11       1.0  0.9967743423585416  0.9432601337157251  0.9308710403901514  1.0000
  C   C12       1.0  0.065757235659369  0.556928507592545  0.06914484983146008  1.0000
  C   C13       1.0  0.716268991098765  0.9090016589103057  0.27400537927204033  1.0000
  C   C14       1.0  0.4419328398840179  0.590589845511559  0.7257789734852339  1.0000
  C   C15       1.0  0.28373344054131167  0.09099812667043487  0.7259963372876969  1.0000
  C   C16       1.0  0.5580663914211781  0.4094086620704259  0.2742178682773471  1.0000
  O   O1        1.0  0.2925315170059902  0.17949648737609888  0.45213042628294886  1.0000
  O   O2        1.0  0.8410447869386316  0.32008535347606676  0.5478441750300932  1.0000
  O   O3        1.0  0.7074677476111404  0.820501988688875  0.5478711978475276  1.0000
  O   O4        1.0  0.15895314661040766  0.6799144515024478  0.4521546068420435  1.0000
  O   O5        1.0  0.018400152761088907  0.2871670616881303  0.3377750215326928  1.0000
  O   O6        1.0  0.681170027049113  0.21227216559926623  0.6620208623973342  1.0000
  O   O7        1.0  0.9816024427329848  0.712834050542497  0.6622241933488483  1.0000
  O   O8        1.0  0.31882940808440446  0.787727630812192  0.33797921652853097  1.0000
  O   O9        1.0  0.6248742479594467  0.03651830616342269  0.3564265221346901  1.0000
  O   O10       1.0  0.26822431253604856  0.4632120904681187  0.6427464046146626  1.0000
  O   O11       1.0  0.3751266820961519  0.9634814879843814  0.6435738973713186  1.0000
  O   O12       1.0  0.7317734371718315  0.5367864067707231  0.35725200951493014  1.0000
