data_image0
_chemical_formula_structural       Cu4H28C40N12O16
_chemical_formula_sum              "Cu4 H28 C40 N12 O16"
_cell_length_a       5.278701100313682
_cell_length_b       11.895620738573706
_cell_length_c       16.419905321226093
_cell_angle_alpha    89.99960745264133
_cell_angle_beta     89.99905943051124
_cell_angle_gamma    89.99728448045771

_space_group_name_H-M_alt    "P 1"
_space_group_IT_number       1

loop_
  _space_group_symop_operation_xyz
  'x, y, z'

loop_
  _atom_site_type_symbol
  _atom_site_label
  _atom_site_symmetry_multiplicity
  _atom_site_fract_x
  _atom_site_fract_y
  _atom_site_fract_z
  _atom_site_occupancy
  Cu  Cu1       1.0  0.2945242257765912  0.9345946645047647  0.45239725291010313  1.0000
  Cu  Cu2       1.0  0.2055675334398046  0.06538470294341178  0.9523926748024041  1.0000
  Cu  Cu3       1.0  0.7945407007964744  0.5654210846995368  0.5476003663214044  1.0000
  Cu  Cu4       1.0  0.7054381160393248  0.4345747545761112  0.04758607588635751  1.0000
  H   H1        1.0  0.3887877954362722  0.563652584173056  0.3220860648440792  1.0000
  H   H2        1.0  0.1111328494942185  0.4363517524874325  0.8221402353689132  1.0000
  H   H3        1.0  0.8888329983323686  0.9363682405386553  0.6778720056594951  1.0000
  H   H4        1.0  0.6112316680300722  0.06364634273658251  0.17791703889333385  1.0000
  H   H5        1.0  0.7695622259290006  0.6193780977996823  0.23701568608858997  1.0000
  H   H6        1.0  0.7303946077012428  0.38063461334423465  0.7370767180246108  1.0000
  H   H7        1.0  0.2696021794965234  0.8806435280148434  0.7629392207096617  1.0000
  H   H8        1.0  0.2304281935048635  0.1193677246927436  0.2629788478550665  1.0000
  H   H9        1.0  0.9260522848362527  0.8191456904359029  0.24466893639142037  1.0000
  H   H10       1.0  0.5739851747253581  0.1808517560464367  0.7446842156285458  1.0000
  H   H11       1.0  0.4260299953470082  0.680855811338752  0.7553404032746515  1.0000
  H   H12       1.0  0.07391975292968311  0.31913035495626474  0.25532727068635813  1.0000
  H   H13       1.0  0.4523473244705372  0.05911738468447679  0.606526217586293  1.0000
  H   H14       1.0  0.04771532649183999  0.9408781014911015  0.10654473584111915  1.0000
  H   H15       1.0  0.9523138526268369  0.44089259346728943  0.39345442429587524  1.0000
  H   H16       1.0  0.5476618647230966  0.5590930115303863  0.8934582995590721  1.0000
  H   H17       1.0  0.19813536924254294  0.2481015171224712  0.6637561534850394  1.0000
  H   H18       1.0  0.3019267001911743  0.7519047401700973  0.16377039343519337  1.0000
  H   H19       1.0  0.6980635989989848  0.2519369586200924  0.3362222116455699  1.0000
  H   H20       1.0  0.801853975607564  0.748076545129578  0.8362136015807241  1.0000
  H   H21       1.0  0.7716020677846986  0.2568754296458664  0.5673040207518838  1.0000
  H   H22       1.0  0.7284178510952231  0.7431049343542853  0.06729860614707663  1.0000
  H   H23       1.0  0.2715534988354662  0.24317315801524583  0.43269887732083145  1.0000
  H   H24       1.0  0.22840243397255483  0.7568494259622867  0.9326785173249237  1.0000
  H   H25       1.0  0.8036158656371839  0.09031919638010777  0.4693780437759259  1.0000
  H   H26       1.0  0.6964445597555056  0.9096457498839782  0.9693784330999764  1.0000
  H   H27       1.0  0.303633120051451  0.409721836087556  0.530627132143991  1.0000
  H   H28       1.0  0.196335346401753  0.5902892648036938  0.030616511474299613  1.0000
  C   C1        1.0  0.1278154142589827  0.7134008399290438  0.42843548987428204  1.0000
  C   C2        1.0  0.3721487782874888  0.2865915548587878  0.9284491641487593  1.0000
  C   C3        1.0  0.627847419467315  0.7866089694747201  0.5715571025300366  1.0000
  C   C4        1.0  0.8721926480602207  0.21338392988828048  0.07156993461756403  1.0000
  C   C5        1.0  0.34653641707348737  0.7299309911720254  0.37079772765790864  1.0000
  C   C6        1.0  0.15345891527767463  0.2700783810214702  0.8708036796727756  1.0000
  C   C7        1.0  0.8465275789340507  0.7700780501079545  0.6292019904268998  1.0000
  C   C8        1.0  0.6534927146197163  0.2299188880364795  0.12920281254869792  1.0000
  C   C9        1.0  0.4618553341814717  0.6491613765474183  0.32190766548890093  1.0000
  C   C10       1.0  0.0380767907096953  0.3508631389362264  0.8219367814109122  1.0000
  C   C11       1.0  0.9618998880486489  0.8508712413013056  0.6780676083459981  1.0000
  C   C12       1.0  0.5381002603882621  0.14913997625901487  0.17807953647298555  1.0000
  C   C13       1.0  0.6715862929402051  0.6806549221031943  0.2750565710083138  1.0000
  C   C14       1.0  0.8284422160103944  0.31936721370102816  0.7750892580244015  1.0000
  C   C15       1.0  0.1715696569045733  0.8193759180591728  0.7249242920941018  1.0000
  C   C16       1.0  0.3283454686657877  0.1806469261607972  0.22493547827323115  1.0000
  C   C17       1.0  0.7605686517199642  0.7912888962431593  0.2787202550709012  1.0000
  C   C18       1.0  0.7394860589042338  0.20870795640178838  0.7787429128613612  1.0000
  C   C19       1.0  0.2605231163157243  0.7087167539827632  0.7212719402171931  1.0000
  C   C20       1.0  0.23938854807580157  0.2912742095489094  0.22126561972935127  1.0000
  C   C21       1.0  0.6380413630059109  0.8671861087029455  0.3298659300688415  1.0000
  C   C22       1.0  0.8620088814257727  0.13280648965905328  0.8298700569366846  1.0000
  C   C23       1.0  0.13797874548115627  0.6328110941848095  0.6701509440508675  1.0000
  C   C24       1.0  0.3619771576236914  0.36717067297924183  0.17015155691175476  1.0000
  C   C25       1.0  0.721937375928924  0.9850562211368441  0.3492774382489614  1.0000
  C   C26       1.0  0.7781522534263703  0.014941923253360296  0.8492821599388025  1.0000
  C   C27       1.0  0.22185506068336025  0.5149468939658205  0.6507559845656206  1.0000
  C   C28       1.0  0.2780633504376837  0.48503437101676633  0.15072595034668276  1.0000
  C   C29       1.0  0.2761885334518012  0.09692724179117816  0.5865915378725506  1.0000
  C   C30       1.0  0.22384263013487532  0.9030837237660522  0.08659246104038944  1.0000
  C   C31       1.0  0.7761719560293727  0.4030894029673319  0.4134000285635438  1.0000
  C   C32       1.0  0.7238087249709863  0.5969151891574711  0.9133941679498039  1.0000
  C   C33       1.0  0.14362374983544163  0.19063792248557124  0.6157374267367646  1.0000
  C   C34       1.0  0.35637838700598934  0.8093700129391266  0.11573314408055783  1.0000
  C   C35       1.0  0.6435616571631115  0.30939465060945537  0.38424540816698294  1.0000
  C   C36       1.0  0.8563931202243253  0.6906213783327002  0.8842348092474384  1.0000
  C   C37       1.0  0.9281261365981948  0.1979033347637653  0.5671406392320648  1.0000
  C   C38       1.0  0.5718881992099584  0.8020946857272905  0.06712520116195013  1.0000
  C   C39       1.0  0.4280799311982904  0.30214782689728986  0.43284909427567453  1.0000
  C   C40       1.0  0.07187780365279652  0.6978722324784667  0.9328340269082036  1.0000
  N   N1        1.0  0.1501323624463566  0.05022907134288349  0.5236829167032155  1.0000
  N   N2        1.0  0.34993881870124  0.9497821505837792  0.02368062512921651  1.0000
  N   N3        1.0  0.6501509617068635  0.44978164701763035  0.47631426663391363  1.0000
  N   N4        1.0  0.8498370599180094  0.5502168041527753  0.9763089144320678  1.0000
  N   N5        1.0  0.4354801238463466  0.8350856535122732  0.3726769932638235  1.0000
  N   N6        1.0  0.0645652162475869  0.16493293297998687  0.8726875308697545  1.0000
  N   N7        1.0  0.9354495988775537  0.664921736010399  0.6273206568005422  1.0000
  N   N8        1.0  0.5645093139979735  0.33508868514500284  0.12733442743940773  1.0000
  N   N9        1.0  0.9392321484465144  0.11300870379812268  0.5126985031021933  1.0000
  N   N10       1.0  0.5608000206559254  0.8869936285482678  0.012691557197719305  1.0000
  N   N11       1.0  0.4392218149636022  0.3870315330786624  0.4873009449412749  1.0000
  N   N12       1.0  0.0607521773952229  0.612980851610551  0.9872871900374492  1.0000
  O   O1        1.0  0.5833107840285905  0.0353911099360502  0.40428303711921393  1.0000
  O   O2        1.0  0.9167284617915287  0.9646018720077622  0.9042924199762583  1.0000
  O   O3        1.0  0.0833279161465086  0.46460865770535514  0.5957313730356972  1.0000
  O   O4        1.0  0.4166958153937231  0.5354013078544426  0.09572922323804531  1.0000
  O   O5        1.0  0.0394563728649899  0.6168147744448972  0.43834619461622293  1.0000
  O   O6        1.0  0.46055864622538684  0.383171563000282  0.9383613522281282  1.0000
  O   O7        1.0  0.539428126609991  0.8831840772829482  0.561640576906406  1.0000
  O   O8        1.0  0.9605743775856226  0.11680311041979512  0.06165991366825811  1.0000
  O   O9        1.0  0.04712555893671319  0.8035975778677199  0.4636814261424505  1.0000
  O   O10       1.0  0.4529271506794074  0.19640344946507327  0.9636908476726023  1.0000
  O   O11       1.0  0.5470884650673113  0.6964273363737306  0.536310007629858  1.0000
  O   O12       1.0  0.9529028677587519  0.30357542470493826  0.036323320585331914  1.0000
  O   O13       1.0  0.9134534957289092  0.026430644699864603  0.31700306956079066  1.0000
  O   O14       1.0  0.5866973751322889  0.9735369587004996  0.8169970833721509  1.0000
  O   O15       1.0  0.4132604570863948  0.4735213152679876  0.683058978115952  1.0000
  O   O16       1.0  0.0865398859343358  0.5264181951185306  0.18298970880226761  1.0000
