data_image0
_chemical_formula_structural       Ag4H24C34O22
_chemical_formula_sum              "Ag4 H24 C34 O22"
_cell_length_a       8.543717773009798
_cell_length_b       9.781248080163708
_cell_length_c       11.463213401002237
_cell_angle_alpha    67.14886991672671
_cell_angle_beta     82.45873791235776
_cell_angle_gamma    71.77534621057946

_space_group_name_H-M_alt    "P 1"
_space_group_IT_number       1

loop_
  _space_group_symop_operation_xyz
  'x, y, z'

loop_
  _atom_site_type_symbol
  _atom_site_label
  _atom_site_symmetry_multiplicity
  _atom_site_fract_x
  _atom_site_fract_y
  _atom_site_fract_z
  _atom_site_occupancy
  Ag  Ag1       1.0  0.0761090288099453  0.11027384808149071  0.9177491055881006  1.0000
  Ag  Ag2       1.0  0.9238919900468683  0.8897255030962941  0.08225056122311258  1.0000
  Ag  Ag3       1.0  0.38835499323520395  0.9457430568734607  0.09017351567659662  1.0000
  Ag  Ag4       1.0  0.6116472137863056  0.05425628746465351  0.9098269055002605  1.0000
  H   H1        1.0  0.12621520156582017  0.3058022831774282  0.027358337718403885  1.0000
  H   H2        1.0  0.873785470223062  0.694198217010836  0.9726418613773264  1.0000
  H   H3        1.0  0.29125389763034093  0.5936382146732555  0.9634718184230949  1.0000
  H   H4        1.0  0.7087471293864667  0.4063611275543764  0.036528722876106166  1.0000
  H   H5        1.0  0.6148208468785725  0.7848707052624065  0.6662419119963163  1.0000
  H   H6        1.0  0.38517781196883055  0.21512864169440596  0.3337579950595853  1.0000
  H   H7        1.0  0.4432972930644254  0.4162361168792685  0.6637042921911487  1.0000
  H   H8        1.0  0.556700655327134  0.5837655459988086  0.3362949304578038  1.0000
  H   H9        1.0  0.708027421597734  0.7867268573672704  0.48694759709155033  1.0000
  H   H10       1.0  0.2919686363332801  0.2132771193215817  0.5130510612727974  1.0000
  H   H11       1.0  0.8010087753292866  0.6432175942725707  0.415978437162714  1.0000
  H   H12       1.0  0.19898880967434712  0.3567852355162913  0.5840195687947798  1.0000
  H   H13       1.0  0.09052179528371343  0.6848387890248019  0.42168875349304363  1.0000
  H   H14       1.0  0.9094788683451754  0.3151617201136077  0.5783105711146987  1.0000
  H   H15       1.0  0.423163421930461  0.9989906808189346  0.3159498549040266  1.0000
  H   H16       1.0  0.5768360698537265  0.0010098172588470968  0.6840504643140408  1.0000
  H   H17       1.0  0.22502355689069733  0.9438508087241287  0.6021797460371091  1.0000
  H   H18       1.0  0.7749774701261174  0.05614853350350298  0.397820795262092  1.0000
  H   H19       1.0  0.8695928769950431  0.6923833393182476  0.7800692238923048  1.0000
  H   H20       1.0  0.1304077947938396  0.30761716087001634  0.21993097520342536  1.0000
  H   H21       1.0  0.7432529405899686  0.32318169787095036  0.8870385787902393  1.0000
  H   H22       1.0  0.25674807826684537  0.6768176533068343  0.11296108802097389  1.0000
  H   H23       1.0  0.8312187341825281  0.42134715061942524  0.7683776024864457  1.0000
  H   H24       1.0  0.16877839759224866  0.5786533432373913  0.23162295697630955  1.0000
  C   C1        1.0  0.2576759294121231  0.3833819097352134  0.8768148759817935  1.0000
  C   C2        1.0  0.7423262776093865  0.616617434602901  0.12318554519506358  1.0000
  C   C3        1.0  0.3546815976550804  0.4964955682821992  0.8183091601836879  1.0000
  C   C4        1.0  0.6453194212017338  0.503503782895585  0.18169050662752553  1.0000
  C   C5        1.0  0.3602896567730554  0.5971466580550029  0.8762337378629823  1.0000
  C   C6        1.0  0.6397105454669756  0.40285152410151426  0.1237672657620337  1.0000
  C   C7        1.0  0.45317474959062315  0.7016164633611198  0.8207725074780471  1.0000
  C   C8        1.0  0.5468262774261845  0.29838287886651216  0.17922803382115401  1.0000
  C   C9        1.0  0.4588079800714695  0.8091904008328895  0.8827289027102126  1.0000
  C   C10       1.0  0.5411930469453382  0.19080894139474214  0.11727163858898851  1.0000
  C   C11       1.0  0.5426716633495231  0.7034220486570462  0.7086072173584554  1.0000
  C   C12       1.0  0.45733090705991225  0.29657612877029044  0.2913944205098673  1.0000
  C   C13       1.0  0.5387308101746838  0.5999625599762411  0.6534087498980127  1.0000
  C   C14       1.0  0.4612674771247995  0.40003796284150883  0.346589065978435  1.0000
  C   C15       1.0  0.4441013512361495  0.4969029796218649  0.707246874493201  1.0000
  C   C16       1.0  0.5558969442233348  0.5030975342457324  0.2927518158712346  1.0000
  C   C17       1.0  0.7518623858589423  0.6619793193151082  0.5037415284827418  1.0000
  C   C18       1.0  0.2481348520767738  0.33802465948423344  0.4962570097592618  1.0000
  C   C19       1.0  0.9707884180392911  0.6793314836947388  0.6014115888116223  1.0000
  C   C20       1.0  0.029214499438069225  0.32066554472211095  0.39858951677218374  1.0000
  C   C21       1.0  0.07858996188504361  0.7222841229678494  0.5010911545910304  1.0000
  C   C22       1.0  0.921411065131764  0.27771521925978243  0.49890938670817064  1.0000
  C   C23       1.0  0.17242076665080927  0.8161639647421807  0.5025251211617673  1.0000
  C   C24       1.0  0.8275787251333783  0.18383653333560088  0.49747519805630713  1.0000
  C   C25       1.0  0.28319381307161945  0.863614645249811  0.39302386388042987  1.0000
  C   C26       1.0  0.7168056787125607  0.1363858528279707  0.6069764553376373  1.0000
  C   C27       1.0  0.15544490749561388  0.8681169347731269  0.6021071444344201  1.0000
  C   C28       1.0  0.8445557724532762  0.1318835564649774  0.39789392914929783  1.0000
  C   C29       1.0  0.04696086512011281  0.8243744331405695  0.7026064665023954  1.0000
  C   C30       1.0  0.953040161896702  0.1756249090870625  0.29739407479680585  1.0000
  C   C31       1.0  0.028235016704719836  0.8875828643853652  0.8054046883331054  1.0000
  C   C32       1.0  0.9717660103120878  0.11241647784226672  0.19459585296609563  1.0000
  C   C33       1.0  0.9550004938264394  0.7280650375010254  0.7030021505066202  1.0000
  C   C34       1.0  0.04500052503037471  0.271934313676752  0.296997516304593  1.0000
  O   O1        1.0  0.18307770454634215  0.39068934680785355  0.9840931058426181  1.0000
  O   O2        1.0  0.8169236613783896  0.6093088553594441  0.01590602868407842  1.0000
  O   O3        1.0  0.25134776727135494  0.29092194424512735  0.8289177957192424  1.0000
  O   O4        1.0  0.7486566854386325  0.7090739283215797  0.17108353194569048  1.0000
  O   O5        1.0  0.3983835186923202  0.7865003850508214  0.9937565453784601  1.0000
  O   O6        1.0  0.601616320159792  0.21349896401648039  0.006243241555097319  1.0000
  O   O7        1.0  0.5272529092562692  0.917176100331659  0.8226914435973142  1.0000
  O   O8        1.0  0.4727465825279183  0.0828243977461227  0.17730887562075281  1.0000
  O   O9        1.0  0.6257876248494443  0.5898912071476659  0.5448482905102737  1.0000
  O   O10       1.0  0.37420996015418956  0.41011162264119594  0.4551497154472204  1.0000
  O   O11       1.0  0.8756535877963929  0.5865942070692256  0.60152051784344  1.0000
  O   O12       1.0  0.12434471582309213  0.4134062978482261  0.3984790470089834  1.0000
  O   O13       1.0  0.3701975440938557  0.951005391634602  0.4019230621326388  1.0000
  O   O14       1.0  0.6298022947582496  0.048993957432692505  0.5980767248009187  1.0000
  O   O15       1.0  0.28979673510949777  0.8253786114915654  0.3009161759119364  1.0000
  O   O16       1.0  0.71020429190731  0.17462073073606632  0.6990843653872646  1.0000
  O   O17       1.0  0.9334933352736529  0.8418840009119322  0.9001660991021653  1.0000
  O   O18       1.0  0.06650733651523673  0.15811649927633195  0.09983409999356502  1.0000
  O   O19       1.0  0.10541835408448458  0.9844455110327176  0.7903895812853464  1.0000
  O   O20       1.0  0.8945811295397023  0.0155549959952097  0.209609863444733  1.0000
  O   O21       1.0  0.8451407997996084  0.35305396202204514  0.857401387529123  1.0000
  O   O22       1.0  0.15485868382457824  0.6469465450058891  0.14259805720096355  1.0000
