data_image0
_chemical_formula_structural       Cu2Mo4H20C28N4O17
_chemical_formula_sum              "Cu2 Mo4 H20 C28 N4 O17"
_cell_length_a       7.433618779321002
_cell_length_b       9.943309279489869
_cell_length_c       12.021585537217584
_cell_angle_alpha    68.95518961731324
_cell_angle_beta     76.69241921149573
_cell_angle_gamma    76.52109961314967

_space_group_name_H-M_alt    "P 1"
_space_group_IT_number       1

loop_
  _space_group_symop_operation_xyz
  'x, y, z'

loop_
  _atom_site_type_symbol
  _atom_site_label
  _atom_site_symmetry_multiplicity
  _atom_site_fract_x
  _atom_site_fract_y
  _atom_site_fract_z
  _atom_site_occupancy
  Cu  Cu1       1.0  0.3967846014017057  0.7020797923813548  0.29955867556158466  1.0000
  Cu  Cu2       1.0  0.6032190141922767  0.2979169078149084  0.7004417173044503  1.0000
  Mo  Mo1       1.0  0.023547506080795675  0.9592587863770278  0.1427543435106599  1.0000
  Mo  Mo2       1.0  0.9764503582551568  0.0407455589968251  0.8572462881698258  1.0000
  Mo  Mo3       1.0  0.41597689517892883  0.9846542747792315  0.8675300193622704  1.0000
  Mo  Mo4       1.0  0.5840248820559993  0.0153446084201434  0.13247082681731112  1.0000
  H   H1        1.0  0.2642265506658674  0.9250099458076942  0.43101327422557034  1.0000
  H   H2        1.0  0.7357750014576326  0.0749900265460681  0.5689881149910221  1.0000
  H   H3        1.0  0.3373660863221558  0.5209113978956592  0.9642352155264292  1.0000
  H   H4        1.0  0.6626491054477412  0.4790896271899996  0.035770548086972574  1.0000
  H   H5        1.0  0.16220916807336036  0.2887044485049445  0.6494138911452724  1.0000
  H   H6        1.0  0.8377854378344266  0.7112955508274084  0.35058350218740497  1.0000
  H   H7        1.0  0.901630864900163  0.3191759331631657  0.937205971079564  1.0000
  H   H8        1.0  0.09838732825356546  0.6808239933794341  0.06280051501774862  1.0000
  H   H9        1.0  0.03402358146256288  0.47436566719435563  0.705382140781701  1.0000
  H   H10       1.0  0.9659726376928501  0.5256332382892734  0.29461534227443315  1.0000
  H   H11       1.0  0.4556133146146167  0.1632518001890091  0.3378634868163246  1.0000
  H   H12       1.0  0.544368578490669  0.8367493270397688  0.6621295867908189  1.0000
  H   H13       1.0  0.49967257399751475  0.42268790988506305  0.23167409119074733  1.0000
  H   H14       1.0  0.5003194862840203  0.5773110061746249  0.768322325665608  1.0000
  H   H15       1.0  0.28798168791275447  0.09504474373308369  0.5568191362731981  1.0000
  H   H16       1.0  0.7120057577373301  0.9049563647183804  0.443176468375789  1.0000
  H   H17       1.0  0.06448986462483926  0.9259317106230113  0.6335108417427051  1.0000
  H   H18       1.0  0.9355096086994265  0.0740649896284893  0.36649098116836143  1.0000
  H   H19       1.0  0.9454221753275077  0.6989006459621263  0.7697550438694237  1.0000
  H   H20       1.0  0.054571284159663905  0.3010982583893593  0.2302436699105996  1.0000
  C   C1        1.0  0.13459654623846976  0.41048448521837594  0.9438576419893893  1.0000
  C   C2        1.0  0.8654154024320205  0.5895187380855302  0.05614544593228741  1.0000
  C   C3        1.0  0.21104983727163076  0.8284542857371376  0.49656345666689833  1.0000
  C   C4        1.0  0.7889505628965382  0.17154459514268436  0.5034384209154369  1.0000
  C   C5        1.0  0.2007451021743449  0.5822968411759816  0.5375673270424386  1.0000
  C   C6        1.0  0.7992555009663747  0.41770096457720735  0.4624306791764639  1.0000
  C   C7        1.0  0.2745963958212556  0.31575519081577136  0.8811610843936464  1.0000
  C   C8        1.0  0.7254157903055043  0.684240381539304  0.11884505824296107  1.0000
  C   C9        1.0  0.18960951460562112  0.5124299978348148  0.9794380737624664  1.0000
  C   C10       1.0  0.8104040583819343  0.48757212460649413  0.020566768045874387  1.0000
  C   C11       1.0  0.2374695269013642  0.31567374024162115  0.5571947960532456  1.0000
  C   C12       1.0  0.7625248483602788  0.68432735175206  0.4428023082348388  1.0000
  C   C13       1.0  0.2661261461372177  0.4584749340138855  0.4908433834481017  1.0000
  C   C14       1.0  0.7338705343104903  0.5415217861471006  0.5091546776972252  1.0000
  C   C15       1.0  0.9442577243496827  0.3984408965131223  0.9648315344704415  1.0000
  C   C16       1.0  0.05575769253164963  0.6015590394181485  0.03517368610594929  1.0000
  C   C17       1.0  0.0853076961774519  0.575364563913574  0.6484771419919114  1.0000
  C   C18       1.0  0.9146901362255802  0.4246332477213385  0.351520430787673  1.0000
  C   C19       1.0  0.401040694440205  0.24306995184855398  0.3850829027869764  1.0000
  C   C20       1.0  0.5989462788481462  0.7569333489394338  0.6149104596095968  1.0000
  C   C21       1.0  0.42595336534720474  0.3877071772134356  0.3240002662234431  1.0000
  C   C22       1.0  0.5740366369985708  0.6122950074968118  0.6759979790650804  1.0000
  C   C23       1.0  0.30719238131980126  0.20677989695448667  0.5036222007292324  1.0000
  C   C24       1.0  0.6927980657141078  0.7932201129539179  0.4963741264036656  1.0000
  C   C25       1.0  0.0997627375415888  0.8280722099592878  0.6069986298768058  1.0000
  C   C26       1.0  0.9002348752847382  0.17192668732307936  0.393000318021393  1.0000
  C   C27       1.0  0.034923176022907454  0.6998416897417454  0.6838763892312302  1.0000
  C   C28       1.0  0.9650732848480885  0.3001561160666809  0.3161230470327113  1.0000
  N   N1        1.0  0.26049291430601335  0.7081958751244243  0.4634511731441222  1.0000
  N   N2        1.0  0.739506086656519  0.2918030174636074  0.5365484075145375  1.0000
  N   N3        1.0  0.36174665802415257  0.49197550488794656  0.37624340016417795  1.0000
  N   N4        1.0  0.6382490998389657  0.5080255859183394  0.6237535048027639  1.0000
  O   O1        1.0  0.16198246292014326  0.9393096068692443  0.9885534508198932  1.0000
  O   O2        1.0  0.8380223144232062  0.060694732567647174  0.011446184254872083  1.0000
  O   O3        1.0  0.7782536315353357  0.9873066760693869  0.23040669751176776  1.0000
  O   O4        1.0  0.22174700353829732  0.012697663422741798  0.7695943676080361  1.0000
  O   O5        1.0  0.43829250364588296  0.3510599174243226  0.8376827253590734  1.0000
  O   O6        1.0  0.5617203676091905  0.6489389352342767  0.1623215187409954  1.0000
  O   O7        1.0  0.5550614743607767  0.10003268282402897  0.7459711452106249  1.0000
  O   O8        1.0  0.4449386785570796  0.8999673012379362  0.2540279470822995  1.0000
  O   O9        1.0  0.5160295622545731  0.8111044899929922  0.8695953663694524  1.0000
  O   O10       1.0  0.4839655326191021  0.1888933064820222  0.13040676546044952  1.0000
  O   O11       1.0  0.22219003483036198  0.20878009563431016  0.8712981999465725  1.0000
  O   O12       1.0  0.777809706607691  0.7912220421878685  0.1287078029915988  1.0000
  O   O13       1.0  0.12056305872970803  0.08636773154263722  0.1629914473056715  1.0000
  O   O14       1.0  0.8794407917697383  0.9136344272659328  0.8370081330978324  1.0000
  O   O15       1.0  0.11842019363502501  0.7870715559878076  0.23386805896227975  1.0000
  O   O16       1.0  0.881586180351789  0.21293170012117457  0.7661291695911318  1.0000
  O   O17       1.0  0.4999976382516493  7.143649086001075e-07  2.4406971092956016e-06  1.0000
