data_image0
_chemical_formula_structural       Co4H28C12Cl8O6
_chemical_formula_sum              "Co4 H28 C12 Cl8 O6"
_cell_length_a       7.579451585142889
_cell_length_b       7.579649212979803
_cell_length_c       12.316662586374191
_cell_angle_alpha    103.29429696205949
_cell_angle_beta     103.31724039268548
_cell_angle_gamma    97.6474903998373

_space_group_name_H-M_alt    "P 1"
_space_group_IT_number       1

loop_
  _space_group_symop_operation_xyz
  'x, y, z'

loop_
  _atom_site_type_symbol
  _atom_site_label
  _atom_site_symmetry_multiplicity
  _atom_site_fract_x
  _atom_site_fract_y
  _atom_site_fract_z
  _atom_site_occupancy
  Co  Co1       1.0  0.965385007302814  0.9653506172796895  0.611959956653088  1.0000
  Co  Co2       1.0  0.034775710469389806  0.0346718513041111  0.3881183086664706  1.0000
  Co  Co3       1.0  0.37345326109347354  0.3734588322112203  0.8655331857819989  1.0000
  Co  Co4       1.0  0.6267354974923265  0.6265830389607745  0.13452334011969208  1.0000
  H   H1        1.0  0.007134800398063087  0.7219134236349661  0.8701147131654208  1.0000
  H   H2        1.0  0.27714384434873557  0.9919361908236866  0.12941595943624407  1.0000
  H   H3        1.0  0.9926399189144421  0.27768462701945407  0.12994611807616954  1.0000
  H   H4        1.0  0.7219958780533492  0.007273643650854902  0.8702134391195244  1.0000
  H   H5        1.0  0.1014317435579031  0.6046393500301052  0.9750904987839846  1.0000
  H   H6        1.0  0.3946199387508145  0.8978793959548739  0.024541494487245095  1.0000
  H   H7        1.0  0.8982088554933796  0.39457788336407174  0.024802884082639223  1.0000
  H   H8        1.0  0.6047760225121337  0.10151421403146799  0.9751798743900222  1.0000
  H   H9        1.0  0.9319731575217176  0.4767652923918818  0.8427972456080822  1.0000
  H   H10       1.0  0.5221845336886375  0.0678252099967267  0.15669986431319674  1.0000
  H   H11       1.0  0.0679361403931722  0.5227330342778133  0.1569291262956796  1.0000
  H   H12       1.0  0.4768148134014681  0.9321554825697123  0.842864759507833  1.0000
  H   H13       1.0  0.1324722567837924  0.7095938072079451  0.7104755590869374  1.0000
  H   H14       1.0  0.29043296050978273  0.8674203127986716  0.2894226983186527  1.0000
  H   H15       1.0  0.8677609262598197  0.2906572330613669  0.28974411633817  1.0000
  H   H16       1.0  0.7097869758212882  0.13282049889568984  0.7106280433918428  1.0000
  H   H17       1.0  0.03762375749305846  0.46691958789499205  0.6617255790785704  1.0000
  H   H18       1.0  0.533094949824445  0.9623896057215974  0.3380684077648794  1.0000
  H   H19       1.0  0.9625754607144261  0.533341597231427  0.3382463563452731  1.0000
  H   H20       1.0  0.4671161389776515  0.0378990790026137  0.6618457384573517  1.0000
  H   H21       1.0  0.29630593359221546  0.5275661722917491  0.5769371953487052  1.0000
  H   H22       1.0  0.4727105817876948  0.7038424209630919  0.42308576540499837  1.0000
  H   H23       1.0  0.7040352730019352  0.4728467832360225  0.4232327802826106  1.0000
  H   H24       1.0  0.5275884437955796  0.29655633601453263  0.5770218759869791  1.0000
  H   H25       1.0  0.448814645266232  0.6507883374800869  0.7169558080611295  1.0000
  H   H26       1.0  0.34948716457374474  0.5512042640592726  0.2831074776424671  1.0000
  H   H27       1.0  0.5514122775258201  0.3494723660697687  0.28327408826278594  1.0000
  H   H28       1.0  0.6507389449739025  0.44910311602053815  0.717034688779357  1.0000
  C   C1        1.0  0.04977537221170541  0.5934158165531331  0.8827742945546149  1.0000
  C   C2        1.0  0.4058300882653469  0.9496823629773773  0.11683750294600509  1.0000
  C   C3        1.0  0.9500412163688596  0.40613371047215446  0.11714758080180591  1.0000
  C   C4        1.0  0.5935239877218238  0.0499180801201575  0.8828680932479356  1.0000
  C   C5        1.0  0.1610049239590623  0.5721008709092956  0.7137518594158152  1.0000
  C   C6        1.0  0.4279423912963409  0.8389688247563639  0.28614020384836175  1.0000
  C   C7        1.0  0.8391677173475359  0.4280901743050195  0.28635585873367825  1.0000
  C   C8        1.0  0.5722472683014034  0.16127724117174577  0.7138704782304187  1.0000
  C   C9        1.0  0.3273564292492281  0.5399972164910098  0.6704054402469098  1.0000
  C   C10       1.0  0.46021868000256216  0.6727079628434897  0.3296164166324118  1.0000
  C   C11       1.0  0.6729010397089896  0.4602965874574282  0.3297619650802375  1.0000
  C   C12       1.0  0.5400330903660091  0.32759943972465083  0.6704903941503132  1.0000
  Cl  Cl1       1.0  0.7486162319798241  0.7487905020824143  0.61935543860384  1.0000
  Cl  Cl2       1.0  0.25150530858893927  0.2513313265238608  0.3807743195050647  1.0000
  Cl  Cl3       1.0  0.851021634135897  0.14899164324944542  0.49997994624604297  1.0000
  Cl  Cl4       1.0  0.149155364579201  0.8510378448267562  0.5001105298231252  1.0000
  Cl  Cl5       1.0  0.6302225464958372  0.6302295142470771  0.9453333133516464  1.0000
  Cl  Cl6       1.0  0.3699080598864768  0.36987695197644405  0.05472167621410047  1.0000
  Cl  Cl7       1.0  0.11067081174661551  0.1106058231503582  0.7983098770914552  1.0000
  Cl  Cl8       1.0  0.8894482836721523  0.8894329887986032  0.20176239140040753  1.0000
  O   O1        1.0  0.2008267922592353  0.5632102913614646  0.832741523762081  1.0000
  O   O2        1.0  0.43666703978855986  0.7989839848269684  0.16713199613408136  1.0000
  O   O3        1.0  0.7991716758563076  0.436686995897226  0.16729385209058015  1.0000
  O   O4        1.0  0.5633433847436111  0.20102640998715066  0.8328495263903264  1.0000
  O   O5        1.0  0.36781003668116347  0.36786804875514895  0.6910225340373798  1.0000
  O   O6        1.0  0.6324141514432711  0.6323590749844075  0.3090609809916813  1.0000
