data_image0
_chemical_formula_structural       Al4H28C56N24O68
_chemical_formula_sum              "Al4 H28 C56 N24 O68"
_cell_length_a       6.963883979904731
_cell_length_b       20.306579806054295
_cell_length_c       23.57139605300273
_cell_angle_alpha    90.00005530287713
_cell_angle_beta     89.9948236054107
_cell_angle_gamma    90.0000442264421

_space_group_name_H-M_alt    "P 1"
_space_group_IT_number       1

loop_
  _space_group_symop_operation_xyz
  'x, y, z'

loop_
  _atom_site_type_symbol
  _atom_site_label
  _atom_site_symmetry_multiplicity
  _atom_site_fract_x
  _atom_site_fract_y
  _atom_site_fract_z
  _atom_site_occupancy
  Al  Al1       1.0  0.9643841305687955  0.7499380273864348  0.5001151249385387  1.0000
  Al  Al2       1.0  0.5355672793556607  0.2500608858620055  0.00012022658197709999  1.0000
  Al  Al3       1.0  0.4643830058373338  0.7500620963441805  0.4998828337368408  1.0000
  Al  Al4       1.0  0.035570120764724295  0.24993587230570571  0.9998851335583722  1.0000
  H   H1        1.0  0.7616194295283448  0.4697799439354213  0.6512091161225726  1.0000
  H   H2        1.0  0.7383512952062856  0.5302117609308468  0.1512124097183545  1.0000
  H   H3        1.0  0.261580356994493  0.030225657004265796  0.3487887809075332  1.0000
  H   H4        1.0  0.23838504436817934  0.9697893690948832  0.8488095570270033  1.0000
  H   H5        1.0  0.5806087890738922  0.39654295350839414  0.7379511044177248  1.0000
  H   H6        1.0  0.9193804690508924  0.6034409745559515  0.23795272115420119  1.0000
  H   H7        1.0  0.08058898689142778  0.10344995889836642  0.2620451325370396  1.0000
  H   H8        1.0  0.4193779831436402  0.896517197046059  0.7620882992761365  1.0000
  H   H9        1.0  0.9883543489046783  0.5215945233700199  0.8259328466120408  1.0000
  H   H10       1.0  0.5115267864377202  0.47840969894585333  0.325936799372073  1.0000
  H   H11       1.0  0.4884276594038111  0.9784086051077167  0.17406898605842966  1.0000
  H   H12       1.0  0.011668976350385697  0.021565833858673503  0.6740693522300845  1.0000
  H   H13       1.0  0.0649057907828592  0.45972590134384483  0.7784905474649051  1.0000
  H   H14       1.0  0.43503006198537253  0.5402767304517796  0.2785030514404809  1.0000
  H   H15       1.0  0.5649373564065313  0.040283229274777496  0.22150069197178368  1.0000
  H   H16       1.0  0.9351289718093978  0.9597070813311963  0.7215281172604336  1.0000
  H   H17       1.0  0.45083181783390797  0.5640840828378515  0.7429449560952861  1.0000
  H   H18       1.0  0.049079302691964706  0.435896346656321  0.2429421208286016  1.0000
  H   H19       1.0  0.9508843212956531  0.9358948373050496  0.2570619340177984  1.0000
  H   H20       1.0  0.549203868624879  0.0640521795821059  0.7570649123573289  1.0000
  H   H21       1.0  0.5296695256181181  0.4847261048359357  0.6777103211774076  1.0000
  H   H22       1.0  0.9702935809281996  0.5152562747294668  0.1777059445937041  1.0000
  H   H23       1.0  0.029649757208765892  0.0152667014044212  0.3222922643660269  1.0000
  H   H24       1.0  0.47034193146499337  0.9847212086190071  0.8223015757265557  1.0000
  H   H25       1.0  0.21464191775169172  0.6638488875796754  0.4899473333180495  1.0000
  H   H26       1.0  0.28530778939459367  0.3361338033183118  0.9898960610738853  1.0000
  H   H27       1.0  0.7146410207321237  0.836149238271283  0.5100491137693766  1.0000
  H   H28       1.0  0.7852980246550699  0.1638408225439818  0.0100111137981997  1.0000
  C   C1        1.0  0.21489189240268297  0.8229279199278213  0.5784296351253317  1.0000
  C   C2        1.0  0.28500591817600446  0.177060194554528  0.0784158363749086  1.0000
  C   C3        1.0  0.714946768869808  0.6770618348397904  0.42158080280367477  1.0000
  C   C4        1.0  0.7850585208066361  0.3229385609057048  0.9215800142332923  1.0000
  C   C5        1.0  0.2131247584637349  0.8288047407402389  0.4256037587172444  1.0000
  C   C6        1.0  0.28687011098886467  0.17120298928712432  0.9255998210313338  1.0000
  C   C7        1.0  0.7130937973050419  0.6712032309454373  0.5743991026092062  1.0000
  C   C8        1.0  0.7868488976030503  0.32879478508015575  0.0743976662151056  1.0000
  C   C9        1.0  0.9474231848428899  0.5465863283466919  0.7382005020041832  1.0000
  C   C10       1.0  0.5525013953587461  0.45341483573993463  0.2382064768518788  1.0000
  C   C11       1.0  0.4474605603307323  0.9534231166497024  0.2618031069730691  1.0000
  C   C12       1.0  0.052618478165591384  0.04658343519410121  0.7617966252991836  1.0000
  C   C13       1.0  0.5931696452886968  0.5638897244878294  0.762509542255124  1.0000
  C   C14       1.0  0.9067349042923849  0.4360878306126281  0.2625093221965074  1.0000
  C   C15       1.0  0.0932272809915204  0.936092882263033  0.2374960055559683  1.0000
  C   C16       1.0  0.4068746599575235  0.06386685804847052  0.737496931961708  1.0000
  C   C17       1.0  0.6034980065458838  0.5090784640015329  0.8080709282080393  1.0000
  C   C18       1.0  0.8964059638704353  0.4909025920462471  0.3080774559675703  1.0000
  C   C19       1.0  0.10356124056274038  0.9909036718273826  0.191928763328761  1.0000
  C   C20       1.0  0.3965513309011398  0.0090476430378317  0.6919393209701639  1.0000
  C   C21       1.0  0.7832530141989976  0.36734778192394674  0.8739358745478328  1.0000
  C   C22       1.0  0.7167447233140863  0.6326441859020377  0.3739420838318352  1.0000
  C   C23       1.0  0.28321573062873984  0.1326421056651981  0.1260566414742428  1.0000
  C   C24       1.0  0.21669968342884965  0.8673322764457442  0.6260776279107816  1.0000
  C   C25       1.0  0.7408373311273876  0.5503942236224476  0.7132613947625258  1.0000
  C   C26       1.0  0.7590873247915865  0.44959312238510313  0.2132601212973526  1.0000
  C   C27       1.0  0.24087755358611668  0.9496083889373995  0.2867473382591399  1.0000
  C   C28       1.0  0.2591841769261549  0.050390805568312685  0.7867433722445795  1.0000
  C   C29       1.0  0.9535983829453581  0.49653903803488936  0.7861339010641757  1.0000
  C   C30       1.0  0.5463336809593285  0.5034651373543256  0.2861430887737058  1.0000
  C   C31       1.0  0.4536313515312357  0.0034684404670386007  0.2138661408630469  1.0000
  C   C32       1.0  0.04643589446551741  0.9965222963427253  0.7138716411106643  1.0000
  C   C33       1.0  0.7642078809946182  0.4577568335614828  0.792615627458865  1.0000
  C   C34       1.0  0.7357442104788134  0.5422360231218306  0.2926241072073594  1.0000
  C   C35       1.0  0.26423897731166324  0.042240401176520906  0.20738387991590196  1.0000
  C   C36       1.0  0.23582116360642397  0.9577311223847289  0.70740430853742  1.0000
  C   C37       1.0  0.7098903312851874  0.42692190932643825  0.7341872192915915  1.0000
  C   C38       1.0  0.7900840089027807  0.5730669387927776  0.23419138402130102  1.0000
  C   C39       1.0  0.20987292423892961  0.0730766895025994  0.2658111126440303  1.0000
  C   C40       1.0  0.29009891290257167  0.9269091840290288  0.765837359771176  1.0000
  C   C41       1.0  0.6811267251199026  0.48109985901174224  0.6897775329660617  1.0000
  C   C42       1.0  0.8188321295134313  0.518885489504143  0.1897768874031414  1.0000
  C   C43       1.0  0.18111403219174343  0.018898187422742303  0.3102247183113462  1.0000
  C   C44       1.0  0.31887329171303946  0.9811030045349939  0.8102369067339338  1.0000
  C   C45       1.0  0.7801324285007425  0.40804047819324313  0.8364214054547149  1.0000
  C   C46       1.0  0.7198180581043232  0.5919494754948147  0.3364312986419478  1.0000
  C   C47       1.0  0.2801644728398855  0.0919518652214819  0.163573333674556  1.0000
  C   C48       1.0  0.21987142542922553  0.9080107424785596  0.663601461527385  1.0000
  C   C49       1.0  0.7224532887684557  0.5964949979740767  0.6667515310034702  1.0000
  C   C50       1.0  0.7774836550018733  0.40349426294419294  0.1667470685886698  1.0000
  C   C51       1.0  0.22248614117322765  0.903510530968319  0.3332569606605915  1.0000
  C   C52       1.0  0.2775719185584577  0.0965015221657453  0.8332456358561727  1.0000
  C   C53       1.0  0.7142686979694159  0.6290051162395685  0.6237232558941698  1.0000
  C   C54       1.0  0.7856682331089001  0.3709939429078588  0.12371849765677471  1.0000
  C   C55       1.0  0.214300556608805  0.8709969484859245  0.3762876272393711  1.0000
  C   C56       1.0  0.2856957678614264  0.12900678371229904  0.8762786042267193  1.0000
  N   N1        1.0  0.09319735767694938  0.52834009165084  0.689435560247759  1.0000
  N   N2        1.0  0.4067578377433135  0.47166883689753564  0.1894421561480755  1.0000
  N   N3        1.0  0.5931938248144135  0.9716824036408553  0.3105665937297744  1.0000
  N   N4        1.0  0.9068287500239263  0.02836168922900841  0.8105666438773653  1.0000
  N   N5        1.0  0.0330169039798704  0.6142831488039633  0.758048136830574  1.0000
  N   N6        1.0  0.4668562283683143  0.38572290594678554  0.2580509824281165  1.0000
  N   N7        1.0  0.5331051857485105  0.8857303570357332  0.24196321480124539  1.0000
  N   N8        1.0  0.967082740918684  0.11428361547829273  0.7419341942927106  1.0000
  N   N9        1.0  0.6168400884453574  0.6341768328122086  0.7853368470084378  1.0000
  N   N10       1.0  0.8830476475064797  0.3658105982415308  0.2853343837626952  1.0000
  N   N11       1.0  0.11693126267312685  0.8658102553712583  0.2146713126424586  1.0000
  N   N12       1.0  0.3832679077318061  0.1341484731877216  0.7146607723714168  1.0000
  N   N13       1.0  0.6193839942254228  0.5369271262228779  0.8702859142873008  1.0000
  N   N14       1.0  0.8804523297671949  0.4630485862330715  0.3702874306085846  1.0000
  N   N15       1.0  0.1195109350722205  0.9630506107242666  0.1297179183444896  1.0000
  N   N16       1.0  0.3806549233538091  0.03688437986313181  0.6297235084906632  1.0000
  N   N17       1.0  0.4148360552996238  0.4695127678486202  0.8102363938853614  1.0000
  N   N18       1.0  0.08507228765429888  0.5304519826480387  0.3102447476279266  1.0000
  N   N19       1.0  0.914893824432866  0.030453756435981902  0.1897611092864651  1.0000
  N   N20       1.0  0.5852014502052609  0.969472005616936  0.6897805815168211  1.0000
  N   N21       1.0  0.8563027647955082  0.3750418212119798  0.7134948744040203  1.0000
  N   N22       1.0  0.6436979425330732  0.6249553741799333  0.2135022168181493  1.0000
  N   N23       1.0  0.3562669208272808  0.12496496197395152  0.2864973508542192  1.0000
  N   N24       1.0  0.14367424016288768  0.8750396491020994  0.786540270107686  1.0000
  O   O1        1.0  0.37800190132318073  0.8131366033056011  0.4445960871082022  1.0000
  O   O2        1.0  0.1219827927832782  0.18687311893752687  0.9445937876606864  1.0000
  O   O3        1.0  0.8779794729453768  0.6868667875183263  0.5554004816645417  1.0000
  O   O4        1.0  0.6219604733346457  0.3131297287300043  0.0554112650820429  1.0000
  O   O5        1.0  0.050213085867163394  0.8065891907287013  0.5597847458894378  1.0000
  O   O6        1.0  0.4496962538867777  0.19341121303985892  0.05977782548395541  1.0000
  O   O7        1.0  0.5502519084939833  0.6934061302038829  0.4402239175519611  1.0000
  O   O8        1.0  0.949740415345147  0.3065952724398571  0.9402248905569266  1.0000
  O   O9        1.0  0.048565071021691594  0.8127536253052555  0.4444471011860712  1.0000
  O   O10       1.0  0.4514096063246171  0.18724674017695972  0.9444424096935932  1.0000
  O   O11       1.0  0.5485497810614817  0.6872564656736911  0.5555633145407981  1.0000
  O   O12       1.0  0.951403052806796  0.3127410356738097  0.0555589778765651  1.0000
  O   O13       1.0  0.8794144717949234  0.6935217068884044  0.4403432108860699  1.0000
  O   O14       1.0  0.6205692076919717  0.3064816656951877  0.940349537096921  1.0000
  O   O15       1.0  0.3793656277026898  0.8064713453784973  0.5596567056224373  1.0000
  O   O16       1.0  0.12052938169130557  0.1935147771412531  0.05965428987712329  1.0000
  O   O17       1.0  0.21441233032871304  0.7106529334882057  0.4981522153359137  1.0000
  O   O18       1.0  0.2855526881237579  0.289343555776327  0.9981526560736711  1.0000
  O   O19       1.0  0.7144039142224372  0.7893446994269412  0.5018472091570558  1.0000
  O   O20       1.0  0.7855370409434883  0.21065224604431174  0.0018419048777928997  1.0000
  O   O21       1.0  0.07819545755761227  0.4725645468038805  0.6698136982776717  1.0000
  O   O22       1.0  0.21182078375007046  0.5699385462356974  0.6750458408263782  1.0000
  O   O23       1.0  0.4217513904594553  0.5274522377998778  0.1698342671458875  1.0000
  O   O24       1.0  0.28815643828100695  0.4300728275968808  0.1750393506198975  1.0000
  O   O25       1.0  0.5781846049467418  0.027463324615880004  0.3301775273105392  1.0000
  O   O26       1.0  0.711810134105839  0.9300876434552593  0.3249685177879087  1.0000
  O   O27       1.0  0.9218376980334353  0.9725975347668979  0.8302130372164953  1.0000
  O   O28       1.0  0.7882105196318104  0.0699682852272119  0.824941123208113  1.0000
  O   O29       1.0  0.15767581708395537  0.61017084035997  0.7949547948206543  1.0000
  O   O30       1.0  0.9773156765252861  0.6642186725093637  0.7341892613852535  1.0000
  O   O31       1.0  0.3421614207985613  0.3898318107629705  0.2949570935696428  1.0000
  O   O32       1.0  0.5225610164081259  0.335785441498416  0.2341935859758024  1.0000
  O   O33       1.0  0.6577855794382259  0.8898394781630543  0.2050549859166466  1.0000
  O   O34       1.0  0.4773996212205489  0.835797729163261  0.2658265113668463  1.0000
  O   O35       1.0  0.8424339345821534  0.11017986777491735  0.7050224419864151  1.0000
  O   O36       1.0  0.022836440642997495  0.1642186765963203  0.7657829263413803  1.0000
  O   O37       1.0  0.7342513253948935  0.642989884990442  0.8239431472342744  1.0000
  O   O38       1.0  0.5226854507071366  0.676384714249778  0.7607543840906246  1.0000
  O   O39       1.0  0.7656015555528268  0.35699315954042293  0.3239398876451745  1.0000
  O   O40       1.0  0.9771864815391849  0.3235962858995834  0.26074793059288487  1.0000
  O   O41       1.0  0.23437890710446393  0.8569969554948998  0.17606622603917538  1.0000
  O   O42       1.0  0.022787242758297997  0.8235992229981692  0.2392581569171739  1.0000
  O   O43       1.0  0.265888146791923  0.14297354638467402  0.676045569463831  1.0000
  O   O44       1.0  0.4774406546849049  0.17635017804262534  0.7392479348808934  1.0000
  O   O45       1.0  0.4788800177971736  0.5690490890846931  0.8849466909867091  1.0000
  O   O46       1.0  0.7612872489549645  0.5229269025158417  0.8984049382374621  1.0000
  O   O47       1.0  0.02095345549510339  0.43092609100156676  0.3849485973766136  1.0000
  O   O48       1.0  0.7385209754343548  0.477050320455362  0.3984001210955128  1.0000
  O   O49       1.0  0.9790145419739243  0.9309279197962252  0.11505672621606071  1.0000
  O   O50       1.0  0.2614435404299157  0.977050637775598  0.1016039661273496  1.0000
  O   O51       1.0  0.521155604326367  0.0689992314858543  0.6150529995354006  1.0000
  O   O52       1.0  0.23873318500126567  0.022881857380397705  0.6016129586859762  1.0000
  O   O53       1.0  0.3404779363920908  0.4596941701527444  0.7631708253696486  1.0000
  O   O54       1.0  0.3637746886537556  0.44529891470140376  0.8552235318431229  1.0000
  O   O55       1.0  0.15941554034087344  0.5402823435949172  0.2631763076854838  1.0000
  O   O56       1.0  0.1361145418222165  0.5546525927021692  0.3552357341650136  1.0000
  O   O57       1.0  0.8405317743936037  0.0402825406223855  0.23682658757459052  1.0000
  O   O58       1.0  0.863839762483579  0.054652237176050306  0.1447701419907048  1.0000
  O   O59       1.0  0.6595410310070161  0.9596570656030682  0.7368474153412734  1.0000
  O   O60       1.0  0.636222928915984  0.9452390001514888  0.6447997887975347  1.0000
  O   O61       1.0  0.8247427930671873  0.35420762617773965  0.6654150784469266  1.0000
  O   O62       1.0  0.9836518825593074  0.356411066083666  0.7459643246288509  1.0000
  O   O63       1.0  0.6752806203524597  0.6457850804163527  0.1654188493746886  1.0000
  O   O64       1.0  0.516351300416673  0.6435965091192558  0.2459758864916921  1.0000
  O   O65       1.0  0.32468109587861693  0.14579909120323012  0.3345786135304607  1.0000
  O   O66       1.0  0.4836248043446289  0.14359696743908051  0.2540241199061128  1.0000
  O   O67       1.0  0.17524310257301315  0.8542208426049671  0.8346247161994995  1.0000
  O   O68       1.0  0.0163196243650674  0.8563987411883647  0.7540750477362863  1.0000
