data_image0
_chemical_formula_structural       Mn2H24C34N12O8
_chemical_formula_sum              "Mn2 H24 C34 N12 O8"
_cell_length_a       7.479253108618221
_cell_length_b       9.933252426827439
_cell_length_c       11.794539962271621
_cell_angle_alpha    93.2617255575198
_cell_angle_beta     91.40302355035496
_cell_angle_gamma    95.09374591285143

_space_group_name_H-M_alt    "P 1"
_space_group_IT_number       1

loop_
  _space_group_symop_operation_xyz
  'x, y, z'

loop_
  _atom_site_type_symbol
  _atom_site_label
  _atom_site_symmetry_multiplicity
  _atom_site_fract_x
  _atom_site_fract_y
  _atom_site_fract_z
  _atom_site_occupancy
  Mn  Mn1       1.0  0.48419199838914295  0.2346905724772768  0.3754214982104287  1.0000
  Mn  Mn2       1.0  0.5158151006506202  0.7653068527420144  0.6245756193097023  1.0000
  H   H1        1.0  0.25237364582989835  0.8637439778394334  0.9745869569236943  1.0000
  H   H2        1.0  0.7476258203961947  0.13625764642551985  0.025416043097280287  1.0000
  H   H3        1.0  0.2568821404693225  0.613268712554415  0.260826800194458  1.0000
  H   H4        1.0  0.7431076107999959  0.386729946004074  0.7391741190818947  1.0000
  H   H5        1.0  0.7796513725533246  0.6076253069362918  0.04836672908771788  1.0000
  H   H6        1.0  0.2203466307570068  0.39237424481568434  0.9516310628425088  1.0000
  H   H7        1.0  0.6552885405738561  0.6534798588563077  0.87291721730994  1.0000
  H   H8        1.0  0.3447073086131454  0.34652271556862496  0.1270772370712976  1.0000
  H   H9        1.0  0.8536292457549094  0.9953084382754868  0.7041678901693017  1.0000
  H   H10       1.0  0.14635727393763173  0.0047075842473916  0.2958420795971222  1.0000
  H   H11       1.0  0.5672740003543737  0.9107123449411456  0.0036428607369173725  1.0000
  H   H12       1.0  0.4327178445111315  0.08929240512000548  0.996360892952417  1.0000
  H   H13       1.0  0.802955022424939  0.8635953872245562  0.32509477955930066  1.0000
  H   H14       1.0  0.19704906631347538  0.13640113301408258  0.6749090037588131  1.0000
  H   H15       1.0  0.6251928858285183  0.47143511974009283  0.18202651314418009  1.0000
  H   H16       1.0  0.3748059443823805  0.5285501922049604  0.8179673681572267  1.0000
  H   H17       1.0  0.9180827909518215  0.2640132537770725  0.4148751682117009  1.0000
  H   H18       1.0  0.08191591716828835  0.7359822658899727  0.5851250342682234  1.0000
  H   H19       1.0  0.08343478267477877  0.9692930115839358  0.858787414043057  1.0000
  H   H20       1.0  0.9165576678158729  0.030715767615348  0.1412148137095528  1.0000
  H   H21       1.0  0.49465763434812965  0.7365205780244605  0.32127257098722584  1.0000
  H   H22       1.0  0.5053384414490552  0.26347602078564586  0.6787309910992433  1.0000
  H   H23       1.0  0.1411276754761914  0.4362054664314811  0.3297325393084165  1.0000
  H   H24       1.0  0.8588725070127624  0.5637910524990841  0.6702677424297789  1.0000
  C   C1        1.0  0.18380892607523688  0.789577661954169  0.026907709733407583  1.0000
  C   C2        1.0  0.816186053331542  0.21041992171613078  0.9730924669033527  1.0000
  C   C3        1.0  0.2755139563240263  0.7444951887116034  0.12097596220734627  1.0000
  C   C4        1.0  0.7244800541178976  0.25550546542712027  0.8790260001985146  1.0000
  C   C5        1.0  0.1868723421356719  0.6481414100114478  0.18748843505353818  1.0000
  C   C6        1.0  0.8131214156042572  0.35185720926131114  0.8125125948386368  1.0000
  C   C7        1.0  0.00846013640867228  0.5972211986361913  0.1613069920255157  1.0000
  C   C8        1.0  0.9915333686292628  0.4027753857705959  0.8386931053529737  1.0000
  C   C9        1.0  0.9189250979060973  0.6448104271840264  0.0680890904024949  1.0000
  C   C10       1.0  0.0810687600549826  0.35518815149492156  0.931908548525584  1.0000
  C   C11       1.0  0.0049061949584085504  0.7414095296304307  0.000650983811659988  1.0000
  C   C12       1.0  0.9950950097916118  0.2585940555145426  0.9993478991487874  1.0000
  C   C13       1.0  0.905957099330564  0.7905550309140563  0.9058548504790949  1.0000
  C   C14       1.0  0.09404140938376317  0.209448590569849  0.09414480647849639  1.0000
  C   C15       1.0  0.7430064103533951  0.7414994381098264  0.8537803699081935  1.0000
  C   C16       1.0  0.2569891997338161  0.2585021645501512  0.14621743305081478  1.0000
  C   C17       1.0  0.840697514192982  0.9169098038252981  0.7644058325435735  1.0000
  C   C18       1.0  0.1592953278783114  0.0831020225987089  0.23559737010904064  1.0000
  C   C19       1.0  0.45856485907817995  0.8008052377973552  0.14981500862917577  1.0000
  C   C20       1.0  0.5414323026928615  0.19919947003127444  0.850189740288954  1.0000
  C   C21       1.0  0.5807001779945224  0.8803964728335812  0.08996694221103498  1.0000
  C   C22       1.0  0.41929137766062036  0.11960732575951734  0.9100418555381182  1.0000
  C   C23       1.0  0.7100782730046121  0.856185052754412  0.252466534886004  1.0000
  C   C24       1.0  0.28990789988310434  0.14381560891661138  0.7475292721010334  1.0000
  C   C25       1.0  0.9171049534949844  0.49565369891488575  0.2292623074991411  1.0000
  C   C26       1.0  0.08289535427040559  0.5043427692734211  0.7707337355339305  1.0000
  C   C27       1.0  0.7394029095505131  0.44256036803970733  0.23029157891170365  1.0000
  C   C28       1.0  0.2605962621304556  0.5574280114269782  0.7697049727717626  1.0000
  C   C29       1.0  0.8850809597009573  0.33469947066705413  0.35250821046338376  1.0000
  C   C30       1.0  0.11491956107241919  0.6652899588054096  0.6474926591834701  1.0000
  C   C31       1.0  0.5587042349828978  0.4747812483220811  0.5482690844572744  1.0000
  C   C32       1.0  0.4412914198801231  0.5252080407107724  0.4517155306223586  1.0000
  C   C33       1.0  0.3991681529932549  0.0015487206159647989  0.5142988190124383  1.0000
  C   C34       1.0  0.6008795287223023  0.9984454239497036  0.48571287823524745  1.0000
  N   N1        1.0  0.9638239319628712  0.9025117592951587  0.8471557420233607  1.0000
  N   N2        1.0  0.03616952615012539  0.09749500238826406  0.1528481333105773  1.0000
  N   N3        1.0  0.7038595603990884  0.8202255443155618  0.7654711881729241  1.0000
  N   N4        1.0  0.2961350556679819  0.17977913896128675  0.23452924829620508  1.0000
  N   N5        1.0  0.7352834530008465  0.9148131248683952  0.1546422174973472  1.0000
  N   N6        1.0  0.264710432164641  0.08518758001258668  0.8453639836136304  1.0000
  N   N7        1.0  0.5459955909435408  0.7863831990686091  0.2530125025054772  1.0000
  N   N8        1.0  0.45400521077275613  0.2136184121011054  0.7469905343874358  1.0000
  N   N9        1.0  0.7211795553584893  0.3424895662483748  0.3066574581184724  1.0000
  N   N10       1.0  0.2788225650601674  0.6575008117453434  0.6933392520815359  1.0000
  N   N11       1.0  0.004955622883421987  0.42572889425083815  0.3088602636499401  1.0000
  N   N12       1.0  0.995043362993968  0.5742686501337316  0.6911400236026424  1.0000
  O   O1        1.0  0.5668832559433595  0.3485862222451671  0.551261695276544  1.0000
  O   O2        1.0  0.43311046417559845  0.6514193647042673  0.44872857381468373  1.0000
  O   O3        1.0  0.6375808620175932  0.5653866727612707  0.6173005983141309  1.0000
  O   O4        1.0  0.3624208846447915  0.4346198987177132  0.3826941731001908  1.0000
  O   O5        1.0  0.31726682185349375  0.09680696960168687  0.4761925726176273  1.0000
  O   O6        1.0  0.6827715990860952  0.9031941835651194  0.5238038670204048  1.0000
  O   O7        1.0  0.33218003787262523  0.9095955312332008  0.574614347617917  1.0000
  O   O8        1.0  0.6678718821824036  0.09041879667013568  0.4253939955231729  1.0000
