data_image0
_chemical_formula_structural       ZnH28C18S2N4Cl4O10
_chemical_formula_sum              "Zn1 H28 C18 S2 N4 Cl4 O10"
_cell_length_a       8.301740354673681
_cell_length_b       9.02554700617335
_cell_length_c       9.855630384886155
_cell_angle_alpha    90.81259983479332
_cell_angle_beta     92.29124031607404
_cell_angle_gamma    106.74876282794003

_space_group_name_H-M_alt    "P 1"
_space_group_IT_number       1

loop_
  _space_group_symop_operation_xyz
  'x, y, z'

loop_
  _atom_site_type_symbol
  _atom_site_label
  _atom_site_symmetry_multiplicity
  _atom_site_fract_x
  _atom_site_fract_y
  _atom_site_fract_z
  _atom_site_occupancy
  Zn  Zn1       1.0  0.500000401791766  0.5000003366626943  0.5000002052479076  1.0000
  H   H1        1.0  0.40657008120470556  0.7879876204581253  0.42881248593200644  1.0000
  H   H2        1.0  0.5934307452098792  0.21201306615172652  0.5711899547079254  1.0000
  H   H3        1.0  0.03169001702011796  0.7897325779662056  0.6774926445097194  1.0000
  H   H4        1.0  0.9683111500105854  0.2102692528087431  0.3225077874382123  1.0000
  H   H5        1.0  0.9217263876365464  0.6910859549110528  0.5297000269779062  1.0000
  H   H6        1.0  0.07827477939415667  0.3089158758638959  0.4703004049700326  1.0000
  H   H7        1.0  0.05380883419955036  0.6051629385287143  0.6279981885474583  1.0000
  H   H8        1.0  0.9461907751770655  0.39483774103143093  0.3720032042673225  1.0000
  H   H9        1.0  0.31094552982544604  0.9824197150161499  0.40409564079808286  1.0000
  H   H10       1.0  0.689053329825782  0.0175786363603976  0.595903678968341  1.0000
  H   H11       1.0  0.08840403324894197  0.9450206911911253  0.4020954627770124  1.0000
  H   H12       1.0  0.9115944515395926  0.054976496093623  0.5979028204652295  1.0000
  H   H13       1.0  0.21325510511658763  0.0247676289163437  0.5518584664774906  1.0000
  H   H14       1.0  0.7867475967371506  0.9752353397889378  0.44813897445948214  1.0000
  H   H15       1.0  0.7965483887750083  0.5930515570012603  0.2981661862993406  1.0000
  H   H16       1.0  0.20345323415273947  0.40694794599755824  0.7018322053533268  1.0000
  H   H17       1.0  0.687276221584689  0.9102145021828252  0.0540353548267731  1.0000
  H   H18       1.0  0.31272143244409273  0.08978384878624719  0.945963932186565  1.0000
  H   H19       1.0  0.7932386767439824  0.022427819515016306  0.19802418433411617  1.0000
  H   H20       1.0  0.20676054635441685  0.9775716893110982  0.8019751568844313  1.0000
  H   H21       1.0  0.5905234299015163  0.8873609957001564  0.2150681290524332  1.0000
  H   H22       1.0  0.40947581602792843  0.11263852641042153  0.7849332423102311  1.0000
  H   H23       1.0  0.9195346097124928  0.7881936467122445  0.0189325008709389  1.0000
  H   H24       1.0  0.0804637712106313  0.21180701915595532  0.9810668290466394  1.0000
  H   H25       1.0  0.04052162923804297  0.9049952069922185  0.1558385485646738  1.0000
  H   H26       1.0  0.9594779458919973  0.09500545264121742  0.8441597990339389  1.0000
  H   H27       1.0  0.990493047865712  0.6983648572536579  0.1609146854877039  1.0000
  H   H28       1.0  0.009507721471244669  0.3016357961450211  0.8390826797919431  1.0000
  C   C1        1.0  0.5512528312145691  0.6130485517171849  0.8972774854303439  1.0000
  C   C2        1.0  0.44874772420272546  0.3869474922174163  0.1027228720100695  1.0000
  C   C3        1.0  0.6401962208460931  0.504873939583483  0.9256143596817594  1.0000
  C   C4        1.0  0.35980312894876215  0.49512210394364325  0.0743859650055683  1.0000
  C   C5        1.0  0.41018206127396434  0.6073890809958087  0.9738917781908256  1.0000
  C   C6        1.0  0.5898157080357506  0.3926057980320437  0.026107477219234492  1.0000
  C   C7        1.0  0.30155921621053494  0.7192047359360886  0.48667618301445964  1.0000
  C   C8        1.0  0.6984447483432703  0.28079826638783356  0.5133263660358907  1.0000
  C   C9        1.0  0.03986760937553404  0.7145708389268179  0.5910495734756296  1.0000
  C   C10       1.0  0.9601335576551691  0.28543099184813064  0.4089508584723021  1.0000
  C   C11       1.0  0.19994320824373082  0.9434587561644748  0.46522426023425817  1.0000
  C   C12       1.0  0.8000575953398013  0.0565419171609065  0.5347761502615569  1.0000
  C   C13       1.0  0.7249305643187965  0.6779046522070333  0.2843504871110056  1.0000
  C   C14       1.0  0.27506986440204173  0.32209485702655644  0.7156488868606345  1.0000
  C   C15       1.0  0.7094768377136588  0.9086919238763471  0.1644639602808482  1.0000
  C   C16       1.0  0.2905223968002629  0.09130759159199901  0.8355363960097576  1.0000
  C   C17       1.0  0.9442646321495048  0.7952098633620963  0.1293904320804771  1.0000
  C   C18       1.0  0.055733748773619085  0.20479080250610343  0.8706088978371085  1.0000
  S   S1        1.0  0.6302780190054591  0.7570698086217436  0.766944410018148  1.0000
  S   S2        1.0  0.3697208634768145  0.2429285560392742  0.2330569398923927  1.0000
  N   N1        1.0  0.18390168347440997  0.7882058991735975  0.5120360683755365  1.0000
  N   N2        1.0  0.816099494971823  0.21179593824358284  0.4879653786444607  1.0000
  N   N3        1.0  0.7892269190373397  0.7886191752243478  0.1970276336277124  1.0000
  N   N4        1.0  0.21077230406105943  0.2113803336017669  0.8029717075908351  1.0000
  Cl  Cl1       1.0  0.8167598662101909  0.5068287806124091  0.8397750888891551  1.0000
  Cl  Cl2       1.0  0.18323743578694965  0.4931684195493419  0.160225191744118  1.0000
  Cl  Cl3       1.0  0.29328917368425783  0.735215015735669  0.9526146883509199  1.0000
  Cl  Cl4       1.0  0.7067105395577686  0.2647821852410176  0.04738565778853139  1.0000
  O   O1        1.0  0.6477248884908844  0.6644139738607819  0.6464965144839425  1.0000
  O   O2        1.0  0.3522739711603363  0.33558437751576525  0.3535028052824813  1.0000
  O   O3        1.0  0.509888297262904  0.8439181831994277  0.7432060444519806  1.0000
  O   O4        1.0  0.4901109372510176  0.1560813322689185  0.2567943118386182  1.0000
  O   O5        1.0  0.7939728123884607  0.848355745857738  0.8253291508254108  1.0000
  O   O6        1.0  0.20602521650301503  0.15164376920313322  0.1746711727121095  1.0000
  O   O7        1.0  0.2954934835478938  0.5844709800772351  0.5231425230645854  1.0000
  O   O8        1.0  0.7045097426960468  0.41552970070532785  0.47685896800945926  1.0000
  O   O9        1.0  0.5935069877331358  0.6669328320580165  0.3477279548631032  1.0000
  O   O10       1.0  0.40649428316297787  0.3330655201334737  0.652271430409499  1.0000
