data_image0
_chemical_formula_structural       Cd8H32C24S8Br8N24
_chemical_formula_sum              "Cd8 H32 C24 S8 Br8 N24"
_cell_length_a       7.796004971
_cell_length_b       10.72158677
_cell_length_c       17.8083
_cell_angle_alpha    90.0
_cell_angle_beta     90.0
_cell_angle_gamma    90.0

_space_group_name_H-M_alt    "P 1"
_space_group_IT_number       1

loop_
  _space_group_symop_operation_xyz
  'x, y, z'

loop_
  _atom_site_type_symbol
  _atom_site_label
  _atom_site_symmetry_multiplicity
  _atom_site_fract_x
  _atom_site_fract_y
  _atom_site_fract_z
  _atom_site_occupancy
  Cd  Cd1       1.0  0.8145017895217563  0.8212534384031259  0.3316689408871127  1.0000
  Cd  Cd2       1.0  0.6854934059020366  0.6787456144422919  0.8316700639589385  1.0000
  Cd  Cd3       1.0  0.8145043549382791  0.17874686285824742  0.1683293745051486  1.0000
  Cd  Cd4       1.0  0.6854921231937752  0.32125375412132234  0.6683316206488  1.0000
  Cd  Cd5       1.0  0.1854962901357027  0.1787477955560135  0.6683299360410615  1.0000
  Cd  Cd6       1.0  0.3145021083388926  0.3212518887257971  0.1683304975769744  1.0000
  Cd  Cd7       1.0  0.1854988555522326  0.8212515730076008  0.8316711870307643  1.0000
  Cd  Cd8       1.0  0.3145008256306312  0.6787456144422919  0.3316700639589384  1.0000
  H   H1        1.0  0.4136041487908884  0.1351936081006073  0.32693126238888937  1.0000
  H   H2        1.0  0.086391684267177  0.3648088742744946  0.8269351931402795  1.0000
  H   H3        1.0  0.4136015833743656  0.8648085585562981  0.1730664914674591  1.0000
  H   H4        1.0  0.0863980978084982  0.635195157777936  0.673067053003372  1.0000
  H   H5        1.0  0.5864093233657357  0.8648029623697226  0.6730659299315462  1.0000
  H   H6        1.0  0.9135986991406995  0.6351923596846447  0.1730681760751978  1.0000
  H   H7        1.0  0.5863990616996233  0.1351982715894238  0.8269312623888894  1.0000
  H   H8        1.0  0.9135948510159082  0.3648060761812033  0.3269318239248022  1.0000
  H   H9        1.0  0.32042180697578  0.048483495134739506  0.45200047169016944  1.0000
  H   H10       1.0  0.1795830050401364  0.4515227180314128  0.9519987870824308  1.0000
  H   H11       1.0  0.3204102626014063  0.9515186715221661  0.0480000898457433  1.0000
  H   H12       1.0  0.1795778742070766  0.5484803813232588  0.5479995283098305  1.0000
  H   H13       1.0  0.6795942305973668  0.9515149407311086  0.5480023359893949  1.0000
  H   H14       1.0  0.8204137919090613  0.5484794486254927  0.0480034590612277  1.0000
  H   H15       1.0  0.6795865343477843  0.048483495134739506  0.9519959794028594  1.0000
  H   H16       1.0  0.8204189227421139  0.4515143237515389  0.45200047169016944  1.0000
  H   H17       1.0  0.14329134013580366  0.9439199828441077  0.44250995322406067  1.0000
  H   H18       1.0  0.3567109064635829  0.5560828007923675  0.9425043378649248  1.0000
  H   H19       1.0  0.1432823611779597  0.0560793857195065  0.0574934159914164  1.0000
  H   H20       1.0  0.3567083410470531  0.443920298562297  0.5574911698477649  1.0000
  H   H21       1.0  0.8567221320208134  0.0560784530217475  0.5574922929195907  1.0000
  H   H22       1.0  0.6432858904856147  0.4439184331667718  0.0574951005991622  1.0000
  H   H23       1.0  0.8567144357712309  0.9439218482396329  0.9425048994008448  1.0000
  H   H24       1.0  0.6432871731938761  0.5560772046057849  0.4425088301522351  1.0000
  H   H25       1.0  0.10977802133061233  0.0985339225119191  0.47801643054081205  1.0000
  H   H26       1.0  0.3902267906853041  0.4014722906542332  0.9780164305408121  1.0000
  H   H27       1.0  0.1097690423727684  0.9014673114472203  0.0219841309951008  1.0000
  H   H28       1.0  0.3902216598522514  0.5985336067937297  0.521983007923275  1.0000
  H   H29       1.0  0.8902341681177434  0.9014635806561699  0.5219863771387523  1.0000
  H   H30       1.0  0.6097700062638935  0.5985308087004384  0.0219858156028394  1.0000
  H   H31       1.0  0.8902277545764292  0.0985339225119191  0.9780130613253347  1.0000
  H   H32       1.0  0.6097738543886848  0.40146203097883426  0.47801643054081205  1.0000
  C   C1        1.0  0.9999916661161381  0.10090670562189533  0.3270688386875804  1.0000
  C   C2        1.0  0.5000048120159164  0.3990948440554405  0.8270688386875804  1.0000
  C   C3        1.0  0.9999916661161381  0.8990945283372441  0.1729322843842453  1.0000
  C   C4        1.0  0.5000073774324463  0.6009045245081737  0.6729300382405938  1.0000
  C   C5        1.0  1.0261666112400004e-05  0.8990917302439528  0.6729362151356353  1.0000
  C   C6        1.0  0.4999868541002215  0.6009045245081737  0.17293453052789684  1.0000
  C   C7        1.0  1.28270826352e-05  0.1009085710174205  0.8270643464002773  1.0000
  C   C8        1.0  0.499994550349804  0.3990948440554405  0.3270682771516674  1.0000
  C   C9        1.0  0.2769918705840695  0.1336714453508066  0.3151159852428336  1.0000
  C   C10       1.0  0.2230180722648996  0.3663347678153457  0.8151165467787463  1.0000
  C   C11       1.0  0.2770021322501819  0.8663325867016242  0.1848828916853407  1.0000
  C   C12       1.0  0.2230078105987943  0.6336683315393259  0.6848823301494278  1.0000
  C   C13       1.0  0.7229920992824859  0.8663260578172824  0.6848823301494278  1.0000
  C   C14       1.0  0.7769761592677682  0.6336683315393259  0.1848873839726437  1.0000
  C   C15       1.0  0.723022884280816  0.1336742434440978  0.8151114929555305  1.0000
  C   C16       1.0  0.7770159232239422  0.3663263735354718  0.3151182313864851  1.0000
  C   C17       1.0  0.1840045004250399  0.0415190409357677  0.438615701667203  1.0000
  C   C18       1.0  0.315999028882608  0.458482508741568  0.9386168247390286  1.0000
  C   C19       1.0  0.1839980868837259  0.9584784622323212  0.061384298332796995  1.0000
  C   C20       1.0  0.3159964634660852  0.5415205906131035  0.5613826137250583  1.0000
  C   C21       1.0  0.8160038408985244  0.95847566413903  0.5613859829405357  1.0000
  C   C22       1.0  0.6839952026500598  0.5415187252175713  0.0613859829405357  1.0000
  C   C23       1.0  0.8160012754820016  0.0415227717268181  0.9386134555235514  1.0000
  C   C24       1.0  0.684005464316165  0.45847504715946036  0.4386134555235514  1.0000
  S   S1        1.0  0.8048468444210286  0.0561595977271594  0.3624018014072091  1.0000
  S   S2        1.0  0.6951534818358169  0.44383915385688516  0.8624006783353834  1.0000
  S   S3        1.0  0.804841713587976  0.9438379054409296  0.1376021293441809  1.0000
  S   S4        1.0  0.6951547645440854  0.5561592820089629  0.637595952449139  1.0000
  S   S5        1.0  0.1951602141942743  0.9438369727431706  0.6376026908800938  1.0000
  S   S6        1.0  0.3048394669885823  0.5561592820089629  0.1376026908800938  1.0000
  S   S7        1.0  0.1951602141942743  0.056162395820443606  0.8623973091199062  1.0000
  S   S8        1.0  0.3048484459464333  0.4438400865546512  0.3624018014072091  1.0000
  Br  Br1       1.0  0.0237070141293501  0.6945361875758992  0.4231049566775056  1.0000
  Br  Br2       1.0  0.476287536220454  0.8054731249449176  0.9231055182134185  1.0000
  Br  Br3       1.0  0.0237095795458799  0.3054706425698228  0.0768933587147558  1.0000
  Br  Br4       1.0  0.4762811226791328  0.194541166782912  0.5768950433224944  1.0000
  Br  Br5       1.0  0.9762782384454667  0.3054426616369241  0.57689223564293  1.0000
  Br  Br6       1.0  0.5237079780204752  0.1945355705963294  0.0768950433224944  1.0000
  Br  Br7       1.0  0.9762795211537353  0.6945333894826079  0.9231043951415927  1.0000
  Br  Br8       1.0  0.5237079780204752  0.8054637979672847  0.4231055182134185  1.0000
  N   N1        1.0  0.0297177850529593  0.15472989545184393  0.260380272120301  1.0000
  N   N2        1.0  0.4702793307133746  0.3452697888299596  0.7603780259766495  1.0000
  N   N3        1.0  0.0297177850529593  0.8452685404140043  0.23962141248743757  1.0000
  N   N4        1.0  0.4702844615464272  0.6547286470358884  0.7396191663437861  1.0000
  N   N5        1.0  0.9702854254375524  0.8452685404140043  0.7396230970951763  1.0000
  N   N6        1.0  0.5297136181110318  0.6547323778269458  0.2396230970951763  1.0000
  N   N7        1.0  0.9702854254375524  0.1547354916384265  0.7603752182970851  1.0000
  N   N8        1.0  0.5297149008192932  0.345273519621017  0.260380272120301  1.0000
  N   N9        1.0  0.1567200129482842  0.088134342450509  0.3627448998500711  1.0000
  N   N10       1.0  0.3432758201097883  0.4118653418313016  0.8627415306345938  1.0000
  N   N11       1.0  0.15671616482349296  0.9118687569041626  0.1372539770781032  1.0000
  N   N12       1.0  0.3432796682345796  0.5881340267323125  0.6372551001499289  1.0000
  N   N13       1.0  0.8432947419166013  0.9118678242063964  0.6372511693985388  1.0000
  N   N14       1.0  0.6567158460063569  0.5881340267323125  0.1372590309013191  1.0000
  N   N15       1.0  0.843284480250496  0.0881380732415593  0.8627420921705067  1.0000
  N   N16       1.0  0.6567132805898268  0.4118700053201181  0.3627482690655484  1.0000
  N   N17       1.0  0.20282567877803365  0.1746672428413305  0.25300730558222984  1.0000
  N   N18       1.0  0.2971688715717704  0.3253333741382392  0.7530078671181428  1.0000
  N   N19       1.0  0.202826961486295  0.8253321257222836  0.2469949405614216  1.0000
  N   N20       1.0  0.2971765678213529  0.6746669271231411  0.7469938174895958  1.0000
  N   N21       1.0  0.7971762490042167  0.8253293276289924  0.7469971867050729  1.0000
  N   N22       1.0  0.7028240772526289  0.6746687925186663  0.2469943790255087  1.0000
  N   N23       1.0  0.797173683587687  0.1746728390279131  0.7530044979026655  1.0000
  N   N24       1.0  0.7028215118361061  0.3253287106494227  0.2530016902231011  1.0000
