data_image0
_chemical_formula_structural       Zn4H32C76N8O24
_chemical_formula_sum              "Zn4 H32 C76 N8 O24"
_cell_length_a       5.597632206822664
_cell_length_b       14.687839709153607
_cell_length_c       27.712475410029274
_cell_angle_alpha    89.99985022297633
_cell_angle_beta     90.00009901445316
_cell_angle_gamma    100.17071567781859

_space_group_name_H-M_alt    "P 1"
_space_group_IT_number       1

loop_
  _space_group_symop_operation_xyz
  'x, y, z'

loop_
  _atom_site_type_symbol
  _atom_site_label
  _atom_site_symmetry_multiplicity
  _atom_site_fract_x
  _atom_site_fract_y
  _atom_site_fract_z
  _atom_site_occupancy
  Zn  Zn1       1.0  0.960955240906095  0.5900359343578854  0.9766902042872941  1.0000
  Zn  Zn2       1.0  0.539062058691087  0.9099655500900495  0.4766901863551496  1.0000
  Zn  Zn3       1.0  0.039045842421558084  0.4099640637419597  0.0233098010534505  1.0000
  Zn  Zn4       1.0  0.46094795686051543  0.0900344477416724  0.5233098189871511  1.0000
  H   H1        1.0  0.2180284756080013  0.7593226677167734  0.42767007440327376  1.0000
  H   H2        1.0  0.1909016888092267  0.6919306280345621  0.3437151480424205  1.0000
  H   H3        1.0  0.936418812229043  0.8242457125254955  0.3223529657906923  1.0000
  H   H4        1.0  0.9361738712010776  0.8837267422569539  0.4073384756657177  1.0000
  H   H5        1.0  0.9336798464124526  0.5316521965948056  0.22953576570692039  1.0000
  H   H6        1.0  0.9314234712039492  0.47867612642701823  0.1435196680910167  1.0000
  H   H7        1.0  0.11940448794659626  0.7539877346148457  0.08889086993117698  1.0000
  H   H8        1.0  0.1496289508514224  0.8144424747530578  0.1741365560710904  1.0000
  H   H9        1.0  0.2819705176153207  0.7406779263670414  0.9276694596258748  1.0000
  H   H10       1.0  0.30909382734982654  0.808071725381893  0.843715170689002  1.0000
  H   H11       1.0  0.5635792995858253  0.6757557716298451  0.8223538085999919  1.0000
  H   H12       1.0  0.5638262585613633  0.6162736697108285  0.9073386795856635  1.0000
  H   H13       1.0  0.5663155552968534  0.968349011404463  0.7295336766195462  1.0000
  H   H14       1.0  0.5685778743668947  0.021325723947299504  0.643517118925871  1.0000
  H   H15       1.0  0.38059134238417164  0.746012300871655  0.5888902820983333  1.0000
  H   H16       1.0  0.3503758616202646  0.6855599457401877  0.6741371243267978  1.0000
  H   H17       1.0  0.7819672483852855  0.24067733054393867  0.572329930936533  1.0000
  H   H18       1.0  0.8090946764468397  0.3080707536373096  0.6562841355999113  1.0000
  H   H19       1.0  0.06357901883807669  0.17575497738879153  0.6776459570040672  1.0000
  H   H20       1.0  0.0638254256806121  0.11627325589731898  0.5926611688264032  1.0000
  H   H21       1.0  0.06632009173553399  0.46834918496820416  0.7704642396326663  1.0000
  H   H22       1.0  0.06857793275626277  0.5213245633775969  0.8564803372493089  1.0000
  H   H23       1.0  0.880591556683939  0.2460129553474033  0.9111105788014626  1.0000
  H   H24       1.0  0.8503730943774316  0.18555959845867415  0.8258645318133233  1.0000
  H   H25       1.0  0.7180308863425467  0.2593227634391866  0.072329824017821  1.0000
  H   H26       1.0  0.6909040037184653  0.1919289645315843  0.1562841129540686  1.0000
  H   H27       1.0  0.4364199972970368  0.32424422652361773  0.17764619674044008  1.0000
  H   H28       1.0  0.43617514539884883  0.3837270200937866  0.09266132575465488  1.0000
  H   H29       1.0  0.4336788861650049  0.031648220037972394  0.2704659678736547  1.0000
  H   H30       1.0  0.43141688772634984  0.9786721992007158  0.35648216471858524  1.0000
  H   H31       1.0  0.6194097409446543  0.2539876972273802  0.4111100840907298  1.0000
  H   H32       1.0  0.6496263668882207  0.3144386688956828  0.3258632418634236  1.0000
  C   C1        1.0  0.37312285780008386  0.7706386647256592  0.4032522099125657  1.0000
  C   C2        1.0  0.3583398845165391  0.733941688377385  0.35690054535653803  1.0000
  C   C3        1.0  0.5621645960308967  0.7548288697801481  0.3272983749876559  1.0000
  C   C4        1.0  0.7749628825583272  0.8080623164060226  0.34492220665032386  1.0000
  C   C5        1.0  0.774997806361398  0.8412312989463755  0.39188406558741906  1.0000
  C   C6        1.0  0.706395734030295  0.659244273982864  0.2660765809531611  1.0000
  C   C7        1.0  0.6913716082210256  0.626281879634753  0.2158198133152709  1.0000
  C   C8        1.0  0.5418998162046762  0.6614504358913535  0.1816037649356446  1.0000
  C   C9        1.0  0.39917388069785176  0.7277589714954756  0.19588210085834848  1.0000
  C   C10       1.0  0.398202019336658  0.7593764610913709  0.24631820825619138  1.0000
  C   C11       1.0  0.8244943200447991  0.55915809894649  0.20246633051255  1.0000
  C   C12       1.0  0.8201732070672634  0.5288439525249089  0.15454352978615296  1.0000
  C   C13       1.0  0.6834509887555456  0.5643545262863013  0.11962130324140928  1.0000
  C   C14       1.0  0.5325400430138032  0.629103494315437  0.1326936837606354  1.0000
  C   C15       1.0  0.3696782927373121  0.6621053076506696  0.1001057821430322  1.0000
  C   C16       1.0  0.24179150009971545  0.7302768756187631  0.11473883324715932  1.0000
  C   C17       1.0  0.25613800519725766  0.7632226951789673  0.1623069199985636  1.0000
  C   C18       1.0  0.7294608257452847  0.5376994289189623  0.0684602559785858  1.0000
  C   C19       1.0  0.28820517532729883  0.6146029885813037  0.0532316051247719  1.0000
  C   C20       1.0  0.1268784044963667  0.7293634220170943  0.903252278528079  1.0000
  C   C21       1.0  0.14165718311817702  0.7660599142573333  0.8569005680877311  1.0000
  C   C22       1.0  0.9378317614653185  0.7451725922934428  0.8272981691163891  1.0000
  C   C23       1.0  0.7250353758842678  0.6919390667207066  0.8449227223619217  1.0000
  C   C24       1.0  0.7250025436275679  0.6587698739073744  0.8918839057191548  1.0000
  C   C25       1.0  0.7935995844483587  0.8407560787383159  0.7660751093519592  1.0000
  C   C26       1.0  0.8086188489564351  0.8737166230521395  0.7158172185633873  1.0000
  C   C27       1.0  0.9580957780159095  0.8385482197965145  0.6816027145682639  1.0000
  C   C28       1.0  0.10082475181378213  0.7722412767058983  0.6958810182194598  1.0000
  C   C29       1.0  0.10179254341268519  0.7406256366128261  0.7463168090763617  1.0000
  C   C30       1.0  0.6754981574564313  0.940841155165998  0.7024643177228213  1.0000
  C   C31       1.0  0.6798270667626553  0.9711575910107512  0.6545411154953271  1.0000
  C   C32       1.0  0.8165550587935113  0.9356485568218529  0.6196200685191756  1.0000
  C   C33       1.0  0.967459768234022  0.8708974553207083  0.6326929525167911  1.0000
  C   C34       1.0  0.13032296979098854  0.8378946774711978  0.6001057010218531  1.0000
  C   C35       1.0  0.2582077504179594  0.7697223523496247  0.6147381697966239  1.0000
  C   C36       1.0  0.24386072981813808  0.7367783950210479  0.6623070190625029  1.0000
  C   C37       1.0  0.77054896622014  0.962301116229156  0.5684582464612049  1.0000
  C   C38       1.0  0.21181479229784378  0.8853958223672008  0.5532325688787765  1.0000
  C   C39       1.0  0.626875293900767  0.22936271689258794  0.5967470737300857  1.0000
  C   C40       1.0  0.6416546942947293  0.2660596933481045  0.643098738285488  1.0000
  C   C41       1.0  0.43783176922516986  0.2451725118917167  0.6727009086546828  1.0000
  C   C42       1.0  0.22503169625412056  0.19193906531865676  0.6550774378400135  1.0000
  C   C43       1.0  0.2250003453406251  0.1587700826710616  0.6081155789035364  1.0000
  C   C44       1.0  0.29360031059555064  0.3407564159826181  0.7339234243862193  1.0000
  C   C45       1.0  0.3086304370054904  0.37372019357859904  0.7841805528725061  1.0000
  C   C46       1.0  0.45810337419915464  0.338550253860447  0.8183958795566753  1.0000
  C   C47       1.0  0.6008278438960986  0.27224241001309923  0.804118265329862  1.0000
  C   C48       1.0  0.6017975981799425  0.24062422876605175  0.7536821579321327  1.0000
  C   C49       1.0  0.17550740454915104  0.44084328256208477  0.7975340356756533  1.0000
  C   C50       1.0  0.17982851752668685  0.4711574289836661  0.8454568364020574  1.0000
  C   C51       1.0  0.31655073583605997  0.43564685522389357  0.8803783412501717  1.0000
  C   C52       1.0  0.4674598951341906  0.3708978872475653  0.867306321578944  1.0000
  C   C53       1.0  0.630318072523437  0.33789607401796207  0.8998949448925585  1.0000
  C   C54       1.0  0.7582066516058247  0.26972450599625114  0.885261893788737  1.0000
  C   C55       1.0  0.7438640400292584  0.2367793780343845  0.8376934461892204  1.0000
  C   C56       1.0  0.2705357227974403  0.46229849417219526  0.931540471059435  1.0000
  C   C57       1.0  0.7117941215567356  0.3853970095713563  0.9467687610639786  1.0000
  C   C58       1.0  0.8731244652760782  0.2706365760291263  0.09674772681297839  1.0000
  C   C59       1.0  0.858342113764685  0.23394008389612958  0.143099437252701  1.0000
  C   C60       1.0  0.0621672147838126  0.25482671415605296  0.17270147537615796  1.0000
  C   C61       1.0  0.2749653868119921  0.3080602396735515  0.1550776438275605  1.0000
  C   C62       1.0  0.2749985396989132  0.3412301241932809  0.10811573877327871  1.0000
  C   C63       1.0  0.20639760535480176  0.15924322776562144  0.233924174291964  1.0000
  C   C64       1.0  0.1913752718705197  0.12627991668713887  0.2841817042336103  1.0000
  C   C65       1.0  0.04189834281221749  0.16144831994195388  0.318396569077052  1.0000
  C   C66       1.0  0.8991735831702173  0.22775664633406476  0.3041186262739402  1.0000
  C   C67       1.0  0.8982064328352665  0.2593736698374797  0.2536824745678672  1.0000
  C   C68       1.0  0.3244944975606359  0.059156076330054895  0.29753532677006694  1.0000
  C   C69       1.0  0.320167695332934  0.0288403321356441  0.3454588898457587  1.0000
  C   C70       1.0  0.18344359682422612  0.0643500579220699  0.38037993682210913  1.0000
  C   C71       1.0  0.03253888738254317  0.12910115942401748  0.3673066919761823  1.0000
  C   C72       1.0  0.8696813657948539  0.16210462881581822  0.39989466516825434  1.0000
  C   C73       1.0  0.7417947987219194  0.2302769539918259  0.3852618355448598  1.0000
  C   C74       1.0  0.7561364599885466  0.26322091148045956  0.3376933471263611  1.0000
  C   C75       1.0  0.2294521171086856  0.03769888186987909  0.43154211972785106  1.0000
  C   C76       1.0  0.7881991167817616  0.11460486705800578  0.4467692407052866  1.0000
  N   N1        1.0  0.5764120305442758  0.8240923633185486  0.42027017544793915  1.0000
  N   N2        1.0  0.5532135513185068  0.7225427867522498  0.2784106664369475  1.0000
  N   N3        1.0  0.9235902903096972  0.6759086824134072  0.9202700609390888  1.0000
  N   N4        1.0  0.9467803814844942  0.7774582025120723  0.7784104187838848  1.0000
  N   N5        1.0  0.42358580052518857  0.17590832659411856  0.5797294690434427  1.0000
  N   N6        1.0  0.4467828139398975  0.2774585949180021  0.7215893389020139  1.0000
  N   N7        1.0  0.07641290009296853  0.32409200733919624  0.0797292227049198  1.0000
  N   N8        1.0  0.053218915397195594  0.2225417956422007  0.22158922570823586  1.0000
  O   O1        1.0  0.760858354581771  0.6021774058406919  0.03705811387368391  1.0000
  O   O2        1.0  0.7553526538794769  0.45476695269962153  0.0617608083782315  1.0000
  O   O3        1.0  0.23796177782586622  0.6637052292443216  0.018441454677677896  1.0000
  O   O4        1.0  0.24833181322438241  0.5262674101082396  0.05548082713745119  1.0000
  O   O5        1.0  0.2751738203644507  0.8155839910219456  0.2609570420990295  1.0000
  O   O6        1.0  0.8391258531171956  0.6334780101154464  0.2968104336579884  1.0000
  O   O7        1.0  0.7391645630332989  0.8978212043306185  0.5370572656350063  1.0000
  O   O8        1.0  0.7446561308386492  0.04523318828219659  0.5617568439208682  1.0000
  O   O9        1.0  0.26207614885976943  0.8362944286037218  0.5184443084693058  1.0000
  O   O10       1.0  0.2516777709770607  0.9737320827985626  0.5554816819333368  1.0000
  O   O11       1.0  0.22482734201020085  0.6844166575251973  0.7609572073503015  1.0000
  O   O12       1.0  0.6608745204563533  0.8665249717385918  0.7968096016712352  1.0000
  O   O13       1.0  0.23914355329298337  0.39782051709121186  0.9629418914686454  1.0000
  O   O14       1.0  0.2446484294516935  0.5452330453977935  0.938240279507454  1.0000
  O   O15       1.0  0.7620345874337174  0.33629615242512756  0.9815589115096017  1.0000
  O   O16       1.0  0.7516656972148609  0.47373258809803787  0.9445195390509866  1.0000
  O   O17       1.0  0.7248222242613948  0.1844166989435365  0.7390429632403581  1.0000
  O   O18       1.0  0.16086987087960844  0.36652198814284276  0.7031906542267663  1.0000
  O   O19       1.0  0.2608451318869101  0.1021781017955306  0.4629431005560321  1.0000
  O   O20       1.0  0.25534041770407606  0.9547647348089612  0.43824388311715273  1.0000
  O   O21       1.0  0.7379570904834836  0.16370556852443485  0.4815585836635492  1.0000
  O   O22       1.0  0.7483272058750786  0.0262686068971831  0.44451904510422935  1.0000
  O   O23       1.0  0.7751719548726612  0.31558334062827237  0.23904279799013747  1.0000
  O   O24       1.0  0.33912720413525216  0.13347640977159606  0.20319004282034567  1.0000
