data_image0
_chemical_formula_structural       Cu2H16Pt2C32N12
_chemical_formula_sum              "Cu2 H16 Pt2 C32 N12"
_cell_length_a       6.543898622166849
_cell_length_b       10.35990112269556
_cell_length_c       11.466771507337379
_cell_angle_alpha    90.01363158519527
_cell_angle_beta     90.00548877206461
_cell_angle_gamma    71.56900695329652

_space_group_name_H-M_alt    "P 1"
_space_group_IT_number       1

loop_
  _space_group_symop_operation_xyz
  'x, y, z'

loop_
  _atom_site_type_symbol
  _atom_site_label
  _atom_site_symmetry_multiplicity
  _atom_site_fract_x
  _atom_site_fract_y
  _atom_site_fract_z
  _atom_site_occupancy
  Cu  Cu1       1.0  0.3712002585873859  0.25714811066441007  0.2499929435887438  1.0000
  Cu  Cu2       1.0  0.6288000048094842  0.7428564566339446  0.7500100547381264  1.0000
  H   H1        1.0  0.8929878557563525  0.883055549656369  0.3021752692545476  1.0000
  H   H2        1.0  0.22374423172007613  0.8829046814721548  0.1979804295159724  1.0000
  H   H3        1.0  0.10702358994883807  0.11694799880172015  0.6978267651403769  1.0000
  H   H4        1.0  0.7762619097862923  0.11709072754293715  0.8020138349384567  1.0000
  H   H5        1.0  0.6441777166735176  0.520311630443267  0.4512761900217725  1.0000
  H   H6        1.0  0.8348127583006144  0.5199513051628343  0.04842160612799518  1.0000
  H   H7        1.0  0.35581997760056794  0.4796949718341779  0.5487259496370456  1.0000
  H   H8        1.0  0.1651962073584911  0.480045122193097  0.9515830960193911  1.0000
  H   H9        1.0  0.9281044986960011  0.31134451889895604  0.3840966359273139  1.0000
  H   H10       1.0  0.7600308214135654  0.3110811649548141  0.11584309698127979  1.0000
  H   H11       1.0  0.07189365839665372  0.6886610657186837  0.6159037596601351  1.0000
  H   H12       1.0  0.239974093236185  0.6889172977734718  0.8841625035917532  1.0000
  H   H13       1.0  0.6773499379958208  0.7480326154335872  0.40669454091597856  1.0000
  H   H14       1.0  0.5739975503151695  0.7477183211116768  0.0931406033314985  1.0000
  H   H15       1.0  0.3226553734813749  0.2519739858209747  0.593306661151523  1.0000
  H   H16       1.0  0.42600822071496214  0.25227810598251926  0.9068588931397273  1.0000
  Pt  Pt1       1.0  0.9999986362741922  5.74377153799992e-07  0.4999995883823658  1.0000
  Pt  Pt2       1.0  0.9999853258559668  0.9999913422831171  0.9999970768337505  1.0000
  C   C1        1.0  0.015406232187288454  0.787340565224774  0.2796625517877942  1.0000
  C   C2        1.0  0.1968929330671967  0.7872648443590438  0.22044337915261994  1.0000
  C   C3        1.0  0.9846025740498235  0.21266196573107984  0.7203360208050285  1.0000
  C   C4        1.0  0.8031117287296823  0.21273666938301267  0.7795526167454554  1.0000
  C   C5        1.0  0.17082639433763092  0.07352831344491761  0.3920830432845576  1.0000
  C   C6        1.0  0.7555890379967989  0.07345617119571561  0.10794869582770159  1.0000
  C   C7        1.0  0.8291728269056475  0.9264752364820626  0.6079190960782981  1.0000
  C   C8        1.0  0.24439170368595572  0.926535171638243  0.8920484203690293  1.0000
  C   C9        1.0  0.1368253852978042  0.5382968606398679  0.2816236593958479  1.0000
  C   C10       1.0  0.32429099104484016  0.5382290846132778  0.2183550150379006  1.0000
  C   C11       1.0  0.8631742987640437  0.4617056716273069  0.7183767358956389  1.0000
  C   C12       1.0  0.67570917892116  0.4617724300989182  0.7816445081685756  1.0000
  C   C13       1.0  0.7813754011472581  0.5295505670060835  0.4024798124656854  1.0000
  C   C14       1.0  0.6884410994126141  0.5292299624858005  0.0973149497790189  1.0000
  C   C15       1.0  0.21862534815375753  0.4704529827372853  0.5975223137761745  1.0000
  C   C16       1.0  0.31156316773390796  0.4707695170636868  0.902685418974528  1.0000
  C   C17       1.0  0.942223413841653  0.4109867746502615  0.3659022383053951  1.0000
  C   C18       1.0  0.6462385113797493  0.41075331574674595  0.1340181381087646  1.0000
  C   C19       1.0  0.05777784444909874  0.5890157576429546  0.634099887837813  1.0000
  C   C20       1.0  0.3537662878420845  0.5892451464574081  0.8659831025324821  1.0000
  C   C21       1.0  0.8000867775867277  0.6556679397157268  0.37714424945824737  1.0000
  C   C22       1.0  0.5436398362280174  0.6554035950162671  0.1227515586299504  1.0000
  C   C23       1.0  0.19991598567617783  0.34433459228905156  0.6228569915776134  1.0000
  C   C24       1.0  0.4563649399082336  0.34459486708306036  0.8772488100249377  1.0000
  C   C25       1.0  0.7410689383868386  0.15553652464581802  0.4601865611135167  1.0000
  C   C26       1.0  0.103067332066729  0.15558913965050183  0.0398302469311176  1.0000
  C   C27       1.0  0.25893269038014904  0.8444649895682873  0.5398103330128947  1.0000
  C   C28       1.0  0.8969051856381397  0.8443879604029191  0.9601643831353003  1.0000
  C   C29       1.0  0.9807403452256266  0.6629902023127627  0.3132855646488508  1.0000
  C   C30       1.0  0.35574681971863237  0.6628485995240396  0.18671855510914534  1.0000
  C   C31       1.0  0.019263389845583807  0.3370102945820507  0.686713932216989  1.0000
  C   C32       1.0  0.6442542538874603  0.3371539319305726  0.8132765951432077  1.0000
  N   N1        1.0  0.11655722043117576  0.41518927185606447  0.3082586366815008  1.0000
  N   N2        1.0  0.46770423202860195  0.41507202961064843  0.19172102131311422  1.0000
  N   N3        1.0  0.8834399406790537  0.584815295599853  0.6917426439146438  1.0000
  N   N4        1.0  0.532293922886964  0.5849274506732842  0.8082793999243947  1.0000
  N   N5        1.0  0.2628032969719882  0.12430880414351723  0.3286062544418087  1.0000
  N   N6        1.0  0.6127526867651908  0.12423450841536983  0.1714305592747465  1.0000
  N   N7        1.0  0.7372026620084282  0.8756967802898431  0.6714001794451789  1.0000
  N   N8        1.0  0.38723838519967313  0.8757700598798265  0.8285716457917117  1.0000
  N   N9        1.0  0.5925488804527176  0.2493136344881748  0.43426941859787865  1.0000
  N   N10       1.0  0.15791767559810668  0.24933010016482635  0.0656710617967562  1.0000
  N   N11       1.0  0.40745029461939447  0.7506899152291525  0.5657309767922598  1.0000
  N   N12       1.0  0.842078344484946  0.7506551364993046  0.9343259488401258  1.0000
