data_image0
_chemical_formula_structural       Cd2H44C48Br4N8O12
_chemical_formula_sum              "Cd2 H44 C48 Br4 N8 O12"
_cell_length_a       11.382364150084413
_cell_length_b       11.531462478295182
_cell_length_c       12.00807494075864
_cell_angle_alpha    89.49056012858212
_cell_angle_beta     65.88650422606592
_cell_angle_gamma    68.31778797377837

_space_group_name_H-M_alt    "P 1"
_space_group_IT_number       1

loop_
  _space_group_symop_operation_xyz
  'x, y, z'

loop_
  _atom_site_type_symbol
  _atom_site_label
  _atom_site_symmetry_multiplicity
  _atom_site_fract_x
  _atom_site_fract_y
  _atom_site_fract_z
  _atom_site_occupancy
  Cd  Cd1       1.0  0.6593524173512151  0.0891782798911294  0.6201691626411119  1.0000
  Cd  Cd2       1.0  0.3406219623423751  0.9108165121782507  0.37987233174826684  1.0000
  H   H1        1.0  0.8045255531717854  0.9885010262388507  0.821429997028005  1.0000
  H   H2        1.0  0.1954777992704635  0.011502178150472303  0.1785652011403442  1.0000
  H   H3        1.0  0.09614331491093249  0.15313679991418644  0.6432039223341234  1.0000
  H   H4        1.0  0.9038536753352916  0.8468720097816703  0.35678533155780184  1.0000
  H   H5        1.0  0.9055135895753635  0.20436625600977723  0.5391894269439916  1.0000
  H   H6        1.0  0.09448047020647711  0.7956340644324842  0.46080940422976363  1.0000
  H   H7        1.0  0.10110631839027906  0.8987746027992217  0.7965803283856233  1.0000
  H   H8        1.0  0.898897793195161  0.10122477651778891  0.20340963182343313  1.0000
  H   H9        1.0  0.13076181114898588  0.037745641278107214  0.8031216534138252  1.0000
  H   H10       1.0  0.8692314305286285  0.9622650784703812  0.19687318788633237  1.0000
  H   H11       1.0  0.8713465341841978  0.9982288782354732  0.9880965587255164  1.0000
  H   H12       1.0  0.1286473466888793  0.001776136685038  0.011895615087603083  1.0000
  H   H13       1.0  0.9050914329256797  0.13502031676796383  0.9967039374114249  1.0000
  H   H14       1.0  0.09491193228039654  0.8649828644266508  0.003287924983453664  1.0000
  H   H15       1.0  0.7488821405071349  0.7976396603980762  0.7226280739301456  1.0000
  H   H16       1.0  0.25110826157670363  0.20235593787613484  0.2773772330510411  1.0000
  H   H17       1.0  0.6299917580403258  0.9000039897996289  0.43332821601111243  1.0000
  H   H18       1.0  0.37001178252506156  0.09998593855100783  0.5666670910689078  1.0000
  H   H19       1.0  0.7017612608905137  0.6411552873108947  0.4333313050037546  1.0000
  H   H20       1.0  0.2982272679218595  0.3588487801013758  0.5666662826125374  1.0000
  H   H21       1.0  0.7240184751772104  0.5140308016001498  0.6278337381773866  1.0000
  H   H22       1.0  0.2759897495347799  0.4859658312747755  0.3721663280768013  1.0000
  H   H23       1.0  0.8048858391123089  0.5697018624369792  0.7011552111849326  1.0000
  H   H24       1.0  0.19512712754204387  0.4303099347504898  0.2988386498816594  1.0000
  H   H25       1.0  0.976533648634259  0.3801896751824999  0.5404000824507307  1.0000
  H   H26       1.0  0.023468759015607004  0.6198134961903393  0.45959131758416316  1.0000
  H   H27       1.0  0.9357348079630015  0.45834017733626803  0.42525869620043716  1.0000
  H   H28       1.0  0.06427014797132806  0.54166588461392  0.5747366755729644  1.0000
  H   H29       1.0  0.5778078089793367  0.6030745765301192  0.26768530568201504  1.0000
  H   H30       1.0  0.42219982759253577  0.3969276683939782  0.7323040849653282  1.0000
  H   H31       1.0  0.5249758074370163  0.520617313185042  0.11023786242859045  1.0000
  H   H32       1.0  0.47502598973601784  0.4793915108276895  0.8897486996030324  1.0000
  H   H33       1.0  0.6055783203483286  0.16175428146158313  0.24136160379031676  1.0000
  H   H34       1.0  0.39442397409421653  0.8382555627226438  0.758634745448944  1.0000
  H   H35       1.0  0.005443541016113304  0.26433908414622925  0.2175777132965706  1.0000
  H   H36       1.0  0.994559710624145  0.7356622056953839  0.7824150516838273  1.0000
  H   H37       1.0  0.8352923021651647  0.38438312693806853  0.13560470893892076  1.0000
  H   H38       1.0  0.16470251392741625  0.6156219383949519  0.8643937648377572  1.0000
  H   H39       1.0  0.17702400022704265  0.3087627591134209  0.7723967612872896  1.0000
  H   H40       1.0  0.8229738311771158  0.6912527390142884  0.22759873811234857  1.0000
  H   H41       1.0  0.6781201025650957  0.4015053960399869  0.46994607617315154  1.0000
  H   H42       1.0  0.3218817398549376  0.5985075412032473  0.5300862154593773  1.0000
  H   H43       1.0  0.37403311794729877  0.11559075516826312  0.011170585438648642  1.0000
  H   H44       1.0  0.6259649192019764  0.8844179019864812  0.9887957803989663  1.0000
  C   C1        1.0  0.8578374246492828  0.03992023003394251  0.7579026729378454  1.0000
  C   C2        1.0  0.14216688499067232  0.9600744200127594  0.2420889409716338  1.0000
  C   C3        1.0  0.007945784026190868  0.12762636667147834  0.6631857866370509  1.0000
  C   C4        1.0  0.9920583243682869  0.8723730184442076  0.3368050075153732  1.0000
  C   C5        1.0  0.9142822582833717  0.15208110839414254  0.6127757462600982  1.0000
  C   C6        1.0  0.08570607211598959  0.8479191241240329  0.38721614103693014  1.0000
  C   C7        1.0  0.048218400028083884  0.001781184660401901  0.8271194427095521  1.0000
  C   C8        1.0  0.9517847511686875  0.9982267547979052  0.17287493570174228  1.0000
  C   C9        1.0  0.9558621889627545  0.03188460976314641  0.9659024599731791  1.0000
  C   C10       1.0  0.044141828561116335  0.9681214075732073  0.034087445780038264  1.0000
  C   C11       1.0  0.7300130568927942  0.7918428788073938  0.6415145796642604  1.0000
  C   C12       1.0  0.26997586802860235  0.20815173006425886  0.3584863153528772  1.0000
  C   C13       1.0  0.6682432303467319  0.8401848823790986  0.49160651968930585  1.0000
  C   C14       1.0  0.3317613937460208  0.15979835978722431  0.5083809647728543  1.0000
  C   C15       1.0  0.705379555763528  0.7122763736051213  0.488845222429589  1.0000
  C   C16       1.0  0.294616139419979  0.2877267464112522  0.5111454429155415  1.0000
  C   C17       1.0  0.7996301736317264  0.5570186283204707  0.6130152466259844  1.0000
  C   C18       1.0  0.20038116364437278  0.442981793531125  0.3869810657636421  1.0000
  C   C19       1.0  0.9445829270114104  0.47321787600610327  0.5115896585663293  1.0000
  C   C20       1.0  0.05542199346388092  0.5267796855651099  0.488410839965276  1.0000
  C   C21       1.0  0.63167872292302  0.30324872103800976  0.3331801862332783  1.0000
  C   C22       1.0  0.3683324908022526  0.6966876022599778  0.6668728478615691  1.0000
  C   C23       1.0  0.6259766365956027  0.4281888202445289  0.3390596103184365  1.0000
  C   C24       1.0  0.37402211380453565  0.5717774666092909  0.6609503644808399  1.0000
  C   C25       1.0  0.5845127695057215  0.5064479852592711  0.2599821584733206  1.0000
  C   C26       1.0  0.4154962509737884  0.4935382889001546  0.7400277352580317  1.0000
  C   C27       1.0  0.5550845632390775  0.4600093652925851  0.1725110984257299  1.0000
  C   C28       1.0  0.44491846446049965  0.539988136044336  0.8274826377823387  1.0000
  C   C29       1.0  0.5662335303105692  0.3348478484715116  0.16391292241111435  1.0000
  C   C30       1.0  0.4337744935144553  0.6651620836368014  0.8360903707048665  1.0000
  C   C31       1.0  0.6016857124984794  0.2575620886733105  0.24434661104577773  1.0000
  C   C32       1.0  0.39832411758786884  0.7424394960691175  0.7556819142458195  1.0000
  C   C33       1.0  0.6636266771408472  0.22400082615779843  0.42348361825312963  1.0000
  C   C34       1.0  0.3363993133000916  0.7759240568276483  0.5765463695497246  1.0000
  C   C35       1.0  0.23473981523182633  0.2302851126982192  0.9146103877087696  1.0000
  C   C36       1.0  0.765251297324056  0.7697303456703826  0.0853860448878407  1.0000
  C   C37       1.0  0.18645659896839814  0.21544699534589282  0.040563825981003276  1.0000
  C   C38       1.0  0.81353637126265  0.7845685870424222  0.9594485423161884  1.0000
  C   C39       1.0  0.042164378414852925  0.2728627323067768  0.11979709699403432  1.0000
  C   C40       1.0  0.9578272377924648  0.7271537346359697  0.880207454923486  1.0000
  C   C41       1.0  0.9470363703065416  0.3402840652830649  0.07417564522543071  1.0000
  C   C42       1.0  0.05295471991263406  0.6597314336762566  0.9258266249747535  1.0000
  C   C43       1.0  0.9955438808102668  0.3514782735558343  0.9488132541440633  1.0000
  C   C44       1.0  0.004443927867413196  0.6485466776734513  0.051187657348812456  1.0000
  C   C45       1.0  0.1377755251768632  0.2987844010627755  0.8695732870680787  1.0000
  C   C46       1.0  0.8622077001561904  0.7012357601899312  0.13042529843857412  1.0000
  C   C47       1.0  0.3875395930164417  0.17479650325036292  0.8309098951702296  1.0000
  C   C48       1.0  0.6124353039528285  0.8252293364441173  0.1690951644339266  1.0000
  Br  Br1       1.0  0.5325994663596632  0.26882252184312  0.039880625363750304  1.0000
  Br  Br2       1.0  0.4674222598680443  0.7311740745765294  0.9601008956291396  1.0000
  Br  Br3       1.0  0.8623633059092625  0.44005490753759363  0.8871838742598468  1.0000
  Br  Br4       1.0  0.13763291597938115  0.5599663087910047  0.11281716604031541  1.0000
  N   N1        1.0  0.8214345410966147  0.09699562492324532  0.6728133052574776  1.0000
  N   N2        1.0  0.17857753617693084  0.9030010066480901  0.3271827728330622  1.0000
  N   N3        1.0  0.9711742793254314  0.05657785006777521  0.7542717370800105  1.0000
  N   N4        1.0  0.028823538597890806  0.9434205429258353  0.24571900485540252  1.0000
  N   N5        1.0  0.6843656216569723  0.8884652457762884  0.5868902457995234  1.0000
  N   N6        1.0  0.3156257064319874  0.11153898447086873  0.4131279095941665  1.0000
  N   N7        1.0  0.7441571480256215  0.6834022021332871  0.5841570144708541  1.0000
  N   N8        1.0  0.25583729865086713  0.3165972413287791  0.41585167255269084  1.0000
  O   O1        1.0  0.6906786690311647  0.27131177018053176  0.503074055595718  1.0000
  O   O2        1.0  0.30929673684232006  0.728635713565318  0.49698267949451497  1.0000
  O   O3        1.0  0.6611144377230146  0.11479872637183772  0.4240306230780106  1.0000
  O   O4        1.0  0.3389413704071557  0.8851220231326098  0.5759212674547456  1.0000
  O   O5        1.0  0.660602523263705  0.47321125764943167  0.41906781052918524  1.0000
  O   O6        1.0  0.33940126393756737  0.5267909827795736  0.5809247343384385  1.0000
  O   O7        1.0  0.4269295489306727  0.19766855555264584  0.7198286706551187  1.0000
  O   O8        1.0  0.573057401594319  0.8024011270232523  0.2801952787033387  1.0000
  O   O9        1.0  0.4734710596519137  0.10763370550710502  0.8724502507272333  1.0000
  O   O10       1.0  0.5265091744632283  0.8923417199038971  0.12752845113412567  1.0000
  O   O11       1.0  0.27668535222210267  0.14695029588672537  0.08595954396179199  1.0000
  O   O12       1.0  0.7233271338345375  0.8530775804646711  0.9140284534180194  1.0000
