data_image0
_chemical_formula_structural       Ni2H12C12N4O12
_chemical_formula_sum              "Ni2 H12 C12 N4 O12"
_cell_length_a       7.1445706151348345
_cell_length_b       7.1480369154561245
_cell_length_c       10.407592659588751
_cell_angle_alpha    83.83956240353331
_cell_angle_beta     119.85604578633549
_cell_angle_gamma    115.57714379074415

_space_group_name_H-M_alt    "P 1"
_space_group_IT_number       1

loop_
  _space_group_symop_operation_xyz
  'x, y, z'

loop_
  _atom_site_type_symbol
  _atom_site_label
  _atom_site_symmetry_multiplicity
  _atom_site_fract_x
  _atom_site_fract_y
  _atom_site_fract_z
  _atom_site_occupancy
  Ni  Ni1       1.0  6.845413838252857e-07  0.9999992703745875  0.5000008936463801  1.0000
  Ni  Ni2       1.0  9.544106234413916e-07  0.5000000887414942  3.6628759400336964e-07  1.0000
  H   H1        1.0  0.28416758806857695  0.44174080045466707  0.2822427573004376  1.0000
  H   H2        1.0  0.6592793312580978  0.0018412552930656024  0.21776591519532928  1.0000
  H   H3        1.0  0.7158372333215226  0.558263102271134  0.7177573346552181  1.0000
  H   H4        1.0  0.34071688511286885  0.9981548601747079  0.7822331115287184  1.0000
  H   H5        1.0  0.32700954890779604  0.3633639432367063  0.1640763263484786  1.0000
  H   H6        1.0  0.6993104570070727  0.16291709686184672  0.3359863942742153  1.0000
  H   H7        1.0  0.6729910404389656  0.6366353000460379  0.8359218153992316  1.0000
  H   H8        1.0  0.3006889686295083  0.8370821302812033  0.6640133863097191  1.0000
  H   H9        1.0  0.7203802994116302  0.05106166859497561  0.8544444418149199  1.0000
  H   H10       1.0  0.6972040428962458  0.8658530264176888  0.6460103180366019  1.0000
  H   H11       1.0  0.2796161936156524  0.9489407307304488  0.14555546876011496  1.0000
  H   H12       1.0  0.30279280349695625  0.1341478234130875  0.35398778295610367  1.0000
  C   C1        1.0  0.12091137871745873  0.3380453686730576  0.6882444337596354  1.0000
  C   C2        1.0  0.14949179678614405  0.43287611224906203  0.8115995970618002  1.0000
  C   C3        1.0  0.8790882914640076  0.6619569914655373  0.31175630155077266  1.0000
  C   C4        1.0  0.8505074485284112  0.5671262836226489  0.18839908704469374  1.0000
  C   C5        1.0  0.82286965327183  0.028227436008919013  0.693705147272027  1.0000
  C   C6        1.0  0.8346649350354552  0.12916028049411926  0.806498817484183  1.0000
  C   C7        1.0  0.17713287280933793  0.9717795852995933  0.30629815148059686  1.0000
  C   C8        1.0  0.16533187924630985  0.8708374184745508  0.1934993543840022  1.0000
  C   C9        1.0  0.22770324118320673  0.4413684233982025  0.5895540016598844  1.0000
  C   C10       1.0  0.35169641950437847  0.638336529283059  0.9103082151635178  1.0000
  C   C11       1.0  0.772292910964893  0.5586213903453654  0.41044516681512994  1.0000
  C   C12       1.0  0.6482973212356313  0.3616658734960864  0.08969292188005804  1.0000
  N   N1        1.0  0.964839021553402  0.1336732949353987  0.6376018913456605  1.0000
  N   N2        1.0  0.9960577217467872  0.3273559243940695  0.8624459788347422  1.0000
  N   N3        1.0  0.035157619684476095  0.8663227847992587  0.3623991865823015  1.0000
  N   N4        1.0  0.003944945266845132  0.6726495652863563  0.1375544847335917  1.0000
  O   O1        1.0  0.21579930254419827  0.31476325202431354  0.5044687409496689  1.0000
  O   O2        1.0  0.31039356973961685  0.7114501763732336  0.9955558817171238  1.0000
  O   O3        1.0  0.7842017189476066  0.6852311675626409  0.4955354545391657  1.0000
  O   O4        1.0  0.689612808116145  0.2885505558970466  0.004444693481701721  1.0000
  O   O5        1.0  0.3061512248713997  0.6362950431645161  0.5896946608373597  1.0000
  O   O6        1.0  0.5465284990668948  0.7166237196086486  0.9100884440557522  1.0000
  O   O7        1.0  0.6938507727304283  0.3637073492534739  0.4103027968005861  1.0000
  O   O8        1.0  0.45348108077635635  0.28338491229958157  0.08990888246574262  1.0000
  O   O9        1.0  0.2066491590858135  0.37982798321390027  0.17907224367216662  1.0000
  O   O10       1.0  0.7006542024042304  0.027568830788077  0.3209475751652775  1.0000
  O   O11       1.0  0.7933539006833001  0.6201743198713033  0.8209303419755685  1.0000
  O   O12       1.0  0.2993457890317259  0.9724288289937632  0.679051421438281  1.0000
