data_image0
_chemical_formula_structural       AlH9C24Br3N3O6
_chemical_formula_sum              "Al1 H9 C24 Br3 N3 O6"
_cell_length_a       3.983691937148368
_cell_length_b       15.848277797988262
_cell_length_c       15.666429790641457
_cell_angle_alpha    60.61172980531394
_cell_angle_beta     82.42536930348166
_cell_angle_gamma    82.92892044668648

_space_group_name_H-M_alt    "P 1"
_space_group_IT_number       1

loop_
  _space_group_symop_operation_xyz
  'x, y, z'

loop_
  _atom_site_type_symbol
  _atom_site_label
  _atom_site_symmetry_multiplicity
  _atom_site_fract_x
  _atom_site_fract_y
  _atom_site_fract_z
  _atom_site_occupancy
  Al  Al1       1.0  0.9853579016870595  0.4969485161278869  0.5014247743284271  1.0000
  H   H1        1.0  0.34901124258434657  0.7625087460196128  0.505361784211949  1.0000
  H   H2        1.0  0.36624595240247254  0.859539017332516  0.591714858943028  1.0000
  H   H3        1.0  0.4145794044826799  0.5951273277087739  0.8670047188603359  1.0000
  H   H4        1.0  0.47531639448087054  0.04542261978497209  0.5881281557690057  1.0000
  H   H5        1.0  0.5242315225662466  0.23187598764554457  0.7644497988013724  1.0000
  H   H6        1.0  0.5109052697755985  0.050879510189823014  0.8585189609604382  1.0000
  H   H7        1.0  0.5950503283042892  0.8622520885595011  0.04413618929825679  1.0000
  H   H8        1.0  0.3663713148834803  0.5137396696682117  0.23582088569227003  1.0000
  H   H9        1.0  0.35510149988255796  0.6009731389232513  0.05259056134082834  1.0000
  C   C1        1.0  0.5153025751391168  0.576593647688334  0.35114428114130886  1.0000
  C   C2        1.0  0.41253405145776884  0.5707455587046584  0.5803625826320056  1.0000
  C   C3        1.0  0.5167122573328483  0.3481511432488419  0.572046107368841  1.0000
  C   C4        1.0  0.4744107715864416  0.930763297708957  0.7839727621518614  1.0000
  C   C5        1.0  0.41868681538626623  0.7882338930162335  0.7866854119560426  1.0000
  C   C6        1.0  0.46345511383908905  0.7898544199029375  0.9291532822449535  1.0000
  C   C7        1.0  0.3633772659294863  0.7267094373838533  0.5847340493300164  1.0000
  C   C8        1.0  0.37335132503064034  0.7806322944558347  0.6323882329997726  1.0000
  C   C9        1.0  0.3955810139261545  0.7330664479816706  0.7344090322779874  1.0000
  C   C10       1.0  0.4024890427079485  0.6314447159465217  0.7877580115513961  1.0000
  C   C11       1.0  0.3981289258660113  0.578130191327773  0.7392676611487018  1.0000
  C   C12       1.0  0.3827692753615537  0.6248625809683975  0.6369415504486111  1.0000
  C   C13       1.0  0.4921009491560326  0.08635033710265824  0.6262407812238349  1.0000
  C   C14       1.0  0.5077528119090503  0.18665952744748185  0.5743428908344297  1.0000
  C   C15       1.0  0.5198096265513713  0.2397597916950787  0.6236307157915345  1.0000
  C   C16       1.0  0.5191944035548631  0.1899869260515601  0.7264415974400219  1.0000
  C   C17       1.0  0.510582156384203  0.08969837150905853  0.7787927164091497  1.0000
  C   C18       1.0  0.49453674030132083  0.0371921296603972  0.7289148437290931  1.0000
  C   C19       1.0  0.5518944362178504  0.7853418015290429  0.08614362299424971  1.0000
  C   C20       1.0  0.5710006397112722  0.7354485717730416  0.18758760473205138  1.0000
  C   C21       1.0  0.5061626995194147  0.6366213470481983  0.24251427926202476  1.0000
  C   C22       1.0  0.42276988941595317  0.589797925312169  0.19234760667864476  1.0000
  C   C23       1.0  0.4142935008675294  0.638066556942114  0.09109584522368408  1.0000
  C   C24       1.0  0.47744841229859974  0.7368539354611059  0.03713912849146071  1.0000
  Br  Br1       1.0  0.3956394311606245  0.44082163976870703  0.8168703392050315  1.0000
  Br  Br2       1.0  0.49009100435585395  0.25047086071713665  0.4356161122164649  1.0000
  Br  Br3       1.0  0.6670579982399899  0.8089448730871994  0.24658658546560014  1.0000
  N   N1        1.0  0.43887998393978495  0.8848344064852116  0.733014604396892  1.0000
  N   N2        1.0  0.42344599357465285  0.7377369594873998  0.8850916264630793  1.0000
  N   N3        1.0  0.4931937727972697  0.8862328977766083  0.881897714002633  1.0000
  O   O1        1.0  0.2557107840961094  0.39152446053152096  0.5934594140655278  1.0000
  O   O2        1.0  0.30179904801320123  0.5111892568279687  0.394689339195544  1.0000
  O   O3        1.0  0.19417954751884287  0.5911392791965682  0.5195145187353063  1.0000
  O   O4        1.0  0.7705713205900934  0.38858568507233576  0.5137000161112937  1.0000
  O   O5        1.0  0.6665217821388084  0.5093486317360033  0.5956421377044518  1.0000
  O   O6        1.0  0.7343961673187208  0.591302856164738  0.3935575365995732  1.0000
