data_image0
_chemical_formula_structural       Cu2H30C26S2N4Cl2O6
_chemical_formula_sum              "Cu2 H30 C26 S2 N4 Cl2 O6"
_cell_length_a       7.628550212060892
_cell_length_b       10.19242071601296
_cell_length_c       11.188001571931208
_cell_angle_alpha    76.2064222883759
_cell_angle_beta     86.51638138144682
_cell_angle_gamma    76.90726215203324

_space_group_name_H-M_alt    "P 1"
_space_group_IT_number       1

loop_
  _space_group_symop_operation_xyz
  'x, y, z'

loop_
  _atom_site_type_symbol
  _atom_site_label
  _atom_site_symmetry_multiplicity
  _atom_site_fract_x
  _atom_site_fract_y
  _atom_site_fract_z
  _atom_site_occupancy
  Cu  Cu1       1.0  0.8611476786599536  0.8843104190357918  0.04731568160512724  1.0000
  Cu  Cu2       1.0  0.13884194407357603  0.11569186752518586  0.9526837569346895  1.0000
  H   H1        1.0  0.17508222837648194  0.8956475669886927  0.21420217154839347  1.0000
  H   H2        1.0  0.8249122495176593  0.10435165941051847  0.7857968118903358  1.0000
  H   H3        1.0  0.1895520954341733  0.8702616682982622  0.5165865585160958  1.0000
  H   H4        1.0  0.8104713861640535  0.12974626664514227  0.4834161781348953  1.0000
  H   H5        1.0  0.03983939931870857  0.4584419542771909  0.17403262286398302  1.0000
  H   H6        1.0  0.9601651042060056  0.5415501166084693  0.8259656654169732  1.0000
  H   H7        1.0  0.266338801008594  0.4545278421016404  0.2011862011006542  1.0000
  H   H8        1.0  0.7336635584302797  0.5454714910535826  0.7988141507299389  1.0000
  H   H9        1.0  0.34904364437314667  0.5500702175297006  0.842409354154313  1.0000
  H   H10       1.0  0.6509446071595872  0.4499278913575822  0.15759019102743818  1.0000
  H   H11       1.0  0.25097324646512925  0.571978654199853  0.029810737064394698  1.0000
  H   H12       1.0  0.749017306426559  0.4280205228062142  0.970188454393515  1.0000
  H   H13       1.0  0.982720067717949  0.012145740243291006  0.6432875834284459  1.0000
  H   H14       1.0  0.01729750261522172  0.9878641872680444  0.356712323847333  1.0000
  H   H15       1.0  0.28328505671379384  0.6146489625577797  0.35086458622691213  1.0000
  H   H16       1.0  0.7167174447784105  0.38534514630408967  0.6491297724445461  1.0000
  H   H17       1.0  0.3520165249026447  0.6725330922902799  0.1962841259515713  1.0000
  H   H18       1.0  0.6479790880696187  0.3274619614699858  0.8037085799439082  1.0000
  H   H19       1.0  0.19867581663831393  0.4282896796694188  0.42876170903642935  1.0000
  H   H20       1.0  0.8013223024887494  0.5717106392826705  0.5712386357689426  1.0000
  H   H21       1.0  0.1555578660160393  0.2929650267431043  0.36883036465530233  1.0000
  H   H22       1.0  0.8444464639155241  0.7070322604661853  0.6311721323545713  1.0000
  H   H23       1.0  0.9735784772945449  0.4219011239344966  0.40088146241926376  1.0000
  H   H24       1.0  0.0264202251414929  0.5780971126829825  0.5991166358295885  1.0000
  H   H25       1.0  0.8074381307989995  0.6253094412884365  0.2721957619058842  1.0000
  H   H26       1.0  0.19255863289718894  0.37468670397482373  0.7278055817565273  1.0000
  H   H27       1.0  0.9293801010435632  0.6694359106942966  0.38403786941001533  1.0000
  H   H28       1.0  0.07061950022382037  0.33055506312867067  0.6159618034893413  1.0000
  H   H29       1.0  0.6967979346941674  0.8515375709789623  0.2560400976630817  1.0000
  H   H30       1.0  0.3031999324161987  0.14845965383271675  0.7439672071209457  1.0000
  C   C1        1.0  0.1771642259908929  0.8325253523661971  0.6158291331066151  1.0000
  C   C2        1.0  0.8228458098597355  0.16747929589895696  0.3841750114145412  1.0000
  C   C3        1.0  0.12764720510887173  0.4864828419456373  0.23375159515232005  1.0000
  C   C4        1.0  0.8723580547678367  0.5135154809786185  0.7662470486130105  1.0000
  C   C5        1.0  0.2676411732260108  0.650906043640063  0.7982175897135448  1.0000
  C   C6        1.0  0.7323533835176902  0.3490932026834486  0.2017858548007183  1.0000
  C   C7        1.0  0.2799133409618407  0.7021329453087471  0.6730660538964061  1.0000
  C   C8        1.0  0.7200919975514141  0.2978695428096785  0.32693344478181535  1.0000
  C   C9        1.0  0.0417337280179241  0.8608758848219433  0.8145957603553668  1.0000
  C   C10       1.0  0.9582700341615717  0.13912763397669886  0.18540626926350262  1.0000
  C   C11       1.0  0.14855409814475706  0.728256785456672  0.871121988332625  1.0000
  C   C12       1.0  0.8514446358311076  0.2717414591305242  0.12887789434643787  1.0000
  C   C13       1.0  0.07908095168554052  0.6459417949037768  0.21615508823554566  1.0000
  C   C14       1.0  0.9209148032159361  0.3540532947202236  0.7838456475958823  1.0000
  C   C15       1.0  0.14991759400022892  0.6687015872268488  0.0007925463993885093  1.0000
  C   C16       1.0  0.8500768996638185  0.33129764315722804  0.9992073292544532  1.0000
  C   C17       1.0  0.5523363067421483  0.1442055203724522  0.018547415895469006  1.0000
  C   C18       1.0  0.44763339046349415  0.8558193996342635  0.981453338355486  1.0000
  C   C19       1.0  0.060749869004972416  0.909796682624396  0.6854804146684971  1.0000
  C   C20       1.0  0.9392630199737579  0.09020694345520039  0.31451934514208096  1.0000
  C   C21       1.0  0.24100583022330108  0.6881177325923886  0.263321741111902  1.0000
  C   C22       1.0  0.7589934555217114  0.31187842169047286  0.7366741105804309  1.0000
  C   C23       1.0  0.1123143802165956  0.40400128787598527  0.3658216373703027  1.0000
  C   C24       1.0  0.887691194969463  0.5959959998582461  0.6341772214394225  1.0000
  C   C25       1.0  0.90313421394557  0.686740905924047  0.2855102146180997  1.0000
  C   C26       1.0  0.09685894005751551  0.31325415475604496  0.7144915521078872  1.0000
  S   S1        1.0  0.38430549159662064  0.2768324401076966  0.9924581424566127  1.0000
  S   S2        1.0  0.6156959687978939  0.7231783011119147  0.007537028560839953  1.0000
  N   N1        1.0  0.04788755060187101  0.7176013928323427  0.08424009516657091  1.0000
  N   N2        1.0  0.95210687998253  0.2823978216122923  0.9157562116268495  1.0000
  N   N3        1.0  0.67600695513363  0.04819185748034729  0.0385875152676576  1.0000
  N   N4        1.0  0.32400851961261173  0.9517993577486622  0.961421139921164  1.0000
  Cl  Cl1       1.0  0.42057628099570377  0.604557106178866  0.5831656466455045  1.0000
  Cl  Cl2       1.0  0.5794228469260646  0.39544426841248986  0.4168353059908512  1.0000
  O   O1        1.0  0.8256543548107584  0.8322784132968547  0.2381959936841725  1.0000
  O   O2        1.0  0.17434080101183008  0.16771875467689765  0.7618060964886696  1.0000
  O   O3        1.0  0.9310937839041313  0.9409231053901618  0.8759137371419001  1.0000
  O   O4        1.0  0.06890807086232088  0.05908247529385588  0.1240897161581103  1.0000
  O   O5        1.0  0.21083587629753717  0.8204891679152266  0.2887271854354482  1.0000
  O   O6        1.0  0.7891673975295816  0.17950705170022727  0.7112720270981255  1.0000
