data_image0
_chemical_formula_structural       Cu2P2H24C18Br2N6
_chemical_formula_sum              "Cu2 P2 H24 C18 Br2 N6"
_cell_length_a       7.244571807448282
_cell_length_b       7.9066115067481855
_cell_length_c       12.42338904868028
_cell_angle_alpha    74.4736696868625
_cell_angle_beta     89.71058513284463
_cell_angle_gamma    64.55253285137509

_space_group_name_H-M_alt    "P 1"
_space_group_IT_number       1

loop_
  _space_group_symop_operation_xyz
  'x, y, z'

loop_
  _atom_site_type_symbol
  _atom_site_label
  _atom_site_symmetry_multiplicity
  _atom_site_fract_x
  _atom_site_fract_y
  _atom_site_fract_z
  _atom_site_occupancy
  Cu  Cu1       1.0  0.8847194384134485  0.1859080597122968  0.8922539082832941  1.0000
  Cu  Cu2       1.0  0.11528348482262636  0.8140944681383785  0.10774444402693464  1.0000
  P   P1        1.0  0.7019296316272374  0.1735472242626699  0.7579178815390506  1.0000
  P   P2        1.0  0.29806982664198495  0.8264567874817742  0.24207862961463897  1.0000
  H   H1        1.0  0.6665428467318082  0.2403651868826628  0.5521989560243767  1.0000
  H   H2        1.0  0.33345041884013693  0.7596403084155198  0.4477989513009391  1.0000
  H   H3        1.0  0.6654249349869235  0.43858038668962246  0.5956118901164018  1.0000
  H   H4        1.0  0.33456907834442956  0.5614294864108729  0.4043868745775683  1.0000
  H   H5        1.0  0.6232975596972422  0.9319442555771361  0.7029664466187242  1.0000
  H   H6        1.0  0.3767053196542989  0.0680553537953372  0.2970307945577062  1.0000
  H   H7        1.0  0.8897361847337921  0.8656468646701113  0.7195519681862238  1.0000
  H   H8        1.0  0.11026877201359751  0.13435420106151946  0.2804442059839403  1.0000
  H   H9        1.0  0.1817947623232997  0.543378635641872  0.8000725727840177  1.0000
  H   H10       1.0  0.8182060484209331  0.45661364906541724  0.1999315673606503  1.0000
  H   H11       1.0  0.42786203700466524  0.4581112423013281  0.875610463740081  1.0000
  H   H12       1.0  0.5721408458739179  0.5418795677470669  0.12439471995634932  1.0000
  H   H13       1.0  0.8908882406507318  0.7990891712992864  0.9312574666906244  1.0000
  H   H14       1.0  0.10910846092078691  0.20091484951001348  0.06873986552236032  1.0000
  H   H15       1.0  0.626824296877615  0.8513919034516844  0.9156408121015218  1.0000
  H   H16       1.0  0.373173802787889  0.1486150391408003  0.0843552071582252  1.0000
  H   H17       1.0  0.040845669671220726  0.2509156153007481  0.6638554424517338  1.0000
  H   H18       1.0  0.9591475713277192  0.7490869552493108  0.33614296458569737  1.0000
  H   H19       1.0  0.056709122027044104  0.04745776713621551  0.6240704948922513  1.0000
  H   H20       1.0  0.9432841532006647  0.9525477250270098  0.37592821785601427  1.0000
  H   H21       1.0  0.3393871930547547  0.3273434666139466  0.6758403452065309  1.0000
  H   H22       1.0  0.66061020186865  0.6726561514833659  0.32416095435736747  1.0000
  H   H23       1.0  0.3796699030817479  0.19571493209677018  0.8203961847977581  1.0000
  H   H24       1.0  0.6203336011641339  0.804274431337376  0.1796044123079028  1.0000
  C   C1        1.0  0.7402043206841499  0.2784961330494724  0.6130296176599472  1.0000
  C   C2        1.0  0.2597903473760539  0.721509349878879  0.3869698926931093  1.0000
  C   C3        1.0  0.7467433155841406  0.926642060815432  0.75688897765896  1.0000
  C   C4        1.0  0.25325960325766067  0.0733634011882529  0.24310645867028316  1.0000
  C   C5        1.0  0.3474364109121027  0.48746829135150443  0.792826026305285  1.0000
  C   C6        1.0  0.6525651230185192  0.512525446409967  0.20717947092015984  1.0000
  C   C7        1.0  0.7713729153489838  0.7969393231145004  0.8777494650109646  1.0000
  C   C8        1.0  0.2286278866067093  0.20305882989881496  0.12224884317173951  1.0000
  C   C9        1.0  0.9718528171671608  0.20797962044093046  0.6035018649670009  1.0000
  C   C10       1.0  0.028146656019316704  0.7920273191866017  0.3964933410516167  1.0000
  C   C11       1.0  0.37676471881096074  0.6428270748954857  0.7124727202458844  1.0000
  C   C12       1.0  0.6232395762116312  0.3571637196481134  0.2875348719012436  1.0000
  C   C13       1.0  0.4205872531121955  0.29830946727312835  0.7580945537774398  1.0000
  C   C14       1.0  0.5794101216324636  0.7016842919230442  0.24191016147955932  1.0000
  C   C15       1.0  0.00887874505711746  0.29199894192530707  0.4913965668873459  1.0000
  C   C16       1.0  0.9911207220006448  0.7079992015131111  0.5086057762283147  1.0000
  C   C17       1.0  0.828277409909724  0.5953711258855563  0.884241409438694  1.0000
  C   C18       1.0  0.17172057654647693  0.4046211898313318  0.11575791380457902  1.0000
  Br  Br1       1.0  0.24300925684612204  0.9087965958997158  0.9202584598831862  1.0000
  Br  Br2       1.0  0.7569950390436943  0.09120006381494511  0.0797441057249344  1.0000
  N   N1        1.0  0.39876925804944086  0.7655360678258064  0.6452893978610846  1.0000
  N   N2        1.0  0.6012378322939043  0.23445470511309446  0.3547205949185752  1.0000
  N   N3        1.0  0.03463368120362278  0.36240458074434667  0.4009264081382753  1.0000
  N   N4        1.0  0.9653713045110451  0.6375964755823984  0.599072182300752  1.0000
  N   N5        1.0  0.8765250732762625  0.4316864009532679  0.8906394759396434  1.0000
  N   N6        1.0  0.12347513275236811  0.5683219885934818  0.1093578925826932  1.0000
