data_image0
_chemical_formula_structural       Mn2H24C32I12O12
_chemical_formula_sum              "Mn2 H24 C32 I12 O12"
_cell_length_a       4.619139125704265
_cell_length_b       16.276919262224474
_cell_length_c       16.719510063012248
_cell_angle_alpha    90.00010901784746
_cell_angle_beta     89.99991058069529
_cell_angle_gamma    91.25717780079866

_space_group_name_H-M_alt    "P 1"
_space_group_IT_number       1

loop_
  _space_group_symop_operation_xyz
  'x, y, z'

loop_
  _atom_site_type_symbol
  _atom_site_label
  _atom_site_symmetry_multiplicity
  _atom_site_fract_x
  _atom_site_fract_y
  _atom_site_fract_z
  _atom_site_occupancy
  Mn  Mn1       1.0  0.4999958546995629  0.49999965657286793  0.5000012514427539  1.0000
  Mn  Mn2       1.0  0.5000028773802258  1.2291761563999841e-06  0.9999980931862711  1.0000
  H   H1        1.0  0.9062378054213625  0.5081993650330077  0.6065353929137274  1.0000
  H   H2        1.0  0.09375960229749584  0.9918022584405582  0.10653332968109912  1.0000
  H   H3        1.0  0.0937605548751677  0.49180178768585836  0.3934635213501494  1.0000
  H   H4        1.0  0.9062410271305837  0.008200121982156403  0.8934637902724702  1.0000
  H   H5        1.0  0.5455553634661925  0.07344309710037321  0.5388638258034248  1.0000
  H   H6        1.0  0.45446304445626146  0.4265550524635984  0.03886866160243581  1.0000
  H   H7        1.0  0.4544405190488163  0.9265543698588559  0.4611344903539064  1.0000
  H   H8        1.0  0.5455461398111581  0.573446093656763  0.9611380280065306  1.0000
  H   H9        1.0  0.6609196665433147  0.32930256221321486  0.6028138790105971  1.0000
  H   H10       1.0  0.33907885740556765  0.1706951070505909  0.1028147005658724  1.0000
  H   H11       1.0  0.33907193854062007  0.6706955219011944  0.3971838390445939  1.0000
  H   H12       1.0  0.660917181596922  0.8293042034504835  0.8971854099040969  1.0000
  H   H13       1.0  0.5814158837139018  0.5471613707527823  0.7078979197084723  1.0000
  H   H14       1.0  0.4185832405370605  0.9528416743166445  0.20789564274375044  1.0000
  H   H15       1.0  0.4185931962383195  0.4528385463362454  0.29210398507017743  1.0000
  H   H16       1.0  0.5814174410535103  0.04716132062001319  0.7921020753140271  1.0000
  H   H17       1.0  0.7243878368728929  0.44901423388888173  0.7355493253188359  1.0000
  H   H18       1.0  0.27561043293668774  0.050989219892478815  0.23554516703656256  1.0000
  H   H19       1.0  0.2756234078826409  0.5509856818772434  0.26445078514838377  1.0000
  H   H20       1.0  0.724385919063572  0.9490137776842645  0.7644501586075592  1.0000
  H   H21       1.0  0.37958294606137605  0.4543732845738973  0.6879469338624632  1.0000
  H   H22       1.0  0.6204133662970435  0.045629464959844795  0.1879432137480279  1.0000
  H   H23       1.0  0.6204218042923841  0.5456266351580795  0.312055569020771  1.0000
  H   H24       1.0  0.3795829335342091  0.9543729181052427  0.8120539062064865  1.0000
  C   C1        1.0  0.9955855720896881  0.37661974981944013  0.481273805551794  1.0000
  C   C2        1.0  0.004406872007976403  0.12338233310111242  0.9812746809121862  1.0000
  C   C3        1.0  0.004406085153476591  0.623378948810064  0.5187257068149052  1.0000
  C   C4        1.0  0.9955895321466246  0.876621278992438  0.0187242333543978  1.0000
  C   C5        1.0  0.8746456106441444  0.2910886548497515  0.4954930685071943  1.0000
  C   C6        1.0  0.12535969255597482  0.20891283283131654  0.9954958446291114  1.0000
  C   C7        1.0  0.12535676626937692  0.7089088081447699  0.5045040514414227  1.0000
  C   C8        1.0  0.8746432059873613  0.7910907753009582  0.004505462050659  1.0000
  C   C9        1.0  0.9339406966868607  0.2259296754560083  0.4433879993230009  1.0000
  C   C10       1.0  0.0660691680052565  0.27407109540067864  0.9433909224043121  1.0000
  C   C11       1.0  0.06605729846081941  0.7740671756692238  0.5566109149369538  1.0000
  C   C12       1.0  0.9339338348614207  0.7259337417600662  0.0566121785875282  1.0000
  C   C13       1.0  0.8150211158170181  0.14769876117163247  0.45978197349933947  1.0000
  C   C14       1.0  0.18499087645794532  0.3523026542381372  0.9597867846488131  1.0000
  C   C15       1.0  0.1849726018979468  0.8522987071093626  0.5402169407621218  1.0000
  C   C16       1.0  0.8150120742364636  0.6477015684120958  0.040219306860720415  1.0000
  C   C17       1.0  0.6385221203970773  0.13428224712355796  0.5269191341546174  1.0000
  C   C18       1.0  0.3614920752113946  0.36571649674778683  0.026923897252210307  1.0000
  C   C19       1.0  0.36148015218331153  0.8657139868459254  0.47307978010383084  1.0000
  C   C20       1.0  0.6385106668265337  0.6342852678489449  0.9730821942550847  1.0000
  C   C21       1.0  0.5844603732991942  0.20003659832851636  0.5776742828155579  1.0000
  C   C22       1.0  0.41554911168749  0.2999610162437564  0.0776777039137926  1.0000
  C   C23       1.0  0.4155462288747742  0.7999596329997372  0.42232582764924603  1.0000
  C   C24       1.0  0.5844535260287103  0.7000395193239299  0.9223259951777791  1.0000
  C   C25       1.0  0.7021414757240266  0.2780107757595404  0.563102730492318  1.0000
  C   C26       1.0  0.297861750800962  0.22198865844268312  0.0631054596716467  1.0000
  C   C27       1.0  0.29786079685636224  0.721985458209943  0.4368961837661303  1.0000
  C   C28       1.0  0.7021388264499536  0.7780131074712244  0.9368964451105626  1.0000
  C   C29       1.0  0.5977158653546726  0.48223330844787426  0.6907556070714094  1.0000
  C   C30       1.0  0.4022847612868716  0.017769443816646906  0.19075252812546495  1.0000
  C   C31       1.0  0.4022910498007661  0.517766609961768  0.3092456996040553  1.0000
  C   C32       1.0  0.5977159203053333  0.9822335511194353  0.8092445918286659  1.0000
  I   I1        1.0  0.19739907266554724  0.2506382668784397  0.3425538880684017  1.0000
  I   I2        1.0  0.8026159321626666  0.24936538102152647  0.8425552486431516  1.0000
  I   I3        1.0  0.8026032520757057  0.749358581605563  0.6574462223979014  1.0000
  I   I4        1.0  0.19739372159815366  0.7506412957134928  0.15744545993435116  1.0000
  I   I5        1.0  0.8830144284780131  0.04496791826608162  0.3859980025797968  1.0000
  I   I6        1.0  0.11700229563584938  0.45503335336557876  0.8860042305492117  1.0000
  I   I7        1.0  0.11696846525465081  0.9550295566174186  0.6139973230621154  1.0000
  I   I8        1.0  0.8830093664163527  0.5449714785132685  0.11400186095898593  1.0000
  I   I9        1.0  0.31935263940017933  0.18510341863844096  0.6799099778412909  1.0000
  I   I10       1.0  0.680662417479411  0.3148900859367174  0.17991271329471917  1.0000
  I   I11       1.0  0.6806540671020329  0.8148940417165633  0.3200901326246354  1.0000
  I   I12       1.0  0.3193439760266515  0.6851036873420356  0.820091583893394  1.0000
  O   O1        1.0  0.8448263570609741  0.42648742343227036  0.4398665708907289  1.0000
  O   O2        1.0  0.1551661562801101  0.07351273674364481  0.9398684841501395  1.0000
  O   O3        1.0  0.15516524801969922  0.5735106606832828  0.5601323433717553  1.0000
  O   O4        1.0  0.8448323605087894  0.9264902595153474  0.0601304301154073  1.0000
  O   O5        1.0  0.2379516391112588  0.3937375726188677  0.512960919520701  1.0000
  O   O6        1.0  0.7620349075411852  0.10626607782986501  0.0129602410858354  1.0000
  O   O7        1.0  0.7620379054959798  0.6062617418457706  0.48703919095067505  1.0000
  O   O8        1.0  0.2379572191839614  0.8937381514182974  0.9870374769749547  1.0000
  O   O9        1.0  0.7249196555611449  0.4740202510927958  0.6125571081161996  1.0000
  O   O10       1.0  0.27507907610190335  0.02598050937147889  0.11255409976814693  1.0000
  O   O11       1.0  0.2750786004055144  0.5259796725998883  0.3874424042502014  1.0000
  O   O12       1.0  0.7249236137996108  0.9740206407021504  0.8874418239765305  1.0000
