data_image0
_chemical_formula_structural       Cd3H36C20S6N4Cl6O8
_chemical_formula_sum              "Cd3 H36 C20 S6 N4 Cl6 O8"
_cell_length_a       10.01195933780451
_cell_length_b       10.157427892946002
_cell_length_c       11.522945980012695
_cell_angle_alpha    66.86256134855014
_cell_angle_beta     73.53690670355414
_cell_angle_gamma    62.89478658873425

_space_group_name_H-M_alt    "P 1"
_space_group_IT_number       1

loop_
  _space_group_symop_operation_xyz
  'x, y, z'

loop_
  _atom_site_type_symbol
  _atom_site_label
  _atom_site_symmetry_multiplicity
  _atom_site_fract_x
  _atom_site_fract_y
  _atom_site_fract_z
  _atom_site_occupancy
  Cd  Cd1       1.0  0.49999921287935223  0.5000032961103072  0.4999994165890129  1.0000
  Cd  Cd2       1.0  0.5571233474031982  0.8451729616005108  0.4313121198669523  1.0000
  Cd  Cd3       1.0  0.4428850459329823  0.1548289217158327  0.5686822153936859  1.0000
  H   H1        1.0  0.49473523693049515  0.1128329891184734  0.20150163202607266  1.0000
  H   H2        1.0  0.5052572460267014  0.8871783902330534  0.7984954134768572  1.0000
  H   H3        1.0  0.5870824923851571  0.13471612286120654  0.27435152792016737  1.0000
  H   H4        1.0  0.41291239237321514  0.8652916674912274  0.7256486964889391  1.0000
  H   H5        1.0  0.9041417325349669  0.03704803302530019  0.3429205493670722  1.0000
  H   H6        1.0  0.09586975560485916  0.9629430859919732  0.6570869989118295  1.0000
  H   H7        1.0  0.8371074224309112  0.23552756728159335  0.25005901397490493  1.0000
  H   H8        1.0  0.16288956738265623  0.7644604051284176  0.7499525021810881  1.0000
  H   H9        1.0  0.1027009897730622  0.22768918983766176  0.20187521728362162  1.0000
  H   H10       1.0  0.8972961780853264  0.7723126267176069  0.7981316196529351  1.0000
  H   H11       1.0  0.16978273757607806  0.0304775844758467  0.301070319860223  1.0000
  H   H12       1.0  0.8302274021377514  0.9695195953325992  0.6989268700824881  1.0000
  H   H13       1.0  0.23086578161720436  0.0067737553690533974  0.9823096313575804  1.0000
  H   H14       1.0  0.76911432300426  0.9932336508233701  0.017678950607880474  1.0000
  H   H15       1.0  0.3261982271909715  0.013669149100117297  0.08810433504329751  1.0000
  H   H16       1.0  0.6737888539701586  0.986327705894581  0.9118868255267146  1.0000
  H   H17       1.0  0.28460470218502826  0.22498446071939063  0.8655222231557788  1.0000
  H   H18       1.0  0.7153840484868467  0.775020042754697  0.13447896535222975  1.0000
  H   H19       1.0  0.0906072670094957  0.30224040230098836  0.9316217293825844  1.0000
  H   H20       1.0  0.9093854162036051  0.6977707882259452  0.06838140447008095  1.0000
  H   H21       1.0  0.10391035189270782  0.5362981323041678  0.921644710999253  1.0000
  H   H22       1.0  0.8961034893707733  0.46369443705957997  0.07835045130079252  1.0000
  H   H23       1.0  0.28575386590861024  0.4627616831984866  0.8336692660258153  1.0000
  H   H24       1.0  0.7142696461724825  0.5372304822139569  0.16633045362252116  1.0000
  H   H25       1.0  0.4075579448703124  0.4661459615609689  0.9937300969861197  1.0000
  H   H26       1.0  0.5924380641518637  0.5338452282681346  0.006289280447184361  1.0000
  H   H27       1.0  0.2886282086062406  0.6511973902998917  0.9027982385198429  1.0000
  H   H28       1.0  0.7113918944158398  0.3487925879064449  0.09720136618375358  1.0000
  H   H29       1.0  0.19625413306869174  0.795628407099933  0.04642057358516647  1.0000
  H   H30       1.0  0.8037520719623713  0.20437110625489643  0.9535785985644837  1.0000
  H   H31       1.0  0.3623425286079751  0.6399708079705417  0.11156181388908248  1.0000
  H   H32       1.0  0.6376535658056851  0.360033549163269  0.8884375073567128  1.0000
  H   H33       1.0  0.2064874709999882  0.7651271637999031  0.26935121668718415  1.0000
  H   H34       1.0  0.7935008287734814  0.2348785290386246  0.7306488232681829  1.0000
  H   H35       1.0  0.2144107200497061  0.5730439339267688  0.3216513729718074  1.0000
  H   H36       1.0  0.7855802607754327  0.4269571423978746  0.678347775856885  1.0000
  C   C1        1.0  0.9202616468768736  0.6125814333792761  0.33892649689026666  1.0000
  C   C2        1.0  0.07973922680038466  0.38741826542914737  0.6610713997253655  1.0000
  C   C3        1.0  0.8837082965041959  0.37318860539110676  0.40648885303247073  1.0000
  C   C4        1.0  0.11629017110265494  0.6268121897185635  0.5935127773552511  1.0000
  C   C5        1.0  0.9249371423176881  0.14430546428457083  0.3093724354401531  1.0000
  C   C6        1.0  0.07507102685630676  0.8556858792996066  0.6906306945084922  1.0000
  C   C7        1.0  0.08293147006665436  0.11931451035389533  0.2386203138704488  1.0000
  C   C8        1.0  0.9170758831344866  0.8806791310343485  0.7613831282656565  1.0000
  C   C9        1.0  0.22219515930996184  0.07306128294324307  0.0418106984173718  1.0000
  C   C10       1.0  0.7777960149416996  0.9269388467914296  0.9581817710857338  1.0000
  C   C11       1.0  0.20793482598117663  0.23436925688537957  0.9549110514019432  1.0000
  C   C12       1.0  0.7920577274321445  0.7656362983802506  0.04508966107493244  1.0000
  C   C13       1.0  0.22575381896771768  0.46618169030961093  0.929926448970896  1.0000
  C   C14       1.0  0.7742599189624285  0.5338142374171324  0.0700710892692199  1.0000
  C   C15       1.0  0.2887505513672225  0.5419768500205462  0.9775685256841841  1.0000
  C   C16       1.0  0.7112579982490531  0.45801912828508046  0.02243208584314967  1.0000
  C   C17       1.0  0.23837995226960373  0.6798796277199698  0.1175698252704365  1.0000
  C   C18       1.0  0.761616258717538  0.32011560091484637  0.8824290474807412  1.0000
  C   C19       1.0  0.1718326863791333  0.6879034251050624  0.2507067349653696  1.0000
  C   C20       1.0  0.8281622402273854  0.3120985681364203  0.7492962866534469  1.0000
  S   S1        1.0  0.036598539386709164  0.42660440924829146  0.3315920895352207  1.0000
  S   S2        1.0  0.9634014081549794  0.5734001879618019  0.6683957275326121  1.0000
  S   S3        1.0  0.8886355012178982  0.18633348763835758  0.4569565311030814  1.0000
  S   S4        1.0  0.11136809321762786  0.813664818144467  0.5430471991471892  1.0000
  S   S5        1.0  0.9667970633505545  0.7729305570194284  0.27865032719675753  1.0000
  S   S6        1.0  0.03320119076023081  0.22707619705083457  0.7213432873957687  1.0000
  N   N1        1.0  0.7606420035859145  0.49027528066631015  0.4314553280148132  1.0000
  N   N2        1.0  0.23935295589780728  0.5097291782980804  0.5685416506899799  1.0000
  N   N3        1.0  0.7814180309283002  0.6244871282757243  0.396080176399302  1.0000
  N   N4        1.0  0.21858086323819492  0.3755149971422823  0.6039148200985452  1.0000
  Cl  Cl1       1.0  0.4879836477819236  0.6500640796067573  0.6504608722006537  1.0000
  Cl  Cl2       1.0  0.5120191921659512  0.349938962728089  0.3495379970873103  1.0000
  Cl  Cl3       1.0  0.45221370627125873  0.7582305932356375  0.3055129772841951  1.0000
  Cl  Cl4       1.0  0.5477850363168527  0.2417666816613958  0.6944914957489488  1.0000
  Cl  Cl5       1.0  0.30213169725650596  0.0755343861746738  0.4696566116668492  1.0000
  Cl  Cl6       1.0  0.6978751149530562  0.9244580328049923  0.5303499853021378  1.0000
  O   O1        1.0  0.09296431875339548  0.06897162652019519  0.13508863904039714  1.0000
  O   O2        1.0  0.9070304362051972  0.9310305285709433  0.8649091639929268  1.0000
  O   O3        1.0  0.2473701580555243  0.3122292486352051  0.012327155018567688  1.0000
  O   O4        1.0  0.7526321716502907  0.6877635237168888  0.9876718113149253  1.0000
  O   O5        1.0  0.20210530749358202  0.5742104490065997  0.09220784889220113  1.0000
  O   O6        1.0  0.797884274518978  0.4257974998244833  0.9077919697471373  1.0000
  O   O7        1.0  0.5905699007706461  0.061107053741622466  0.2366520169781978  1.0000
  O   O8        1.0  0.4094353960528351  0.9389013662434849  0.7633556982960458  1.0000
