data_image0
_chemical_formula_structural       CdH20C20N4Cl2O10
_chemical_formula_sum              "Cd1 H20 C20 N4 Cl2 O10"
_cell_length_a       7.621598734257076
_cell_length_b       8.644894145631
_cell_length_c       10.10932586855614
_cell_angle_alpha    107.7209296426595
_cell_angle_beta     92.77806234103313
_cell_angle_gamma    106.51557841695383

_space_group_name_H-M_alt    "P 1"
_space_group_IT_number       1

loop_
  _space_group_symop_operation_xyz
  'x, y, z'

loop_
  _atom_site_type_symbol
  _atom_site_label
  _atom_site_symmetry_multiplicity
  _atom_site_fract_x
  _atom_site_fract_y
  _atom_site_fract_z
  _atom_site_occupancy
  Cd  Cd1       1.0  0.9999976206200926  0.999998392928866  0.999999539706991  1.0000
  H   H1        1.0  0.9000966192920429  0.9498279687635144  0.6847013956363027  1.0000
  H   H2        1.0  0.09989536006672488  0.05016934451947461  0.315296588365122  1.0000
  H   H3        1.0  0.6880288276152056  0.75527226992844  0.46886990587579896  1.0000
  H   H4        1.0  0.31196210107419364  0.24472250629995065  0.5311303544871534  1.0000
  H   H5        1.0  0.4827777564342171  0.4099496486759548  0.7013819210021595  1.0000
  H   H6        1.0  0.5172138011547387  0.5900502978152102  0.2986206596200915  1.0000
  H   H7        1.0  0.6984349902791818  0.6216016294997075  0.9071021646823566  1.0000
  H   H8        1.0  0.3015639251797423  0.3783967121978831  0.0928974299344176  1.0000
  H   H9        1.0  0.2886182882594923  0.8644440754083716  0.029169496346199315  1.0000
  H   H10       1.0  0.7113821905177456  0.13555807507984946  0.9708271785777284  1.0000
  H   H11       1.0  0.1363554997382366  0.7779266310994969  0.11261981608683415  1.0000
  H   H12       1.0  0.8636492747185327  0.22207666310082164  0.887380339030628  1.0000
  H   H13       1.0  0.8760622839880265  0.49658071056246184  0.10739171794477897  1.0000
  H   H14       1.0  0.12395131017111537  0.5034248133047966  0.8926064902698628  1.0000
  H   H15       1.0  0.805281367494523  0.34681871025248506  0.2780894571481269  1.0000
  H   H16       1.0  0.1947264437812066  0.6531818418596343  0.7219052214691999  1.0000
  H   H17       1.0  0.24512334476932549  0.7656826990315151  0.5757041456104802  1.0000
  H   H18       1.0  0.7548774944279938  0.23432076169756738  0.4242978241753832  1.0000
  H   H19       1.0  0.30129297865374843  0.8925930103907688  0.38959436579509804  1.0000
  H   H20       1.0  0.6987132068924636  0.1074141311050099  0.6104088078227647  1.0000
  C   C1        1.0  0.8029848789834375  0.8291831115068785  0.6835225754086736  1.0000
  C   C2        1.0  0.1970083190997299  0.17081416979724648  0.31647843259916897  1.0000
  C   C3        1.0  0.6840901014874985  0.7179181729167606  0.5624627711995984  1.0000
  C   C4        1.0  0.3159000703834848  0.2820779198614716  0.4375358012233691  1.0000
  C   C5        1.0  0.5631725863999291  0.5619752670210827  0.5637365036372586  1.0000
  C   C6        1.0  0.43681980412187466  0.4380233436678295  0.4362647958283432  1.0000
  C   C7        1.0  0.569565160488999  0.5281968274673544  0.6910177297806755  1.0000
  C   C8        1.0  0.4304275756881777  0.47179916926579313  0.3089819421607345  1.0000
  C   C9        1.0  0.6925268649541534  0.6462638270151189  0.807768600946254  1.0000
  C   C10       1.0  0.30746973036804787  0.3537320224416759  0.1922322254233819  1.0000
  C   C11       1.0  0.9549185235350561  0.5530303390055094  0.21282283239148814  1.0000
  C   C12       1.0  0.04509067345863829  0.44697406681954277  0.7871758544251222  1.0000
  C   C13       1.0  0.9150452148709999  0.469192839511315  0.3106387327535245  1.0000
  C   C14       1.0  0.08495961032873107  0.5308104418540579  0.6893594429661859  1.0000
  C   C15       1.0  0.018047664889316226  0.5421877739265354  0.44604143417771525  1.0000
  C   C16       1.0  0.9819558147286214  0.45781557150505137  0.5539586660299634  1.0000
  C   C17       1.0  0.15822492438544344  0.699050386893383  0.4740347904865844  1.0000
  C   C18       1.0  0.8417764274608145  0.30095434557173917  0.525966535967946  1.0000
  C   C19       1.0  0.18991374867112393  0.773006615606398  0.3696095413873337  1.0000
  C   C20       1.0  0.8100906801302726  0.22699929254967793  0.6303922412543272  1.0000
  N   N1        1.0  0.8080230520771678  0.7948403163798473  0.8045963690644555  1.0000
  N   N2        1.0  0.19197410663693398  0.205156791978041  0.1954018345761099  1.0000
  N   N3        1.0  0.0906890216995819  0.7020763789940431  0.24048040623065253  1.0000
  N   N4        1.0  0.9093171892181072  0.2979307560842627  0.7595217776883416  1.0000
  Cl  Cl1       1.0  0.3758870205747014  0.11941346490869617  0.8139200679326776  1.0000
  Cl  Cl2       1.0  0.6241147794743114  0.8805821732055248  0.18607998837722303  1.0000
  O   O1        1.0  0.15537167088960763  0.8165589095721585  0.025817197897509938  1.0000
  O   O2        1.0  0.8446295647060394  0.18344192436622817  0.974181164966403  1.0000
  O   O3        1.0  0.18734361435726743  0.11759055707748438  0.8449201715648941  1.0000
  O   O4        1.0  0.8126599931795295  0.8824063015414934  0.1550792963234642  1.0000
  O   O5        1.0  0.4192375396765795  0.9779861231482554  0.8437285928691552  1.0000
  O   O6        1.0  0.5807643766230512  0.022013413492707905  0.1562744270313701  1.0000
  O   O7        1.0  0.5075333367261406  0.28189960679303994  0.900783204907377  1.0000
  O   O8        1.0  0.49246689894309253  0.7180986772557953  0.09921545492031209  1.0000
  O   O9        1.0  0.37803457321784595  0.09885297916683557  0.6655155634622432  1.0000
  O   O10       1.0  0.6219693038598918  0.9011412847488028  0.33448524599855034  1.0000
