data_image0
_chemical_formula_structural       Al4H22C28O20
_chemical_formula_sum              "Al4 H22 C28 O20"
_cell_length_a       6.672242664533879
_cell_length_b       13.07219018299068
_cell_length_c       16.984016421050043
_cell_angle_alpha    90.96924327401737
_cell_angle_beta     88.9704300401498
_cell_angle_gamma    89.2563972477569

_space_group_name_H-M_alt    "P 1"
_space_group_IT_number       1

loop_
  _space_group_symop_operation_xyz
  'x, y, z'

loop_
  _atom_site_type_symbol
  _atom_site_label
  _atom_site_symmetry_multiplicity
  _atom_site_fract_x
  _atom_site_fract_y
  _atom_site_fract_z
  _atom_site_occupancy
  Al  Al1       1.0  0.8685754040922478  0.5024941210848084  0.49760325316222537  1.0000
  Al  Al2       1.0  0.36880720566259145  0.4992206510192645  0.4987583789998383  1.0000
  Al  Al3       1.0  0.3962596235341778  0.988506142887303  0.9953407645841071  1.0000
  Al  Al4       1.0  0.8963427870180711  0.9917608340474545  0.9951439879399975  1.0000
  H   H1        1.0  0.9717276893137881  0.6589964660717558  0.8571371665549921  1.0000
  H   H2        1.0  0.7771785423252244  0.7178999609751172  0.7164379921437389  1.0000
  H   H3        1.0  0.9660592987637886  0.9120484737093764  0.7298528391557968  1.0000
  H   H4        1.0  0.2922743256611113  0.8320560618098938  0.6351358472053834  1.0000
  H   H5        1.0  0.2977478188727503  0.5791934439907821  0.7623999702460014  1.0000
  H   H6        1.0  0.8273779129835432  0.7032723810479099  0.31066548202451133  1.0000
  H   H7        1.0  0.2877730044033414  0.6893160304449992  0.29448598953730715  1.0000
  H   H8        1.0  0.834091766582816  0.8098257560951936  0.19219450909710642  1.0000
  H   H9        1.0  0.2940897029296324  0.7848470239669041  0.19054569360146442  1.0000
  H   H10       1.0  0.9442750602833316  0.1909281335729887  0.7972416077130549  1.0000
  H   H11       1.0  0.4826987585856274  0.19444757788487985  0.7999696326954935  1.0000
  H   H12       1.0  0.9264548094999584  0.29674600851817706  0.6789731885213828  1.0000
  H   H13       1.0  0.4682644654145492  0.3037307564498093  0.7043703660768941  1.0000
  H   H14       1.0  0.9351483276246739  0.19418830804353604  0.18188007696496566  1.0000
  H   H15       1.0  0.47411714516701414  0.19615049169736656  0.19654319660665465  1.0000
  H   H16       1.0  0.9330503763251701  0.3139649913865057  0.29599616980429755  1.0000
  H   H17       1.0  0.4781400447614745  0.2783349176726447  0.3100372719601553  1.0000
  H   H18       1.0  0.48707621188893313  0.7731635394506854  0.7758513255024939  1.0000
  H   H19       1.0  0.6095321693022058  0.6263452844163878  0.5326374107659506  1.0000
  H   H20       1.0  0.1150130959390268  0.37203120727157574  0.5255125678953905  1.0000
  H   H21       1.0  0.6564576515645797  0.8651958489089895  0.959890087269358  1.0000
  H   H22       1.0  0.149239996018693  0.1172373935049364  0.9652416277527536  1.0000
  C   C1        1.0  0.6147646316012327  0.38205630315239614  0.6077511712338151  1.0000
  C   C2        1.0  0.6323013332682735  0.37807623397517187  0.3914260389595513  1.0000
  C   C3        1.0  0.1277138435228764  0.6148038195222438  0.3888949834106726  1.0000
  C   C4        1.0  0.10757569558257533  0.6237825343040555  0.6071345093912017  1.0000
  C   C5        1.0  0.9341444265114093  0.7309894986239057  0.7304319091619862  1.0000
  C   C6        1.0  0.04224032988028631  0.6966065654439009  0.8069033293676144  1.0000
  C   C7        1.0  0.14987237622148092  0.8029908793310341  0.8130031460121787  1.0000
  C   C8        1.0  0.03926072749524681  0.8372951043423029  0.7359982321815723  1.0000
  C   C9        1.0  0.22189908636722322  0.794683371669599  0.6855133186133318  1.0000
  C   C10       1.0  0.3299751105606605  0.760262303086691  0.7619865287817122  1.0000
  C   C11       1.0  0.22475628024007224  0.6540073545821131  0.756385475468207  1.0000
  C   C12       1.0  0.11424955144528334  0.6884046454490117  0.679438587605276  1.0000
  C   C13       1.0  0.97357620173041  0.7188578425369486  0.2836656880133647  1.0000
  C   C14       1.0  0.13655423641194633  0.6781630248926547  0.31795346379664124  1.0000
  C   C15       1.0  0.9775807359915449  0.7817372128034633  0.21390396778364365  1.0000
  C   C16       1.0  0.14420131820924817  0.8089923585510164  0.17347227723882241  1.0000
  C   C17       1.0  0.7955324210791944  0.21282709646776252  0.7769178338123128  1.0000
  C   C18       1.0  0.6358582688738396  0.17665583383509192  0.8170665014414596  1.0000
  C   C19       1.0  0.7852322509272653  0.2777410889646815  0.7085115166333937  1.0000
  C   C20       1.0  0.6158786952165657  0.3172808891684298  0.6782102797140155  1.0000
  C   C21       1.0  0.7900748831782781  0.21547070068301372  0.20879818633046915  1.0000
  C   C22       1.0  0.6249595529551045  0.17839727415879744  0.17408507901553352  1.0000
  C   C23       1.0  0.7897864928143932  0.2819877663424109  0.2782335908178269  1.0000
  C   C24       1.0  0.626554628296262  0.3076221574735242  0.3228075782802051  1.0000
  C   C25       1.0  0.6332320357191464  0.11059993866862781  0.10375477211286471  1.0000
  C   C26       1.0  0.6500711181500097  0.11070831089907779  0.8865758230865597  1.0000
  C   C27       1.0  0.1563687204967223  0.867755580277617  0.8853534295601551  1.0000
  C   C28       1.0  0.13862713839929347  0.8742759599972776  0.10352290977910884  1.0000
  O   O1        1.0  0.463628059935232  0.3963544784312846  0.4260002194527318  1.0000
  O   O2        1.0  0.7819819145230514  0.4012626291266058  0.5738652382206839  1.0000
  O   O3        1.0  0.9369186528123736  0.5930961791933457  0.5846016565701789  1.0000
  O   O4        1.0  0.7998101505126346  0.41505466075403763  0.4115324391673597  1.0000
  O   O5        1.0  0.9586028792335386  0.5996146147237412  0.4225975087909149  1.0000
  O   O6        1.0  0.4415257248882227  0.4132269223402504  0.5865826050061784  1.0000
  O   O7        1.0  0.615953099496956  0.5638131968305802  0.5011150245225054  1.0000
  O   O8        1.0  0.2967859850639984  0.5802634746156345  0.4113896983292734  1.0000
  O   O9        1.0  0.27674948425681123  0.6036496018178498  0.5735048183200817  1.0000
  O   O10       1.0  0.1188506410248706  0.43821805764237354  0.5008280016490474  1.0000
  O   O11       1.0  0.8227722757094754  0.08100801190134632  0.9086753509219749  1.0000
  O   O12       1.0  0.465037615550152  0.07614947251259002  0.08135730660894322  1.0000
  O   O13       1.0  0.3081502583775731  0.8917176575053533  0.07047248610996353  1.0000
  O   O14       1.0  0.4815276187052505  0.08922334646755557  0.9190252854672425  1.0000
  O   O15       1.0  0.32719899640407857  0.8976214788144574  0.9084175978589786  1.0000
  O   O16       1.0  0.8026468653093988  0.0917952317971142  0.07038586048710023  1.0000
  O   O17       1.0  0.6492810618527758  0.9274749406768379  0.9917037671452533  1.0000
  O   O18       1.0  0.9869220614165857  0.8888547784631488  0.9184021683718984  1.0000
  O   O19       1.0  0.9695618811216209  0.9079067301892821  0.08095299184477511  1.0000
  O   O20       1.0  0.14584964569554162  0.05290968389110871  0.992698410245119  1.0000
