data_image0
_chemical_formula_structural       Zn4H16C4Se4N4O12
_chemical_formula_sum              "Zn4 H16 C4 Se4 N4 O12"
_cell_length_a       4.768519017085882
_cell_length_b       6.516485529470386
_cell_length_c       15.14050216601302
_cell_angle_alpha    89.99998258627858
_cell_angle_beta     89.99985254292537
_cell_angle_gamma    91.54742204114905

_space_group_name_H-M_alt    "P 1"
_space_group_IT_number       1

loop_
  _space_group_symop_operation_xyz
  'x, y, z'

loop_
  _atom_site_type_symbol
  _atom_site_label
  _atom_site_symmetry_multiplicity
  _atom_site_fract_x
  _atom_site_fract_y
  _atom_site_fract_z
  _atom_site_occupancy
  Zn  Zn1       1.0  0.5225483538619073  0.18476348972482984  0.6962719300502725  1.0000
  Zn  Zn2       1.0  0.022550017344158808  0.6847626577942665  0.8037275908105881  1.0000
  Zn  Zn3       1.0  0.47745390323998993  0.815233586452692  0.3037274721484451  1.0000
  Zn  Zn4       1.0  0.9774503211212106  0.31523902582105734  0.19627049042852457  1.0000
  H   H1        1.0  0.6204207544147734  0.5539045273456794  0.6481274975270708  1.0000
  H   H2        1.0  0.12041627770802418  0.05389411671030331  0.8518752602309263  1.0000
  H   H3        1.0  0.37957976239361096  0.44610176165052456  0.35187652803240616  1.0000
  H   H4        1.0  0.8795881953150798  0.9461060276699699  0.1481241419667469  1.0000
  H   H5        1.0  0.28386971352183105  0.5011181483421865  0.63371067692087  1.0000
  H   H6        1.0  0.7838562815971386  0.0011218872906794996  0.8662926148890121  1.0000
  H   H7        1.0  0.7161387751337004  0.49887738654540226  0.366293348635942  1.0000
  H   H8        1.0  0.2161482508709156  0.9988797922162153  0.13370942922885828  1.0000
  H   H9        1.0  0.7646769584051825  0.38169507571229383  0.5230866814275146  1.0000
  H   H10       1.0  0.2647002605724182  0.8816940444615543  0.9769119633781074  1.0000
  H   H11       1.0  0.23530450696366506  0.6183066263805018  0.4769140417395049  1.0000
  H   H12       1.0  0.7353189509840234  0.11830762067561552  0.0230847968932437  1.0000
  H   H13       1.0  0.42989736087049835  0.2681412235177447  0.507003472001152  1.0000
  H   H14       1.0  0.9299217629212394  0.7681435839871611  0.9929983535892218  1.0000
  H   H15       1.0  0.5700841044928993  0.7318604785743762  0.4929985721260195  1.0000
  H   H16       1.0  0.07009948617253059  0.23185654396681346  0.0070023695618317994  1.0000
  C   C1        1.0  0.5386218215461439  0.4095958122977379  0.5292120633861259  1.0000
  C   C2        1.0  0.03861761582068371  0.9095871383482789  0.9707894028449218  1.0000
  C   C3        1.0  0.46137450125411317  0.5904104808062202  0.4707893202547382  1.0000
  C   C4        1.0  0.9613993797982159  0.09041145858412851  0.029211320307922492  1.0000
  Se  Se1       1.0  0.022555238690273406  0.9179222216905318  0.6157939179222609  1.0000
  Se  Se2       1.0  0.5225582567105532  0.41792132054705183  0.8842062394506909  1.0000
  Se  Se3       1.0  0.9774407868362047  0.08207639577423721  0.38420614475896997  1.0000
  Se  Se4       1.0  0.47743992529490936  0.582078829994174  0.11579052082921489  1.0000
  N   N1        1.0  0.4803743575000752  0.44353435341023584  0.6238562379057129  1.0000
  N   N2        1.0  0.9804312379481175  0.9435383374581007  0.876144868445813  1.0000
  N   N3        1.0  0.519581765378895  0.5564627679360614  0.37614646671198665  1.0000
  N   N4        1.0  0.0195858171293466  0.056461794602618916  0.1238551942268629  1.0000
  O   O1        1.0  0.3806567524052582  0.9513978901466092  0.6221257942351457  1.0000
  O   O2        1.0  0.8806557475416739  0.451400069826967  0.8778747312948312  1.0000
  O   O3        1.0  0.6193413106803405  0.04859919013765791  0.3778729474852014  1.0000
  O   O4        1.0  0.11934039690194  0.5486016178944199  0.12212401042604167  1.0000
  O   O5        1.0  0.930741862881547  0.11251404492421811  0.6858804361022734  1.0000
  O   O6        1.0  0.4307412247299496  0.6125101341858895  0.8141200838510159  1.0000
  O   O7        1.0  0.0692582971999514  0.8874830333051592  0.3141216080175937  1.0000
  O   O8        1.0  0.5692567194603058  0.38748387584445254  0.18587469498908143  1.0000
  O   O9        1.0  0.9634651646223208  0.6906930004712849  0.675419049291726  1.0000
  O   O10       1.0  0.463467560790626  0.1906918222966354  0.8245807757473926  1.0000
  O   O11       1.0  0.036530742006093  0.3093025467392253  0.3245777109893382  1.0000
  O   O12       1.0  0.5365366744063776  0.8093021815714111  0.17541928693076866  1.0000
