data_image0
_chemical_formula_structural       H16Pb4C28S4O16
_chemical_formula_sum              "H16 Pb4 C28 S4 O16"
_cell_length_a       7.8916091397191925
_cell_length_b       8.809981573659963
_cell_length_c       12.282980013737859
_cell_angle_alpha    89.99886638749585
_cell_angle_beta     106.09330703697029
_cell_angle_gamma    90.00215144571361

_space_group_name_H-M_alt    "P 1"
_space_group_IT_number       1

loop_
  _space_group_symop_operation_xyz
  'x, y, z'

loop_
  _atom_site_type_symbol
  _atom_site_label
  _atom_site_symmetry_multiplicity
  _atom_site_fract_x
  _atom_site_fract_y
  _atom_site_fract_z
  _atom_site_occupancy
  H   H1        1.0  0.8820253868716179  0.4980513630651941  0.8797374140577007  1.0000
  H   H2        1.0  0.6179685481590127  0.9980380460548369  0.12026415067543889  1.0000
  H   H3        1.0  0.11798778615922602  0.5019468848313263  0.12027037209651334  1.0000
  H   H4        1.0  0.382042022876206  0.0019613370719966  0.8797293291971972  1.0000
  H   H5        1.0  0.8817020146387833  0.34150857667700046  0.05094907912331339  1.0000
  H   H6        1.0  0.6182911330318674  0.841504127692211  0.9490472386762578  1.0000
  H   H7        1.0  0.11830588924187418  0.6584874010255392  0.9490553210383085  1.0000
  H   H8        1.0  0.38169701753952273  0.15849525511355714  0.050942226130608496  1.0000
  H   H9        1.0  0.8432066545188377  0.061713062230403196  0.03149518553099284  1.0000
  H   H10       1.0  0.6567940953449919  0.5617184490525275  0.9685032073748662  1.0000
  H   H11       1.0  0.1568012451416649  0.9382817803733943  0.9685108421543591  1.0000
  H   H12       1.0  0.3431795437134397  0.438283203675219  0.031485286959679115  1.0000
  H   H13       1.0  0.8054139254729193  0.9393965766309833  0.8425146437712102  1.0000
  H   H14       1.0  0.6945988387766847  0.4393883876406263  0.15748868277751885  1.0000
  H   H15       1.0  0.19459793294932132  0.060603941421547285  0.15749127867483284  1.0000
  H   H16       1.0  0.3053827071115053  0.56061440024272  0.8425036699143931  1.0000
  Pb  Pb1       1.0  0.47643209655409174  0.28987896335750196  0.428225859215388  1.0000
  Pb  Pb2       1.0  0.02356395902393159  0.7898783622148784  0.5718019762072686  1.0000
  Pb  Pb3       1.0  0.5235269952633246  0.7101226889479902  0.5717754985718388  1.0000
  Pb  Pb4       1.0  0.9764161943259848  0.21011307449289515  0.42821862193874705  1.0000
  C   C1        1.0  0.8367425827352265  0.3070869298538596  0.7684207077809334  1.0000
  C   C2        1.0  0.6632597760845512  0.8070697849722421  0.2315785622259767  1.0000
  C   C3        1.0  0.16324950768435542  0.6929169932228657  0.2315759756290205  1.0000
  C   C4        1.0  0.3367349582897248  0.19293186802381965  0.7684161522734315  1.0000
  C   C5        1.0  0.862773992804499  0.37546970649535877  0.8738825228743823  1.0000
  C   C6        1.0  0.6372270496183746  0.8754636847982978  0.1261220540427175  1.0000
  C   C7        1.0  0.13723523207012525  0.6245285413896651  0.1261212996995624  1.0000
  C   C8        1.0  0.3627755916077149  0.12454023842951759  0.8738765188099509  1.0000
  C   C9        1.0  0.8629636181499976  0.28774858064639364  0.9685123458336805  1.0000
  C   C10       1.0  0.6370393064202986  0.7877474403657984  0.0314881139225562  1.0000
  C   C11       1.0  0.13704956537612384  0.7122496673065796  0.03149137152147569  1.0000
  C   C12       1.0  0.36296070965439486  0.21225421273967268  0.9685051040187815  1.0000
  C   C13       1.0  0.8412054786008766  0.13082749155462636  0.9577066188087571  1.0000
  C   C14       1.0  0.6588019086561517  0.6308267833977296  0.042293610300959066  1.0000
  C   C15       1.0  0.1588077006609865  0.869167351147304  0.0422987260783358  1.0000
  C   C16       1.0  0.34119679477669956  0.369170329418111  0.9576969301970238  1.0000
  C   C17       1.0  0.8199017850452394  0.06201913422547991  0.8527177598374891  1.0000
  C   C18       1.0  0.6801213907596093  0.5620185080111426  0.1472870872216205  1.0000
  C   C19       1.0  0.18012326389600014  0.9379768437225802  0.1472897106685522  1.0000
  C   C20       1.0  0.3198812672809764  0.43798655038314377  0.8527049755484555  1.0000
  C   C21       1.0  0.8156106831395034  0.14864032761276036  0.7562641370122665  1.0000
  C   C22       1.0  0.6844092654853496  0.6486224215516786  0.24373808894911517  1.0000
  C   C23       1.0  0.18440117320572824  0.8513613255046264  0.2437425991894813  1.0000
  C   C24       1.0  0.3155920777922887  0.35137696146552594  0.7562521101415243  1.0000
  C   C25       1.0  0.7878826576508117  0.06937222223717747  0.6450121080158411  1.0000
  C   C26       1.0  0.7121328842250563  0.5693612508242721  0.3549937100959398  1.0000
  C   C27       1.0  0.21212260010994297  0.9306226203062732  0.3549950748284588  1.0000
  C   C28       1.0  0.2878750533066494  0.4306381322873633  0.644997669896398  1.0000
  S   S1        1.0  0.829179625720613  0.4318128984178243  0.648566364430984  1.0000
  S   S2        1.0  0.6708117397082775  0.931780206288785  0.35143405193063876  1.0000
  S   S3        1.0  0.1708137898469531  0.568191024711652  0.3514281138798765  1.0000
  S   S4        1.0  0.329157927883827  0.06821009554172969  0.648559430222612  1.0000
  O   O1        1.0  0.6233136377390451  0.43755248413993536  0.5984317892618094  1.0000
  O   O2        1.0  0.876691086596516  0.9375139702427475  0.40159129140727157  1.0000
  O   O3        1.0  0.37668111391276676  0.5624741406218446  0.4015564150688107  1.0000
  O   O4        1.0  0.12330754964449402  0.06248200713565671  0.5984252894087733  1.0000
  O   O5        1.0  0.8808113819272664  0.5857543047921893  0.7034486995033122  1.0000
  O   O6        1.0  0.6192245726479514  0.0857317909561388  0.2965629841492543  1.0000
  O   O7        1.0  0.11920445185072737  0.41424167311398447  0.2965506076618638  1.0000
  O   O8        1.0  0.3807727847125122  0.9142687269225079  0.7034378990336165  1.0000
  O   O9        1.0  0.7514329790177428  0.14969879020654983  0.5549195971946901  1.0000
  O   O10       1.0  0.7485830376047743  0.6496922266005569  0.4450884226076823  1.0000
  O   O11       1.0  0.24855644407088562  0.8502926468366424  0.4450880065370982  1.0000
  O   O12       1.0  0.25143543827140036  0.3503139670513633  0.5549097293616114  1.0000
  O   O13       1.0  0.8014940610095636  0.9247215605804936  0.6458804343650968  1.0000
  O   O14       1.0  0.6985141575555217  0.42470806402575073  0.3541296136390103  1.0000
  O   O15       1.0  0.1985045879139804  0.0752789571702692  0.3541312638756581  1.0000
  O   O16       1.0  0.3014950756932747  0.5752890488282815  0.6458709538997952  1.0000
