data_image0
_chemical_formula_structural       H16Pb4C24N8O16
_chemical_formula_sum              "H16 Pb4 C24 N8 O16"
_cell_length_a       7.0994742748501185
_cell_length_b       6.940780216071046
_cell_length_c       16.171226500874475
_cell_angle_alpha    90.00362204146334
_cell_angle_beta     89.99962250268229
_cell_angle_gamma    102.24651313047465

_space_group_name_H-M_alt    "P 1"
_space_group_IT_number       1

loop_
  _space_group_symop_operation_xyz
  'x, y, z'

loop_
  _atom_site_type_symbol
  _atom_site_label
  _atom_site_symmetry_multiplicity
  _atom_site_fract_x
  _atom_site_fract_y
  _atom_site_fract_z
  _atom_site_occupancy
  H   H1        1.0  0.0801176080653789  0.062365417173403194  0.25115558287964757  1.0000
  H   H2        1.0  0.9198930372611612  0.4376079621094035  0.7511587521543746  1.0000
  H   H3        1.0  0.9198750471857622  0.937631355611586  0.7488395881336489  1.0000
  H   H4        1.0  0.0801272099135772  0.5623653221772357  0.24884507580294013  1.0000
  H   H5        1.0  0.3067143743079442  0.1323799171012467  0.46700947711380547  1.0000
  H   H6        1.0  0.6932938987253934  0.3676725622947217  0.9670037165189314  1.0000
  H   H7        1.0  0.6932785704177674  0.8676595848756035  0.5329924967714705  1.0000
  H   H8        1.0  0.3066888904214764  0.6323241805108424  0.032997638331473  1.0000
  H   H9        1.0  0.10257007030801193  0.9887246580458111  0.413816306001813  1.0000
  H   H10       1.0  0.8974482562157888  0.51127249071137  0.9138229226909473  1.0000
  H   H11       1.0  0.8974402061357906  0.011261855838363  0.5861862854124099  1.0000
  H   H12       1.0  0.1025131759901399  0.4887713346903837  0.08618399836714731  1.0000
  H   H13       1.0  0.118377574183846  0.24383900328346184  0.42931553295929353  1.0000
  H   H14       1.0  0.8815905996683142  0.2561525560616786  0.9293230429971829  1.0000
  H   H15       1.0  0.8815700833047869  0.7561443707562173  0.5706821114410445  1.0000
  H   H16       1.0  0.11843848607708911  0.7438914776190798  0.0706838779632193  1.0000
  Pb  Pb1       1.0  0.7424618912827154  0.4984844600922428  0.4156034776638435  1.0000
  Pb  Pb2       1.0  0.2575550433841087  0.0015172860815368993  0.9155980947517293  1.0000
  Pb  Pb3       1.0  0.2575548230973936  0.5015197535955948  0.5843910750474635  1.0000
  Pb  Pb4       1.0  0.742449995311425  0.9984780514131015  0.08439645783838763  1.0000
  C   C1        1.0  0.5330555412238667  0.2668669755147661  0.2431141838315867  1.0000
  C   C2        1.0  0.4669379900830037  0.23311858457253  0.7431030421432396  1.0000
  C   C3        1.0  0.4669458723656276  0.7331312982001846  0.7568902629263619  1.0000
  C   C4        1.0  0.5330577856119022  0.766879670720421  0.2568847083011221  1.0000
  C   C5        1.0  0.36399806773041393  0.18157026328393042  0.2009635491012602  1.0000
  C   C6        1.0  0.6359996935633986  0.3184055118237977  0.7009514748733281  1.0000
  C   C7        1.0  0.6360052538733569  0.8184442230718927  0.7990353324664525  1.0000
  C   C8        1.0  0.3640070622423579  0.6815706770069666  0.2990418406506237  1.0000
  C   C9        1.0  0.3077468363760332  0.17469452295413382  0.3366718468983549  1.0000
  C   C10       1.0  0.6922384500415149  0.3252985287423726  0.8366684771931432  1.0000
  C   C11       1.0  0.6922306105287389  0.8253243044593928  0.6633363105100402  1.0000
  C   C12       1.0  0.30776407142829504  0.6746982752452906  0.16333967983391065  1.0000
  C   C13       1.0  0.7296359396571502  0.36235709403015887  0.2136241121332958  1.0000
  C   C14       1.0  0.27036921701676414  0.13763505327911219  0.7136179953548876  1.0000
  C   C15       1.0  0.2703675911519738  0.6376308726587823  0.7863815712251068  1.0000
  C   C16       1.0  0.7296431705683801  0.8623617808063526  0.2863858329819209  1.0000
  C   C17       1.0  0.3115766416841907  0.14578733916278708  0.112365583327211  1.0000
  C   C18       1.0  0.6884303285492734  0.3541860011658712  0.6123606540254729  1.0000
  C   C19       1.0  0.6884203404652282  0.8542168143294403  0.8876376267646009  1.0000
  C   C20       1.0  0.3115864965247184  0.6457843255993224  0.3876394635970541  1.0000
  C   C21       1.0  0.2037748233730525  0.13192128311934678  0.4164426489115627  1.0000
  C   C22       1.0  0.7962074821852099  0.3681040374242669  0.916435976682216  1.0000
  C   C23       1.0  0.7962164163768861  0.8680961128300099  0.5835568511019034  1.0000
  C   C24       1.0  0.2037704693117348  0.6319103705112497  0.0835579578638388  1.0000
  N   N1        1.0  0.4935875625264643  0.26192551087421373  0.3268876505413587  1.0000
  N   N2        1.0  0.5064080702973256  0.2380898975771331  0.8268722171944205  1.0000
  N   N3        1.0  0.5063941127097635  0.7380933293989216  0.6731180333317897  1.0000
  N   N4        1.0  0.4935961621527412  0.7619083844215166  0.1731260457365948  1.0000
  N   N5        1.0  0.225877608962648  0.12777590373804767  0.26145307029534604  1.0000
  N   N6        1.0  0.7741332577461576  0.37220615677004787  0.7614540133647554  1.0000
  N   N7        1.0  0.7741136368692733  0.8722208650234645  0.738547047778269  1.0000
  N   N8        1.0  0.22587963449758064  0.6277862585476727  0.2385467229908684  1.0000
  O   O1        1.0  0.840545347455368  0.4666662235465892  0.267170679286771  1.0000
  O   O2        1.0  0.1594499910296534  0.03328852349013539  0.7671554512547942  1.0000
  O   O3        1.0  0.1594560721681333  0.5333114224675413  0.7328263465616089  1.0000
  O   O4        1.0  0.8405613931911446  0.9666965195618714  0.2328335357245308  1.0000
  O   O5        1.0  0.7816827685979959  0.34115606217192607  0.13998921436054707  1.0000
  O   O6        1.0  0.21829823825740388  0.15887818466966758  0.639991336342071  1.0000
  O   O7        1.0  0.21830716622654486  0.6588480687564626  0.8600003913311485  1.0000
  O   O8        1.0  0.7817128322568366  0.8411466389678139  0.3600044534640859  1.0000
  O   O9        1.0  0.4445764894233335  0.13203138973561576  0.0602182286872264  1.0000
  O   O10       1.0  0.555411449308508  0.3678866175114519  0.560215361843909  1.0000
  O   O11       1.0  0.555402188123665  0.8679108256263389  0.9397843620823636  1.0000
  O   O12       1.0  0.4446237970884254  0.6320911326816441  0.4397822823379158  1.0000
  O   O13       1.0  0.13684756482336272  0.12782253250292538  0.09228730906724543  1.0000
  O   O14       1.0  0.8631575411352017  0.372195388734049  0.5922879855664294  1.0000
  O   O15       1.0  0.8631607792560984  0.8722302772549992  0.9077146650028639  1.0000
  O   O16       1.0  0.13686713747591742  0.6277720157358501  0.4077164606747417  1.0000
