data_image0
_chemical_formula_structural       Co4H32C40N4O20
_chemical_formula_sum              "Co4 H32 C40 N4 O20"
_cell_length_a       5.963329101011291
_cell_length_b       7.983123956766355
_cell_length_c       27.595461182077866
_cell_angle_alpha    89.99877389735654
_cell_angle_beta     90.02077693336756
_cell_angle_gamma    89.04400982382444

_space_group_name_H-M_alt    "P 1"
_space_group_IT_number       1

loop_
  _space_group_symop_operation_xyz
  'x, y, z'

loop_
  _atom_site_type_symbol
  _atom_site_label
  _atom_site_symmetry_multiplicity
  _atom_site_fract_x
  _atom_site_fract_y
  _atom_site_fract_z
  _atom_site_occupancy
  Co  Co1       1.0  0.9952733030928653  0.7602801534503386  0.2818080932637557  1.0000
  Co  Co2       1.0  0.9941157815329048  0.748236729045452  0.7214956880423101  1.0000
  Co  Co3       1.0  0.5059818599560798  0.2516975513361502  0.2216302193891337  1.0000
  Co  Co4       1.0  0.5045861579132306  0.2397320055652941  0.7817108029712898  1.0000
  H   H1        1.0  0.3327448795726938  0.6496556034825502  0.3887627732963565  1.0000
  H   H2        1.0  0.08741855546404757  0.8913074699130449  0.15978075077316592  1.0000
  H   H3        1.0  0.867041174630728  0.9242270317081707  0.4573776551942004  1.0000
  H   H4        1.0  0.678992346565927  0.7608461991369637  0.15360066422069704  1.0000
  H   H5        1.0  0.9144038018637274  0.6279525542285784  0.1426383393447779  1.0000
  H   H6        1.0  0.5626177354596537  0.6422252831435883  0.31430554046923476  1.0000
  H   H7        1.0  0.07201016330081698  0.9075353858066749  0.3785030211964368  1.0000
  H   H8        1.0  0.27109631105667376  0.772763930327109  0.4717005004529966  1.0000
  H   H9        1.0  0.667570351167832  0.6466513703855767  0.6073031466854246  1.0000
  H   H10       1.0  0.9867141376679244  0.8975942455077757  0.8471853245803515  1.0000
  H   H11       1.0  0.1217278006126747  0.9239354567251186  0.5394131685632501  1.0000
  H   H12       1.0  0.39734385741044775  0.7578594770019009  0.8411860400127509  1.0000
  H   H13       1.0  0.17217041458164323  0.6388991217364008  0.8641993072604632  1.0000
  H   H14       1.0  0.4355580647166448  0.6373843649080371  0.6820701349829149  1.0000
  H   H15       1.0  0.9151087735860911  0.9032449509303221  0.6183155102633221  1.0000
  H   H16       1.0  0.7242992256553435  0.7758659021732442  0.5251518565308899  1.0000
  H   H17       1.0  0.8323912343301744  0.3533119696145662  0.10730400989160667  1.0000
  H   H18       1.0  0.5131966982986994  0.10236231182295093  0.3473315686761893  1.0000
  H   H19       1.0  0.37823425371264824  0.07607009565700909  0.0394339865009883  1.0000
  H   H20       1.0  0.10285786451905211  0.24209611266407902  0.3412546074629787  1.0000
  H   H21       1.0  0.32793108643198826  0.3611468021013877  0.36426956364944363  1.0000
  H   H22       1.0  0.06438470136679801  0.3624959954103133  0.1820898901227963  1.0000
  H   H23       1.0  0.5848416673147341  0.09669663770534243  0.1183517959983789  1.0000
  H   H24       1.0  0.7756653997425788  0.2241623379343594  0.025132257502320995  1.0000
  H   H25       1.0  0.1673004651671519  0.3503176807286721  0.8887445958849582  1.0000
  H   H26       1.0  0.412456366533526  0.10866603069402461  0.6596827925123279  1.0000
  H   H27       1.0  0.632793099800665  0.07595663973875591  0.9573388684750694  1.0000
  H   H28       1.0  0.8209088330230401  0.23896729100387404  0.6535354758339763  1.0000
  H   H29       1.0  0.5855659490694265  0.3720113071936098  0.64255180448977  1.0000
  H   H30       1.0  0.9375733890874256  0.3576370413346054  0.8142501441025728  1.0000
  H   H31       1.0  0.42798097538372554  0.09262237184149308  0.8784314019348329  1.0000
  H   H32       1.0  0.22883076300903574  0.22727739790011012  0.9717008225751015  1.0000
  C   C1        1.0  0.4977060265577719  0.7063570775034834  0.3892615038078659  1.0000
  C   C2        1.0  0.9920812756670756  0.8356252964479438  0.18987367387247636  1.0000
  C   C3        1.0  0.7504011473421246  0.5834904944108744  0.20944374339665464  1.0000
  C   C4        1.0  0.5827176778579853  0.7822303491766078  0.43108464716475225  1.0000
  C   C5        1.0  0.7946779109945226  0.8563264642980216  0.4270188086371007  1.0000
  C   C6        1.0  0.8295698923780321  0.703914414596909  0.1705096078179125  1.0000
  C   C7        1.0  0.6238585164570835  0.702182280220349  0.34694948606789205  1.0000
  C   C8        1.0  0.8516507430566874  0.9720616002419505  0.2148889399944096  1.0000
  C   C9        1.0  0.909929580360064  0.8491423055335828  0.38344287695478135  1.0000
  C   C10       1.0  0.45297177445652886  0.7829746861910961  0.4758617687368982  1.0000
  C   C11       1.0  0.4997083095492201  0.7030116868133762  0.6071697743351477  1.0000
  C   C12       1.0  0.06306166664141699  0.8370560530668669  0.8150124585567653  1.0000
  C   C13       1.0  0.28597553868470266  0.5676079642801354  0.7932691389084566  1.0000
  C   C14       1.0  0.4114195109731327  0.7808384558719794  0.5656252483141486  1.0000
  C   C15       1.0  0.19581625811717632  0.8547701477997409  0.5696919802325269  1.0000
  C   C16       1.0  0.23542466763744588  0.7015302852926342  0.8316848144282076  1.0000
  C   C17       1.0  0.37222061258629663  0.6970858758570984  0.6492923632055819  1.0000
  C   C18       1.0  0.1870003486499954  0.9715604004068441  0.7852524827196985  1.0000
  C   C19       1.0  0.08037643947437088  0.8451344574030415  0.6132664223880653  1.0000
  C   C20       1.0  0.5418306084375786  0.7836750540959231  0.52090294468951  1.0000
  C   C21       1.0  0.0002553413397307994  0.296936939224736  0.10717647938292878  1.0000
  C   C22       1.0  0.43710275439012486  0.16286873767496246  0.3151174088434701  1.0000
  C   C23       1.0  0.21395071768298374  0.43247451077811416  0.2933307408483117  1.0000
  C   C24       1.0  0.08852532332145559  0.2191343185558523  0.0656327006259616  1.0000
  C   C25       1.0  0.30412204369533663  0.14518466571049524  0.0697129604252211  1.0000
  C   C26       1.0  0.26469754575562376  0.29849286915303713  0.3317458219451196  1.0000
  C   C27       1.0  0.1277649700732937  0.3028394066241732  0.14931630154828915  1.0000
  C   C28       1.0  0.3129634577630185  0.028344780965475998  0.2853375137690506  1.0000
  C   C29       1.0  0.419557210212588  0.15479487030043526  0.11330430482605178  1.0000
  C   C30       1.0  0.9581286318776634  0.216348799594158  0.020890642077077404  1.0000
  C   C31       1.0  0.0023218319490184015  0.2936397584260604  0.8892344339716516  1.0000
  C   C32       1.0  0.5078170134702374  0.1643446638363173  0.6897849063583193  1.0000
  C   C33       1.0  0.7497257305624816  0.41654767798001313  0.7093422938561532  1.0000
  C   C34       1.0  0.9172558163347589  0.217852600739846  0.9310554750782173  1.0000
  C   C35       1.0  0.7052566382978895  0.14379352290836783  0.9269822937106011  1.0000
  C   C36       1.0  0.6704101460043931  0.2960240468573616  0.670426661885628  1.0000
  C   C37       1.0  0.8762257852437257  0.297784693156828  0.8468973733281899  1.0000
  C   C38       1.0  0.6484396274018704  0.027942766360702406  0.71479562753084  1.0000
  C   C39       1.0  0.590100538262014  0.15096877196967282  0.8833793943076103  1.0000
  C   C40       1.0  0.0469567712020122  0.2171024342445023  0.9758550534289157  1.0000
  N   N1        1.0  0.8272377966002366  0.7717828155605633  0.3438795391324447  1.0000
  N   N2        1.0  0.1655841933437472  0.7658599724519277  0.6524800312069556  1.0000
  N   N3        1.0  0.33441436283922593  0.23405913993590133  0.15251845285661858  1.0000
  N   N4        1.0  0.6727966055120476  0.2282192901614977  0.8438083359359821  1.0000
  O   O1        1.0  0.7571048075362085  0.08988291157555041  0.1918017550724329  1.0000
  O   O2        1.0  0.1400822267911508  0.7587201818462505  0.22287641416488668  1.0000
  O   O3        1.0  0.8281120216548742  0.9477107955862181  0.2606406844346694  1.0000
  O   O4        1.0  0.7818716242205851  0.6069484368287307  0.25481365483843627  1.0000
  O   O5        1.0  0.6497770923415374  0.45627431988391726  0.19342402513361628  1.0000
  O   O6        1.0  0.2871033840579997  0.0863200093408665  0.8089712158472934  1.0000
  O   O7        1.0  0.9003930369506321  0.763774601737282  0.7861318934301804  1.0000
  O   O8        1.0  0.18382495877501978  0.9501736132954975  0.7401575352500345  1.0000
  O   O9        1.0  0.26294388131687185  0.5961438781673395  0.7487112770009929  1.0000
  O   O10       1.0  0.35491231297682185  0.4285184412043819  0.8119881253272894  1.0000
  O   O11       1.0  0.21284264369462133  0.9136569287818761  0.3090620932091142  1.0000
  O   O12       1.0  0.5999285996304026  0.23607603984483921  0.2862942709535474  1.0000
  O   O13       1.0  0.3158575279222405  0.04980381798621641  0.24024189687236225  1.0000
  O   O14       1.0  0.23703374483694967  0.40407222888920563  0.2487692375265382  1.0000
  O   O15       1.0  0.14490977876494068  0.5715084510900184  0.31206175169012335  1.0000
  O   O16       1.0  0.7436023041635522  0.9104700990328994  0.6916813933700752  1.0000
  O   O17       1.0  0.3598018437673359  0.24129369957145744  0.7227499118896714  1.0000
  O   O18       1.0  0.6715918535453936  0.05209980999865141  0.760569432753506  1.0000
  O   O19       1.0  0.7179318572184882  0.39332427801384995  0.7547123070723244  1.0000
  O   O20       1.0  0.8506727357096365  0.5435880947967038  0.6932922468003112  1.0000
