data_image0
_chemical_formula_structural       Na2H32C36S2N2O20
_chemical_formula_sum              "Na2 H32 C36 S2 N2 O20"
_cell_length_a       7.8871303635891294
_cell_length_b       8.634617200726431
_cell_length_c       14.199387562195849
_cell_angle_alpha    82.53116780191118
_cell_angle_beta     76.9874380380037
_cell_angle_gamma    71.08762427781001

_space_group_name_H-M_alt    "P 1"
_space_group_IT_number       1

loop_
  _space_group_symop_operation_xyz
  'x, y, z'

loop_
  _atom_site_type_symbol
  _atom_site_label
  _atom_site_symmetry_multiplicity
  _atom_site_fract_x
  _atom_site_fract_y
  _atom_site_fract_z
  _atom_site_occupancy
  Na  Na1       1.0  0.3086586024339227  0.9340483231184679  0.49830866201648394  1.0000
  Na  Na2       1.0  0.6913417400586468  0.0659518664333021  0.501692503701612  1.0000
  H   H1        1.0  0.11707505141931314  0.05024744367063509  0.914088499845327  1.0000
  H   H2        1.0  0.8829261086528676  0.9497503112290673  0.08591063627007853  1.0000
  H   H3        1.0  0.13584132115253314  0.17927078018031042  0.057608847530509856  1.0000
  H   H4        1.0  0.8641615815361872  0.820725742153087  0.9423915687717749  1.0000
  H   H5        1.0  0.3237292824055871  0.7838915944459615  0.913355507878357  1.0000
  H   H6        1.0  0.6762710303559628  0.2161086135231898  0.08664354739983078  1.0000
  H   H7        1.0  0.16948226730025337  0.5682722377813647  0.22793204078909204  1.0000
  H   H8        1.0  0.8305171501553943  0.4317267496846497  0.7720658151394273  1.0000
  H   H9        1.0  0.4180788435350635  0.0361779132690643  0.13769150382355375  1.0000
  H   H10       1.0  0.5819089776462364  0.9638283651221686  0.862310093854816  1.0000
  H   H11       1.0  0.4139597946016239  0.8712794871042037  0.011063578669080677  1.0000
  H   H12       1.0  0.5860318942702846  0.12872682844437122  0.9889354069944003  1.0000
  H   H13       1.0  0.3955081224969065  0.3317489104130474  0.6483156432719637  1.0000
  H   H14       1.0  0.604491342954013  0.6682537506255387  0.3516833311690134  1.0000
  H   H15       1.0  0.4224380456870804  0.5017692779774806  0.6954625583166985  1.0000
  H   H16       1.0  0.5775601206232963  0.498233376814447  0.3045365833159365  1.0000
  H   H17       1.0  0.9942190295941344  0.6607216930466678  0.769936226495929  1.0000
  H   H18       1.0  0.0057783191366241  0.33928339639733457  0.23006494473939643  1.0000
  H   H19       1.0  0.9606539412620377  0.7666913016593853  0.6571526619450124  1.0000
  H   H20       1.0  0.039343811303361086  0.2333125735281385  0.3428471427489795  1.0000
  H   H21       1.0  0.23913568749434697  0.5874199184965505  0.577822516350018  1.0000
  H   H22       1.0  0.7608624986367046  0.4125827240171276  0.42217803224255573  1.0000
  H   H23       1.0  0.09174543880931199  0.48641567544591885  0.6343146401693642  1.0000
  H   H24       1.0  0.9082518817468567  0.5135857281472624  0.36568681951344917  1.0000
  H   H25       1.0  0.17549822954137542  0.046475483062266704  0.7498044974120572  1.0000
  H   H26       1.0  0.8245007939899696  0.9535247125210945  0.2501954285377577  1.0000
  H   H27       1.0  0.3934876033693655  0.04976798847072671  0.29742402420216507  1.0000
  H   H28       1.0  0.6065088135269717  0.9502284964902474  0.7025779315383927  1.0000
  H   H29       1.0  0.761613000999084  0.7562093334249199  0.4865649384921156  1.0000
  H   H30       1.0  0.23838772550744375  0.24378965414862824  0.5134334537247154  1.0000
  H   H31       1.0  0.5963512480261173  0.7364836906536496  0.5690089306634218  1.0000
  H   H32       1.0  0.4036499219564079  0.2635140581069281  0.4309909089319531  1.0000
  C   C1        1.0  0.21343196103763518  0.22432537533707386  0.8097868365733303  1.0000
  C   C2        1.0  0.7865705362600295  0.7756760655209902  0.19021254738290586  1.0000
  C   C3        1.0  0.1622747071879047  0.158818208211045  0.9052649215764458  1.0000
  C   C4        1.0  0.8377303602162484  0.8411795592895075  0.0947344164439485  1.0000
  C   C5        1.0  0.1702962252603441  0.23144448306229046  0.9843549015188341  1.0000
  C   C6        1.0  0.829707119347951  0.7685545047263319  0.015644563274612618  1.0000
  C   C7        1.0  0.22295587158676974  0.3752728778945453  0.972707239314168  1.0000
  C   C8        1.0  0.777050504868271  0.6247248897135476  0.027292634994537903  1.0000
  C   C9        1.0  0.25972269984561797  0.44395977747974064  0.8780644993350887  1.0000
  C   C10       1.0  0.7402789417874942  0.5560404183186948  0.1219364991913494  1.0000
  C   C11       1.0  0.2602581550538474  0.37115338131389564  0.795526832101636  1.0000
  C   C12       1.0  0.7397447758094698  0.6288468268703229  0.20447329575317494  1.0000
  C   C13       1.0  0.25036461526303094  0.445259107181279  0.05426610094907149  1.0000
  C   C14       1.0  0.7496344280889958  0.5547410761238326  0.9457352319606824  1.0000
  C   C15       1.0  0.27972475083003456  0.607476252410521  0.033030803206237594  1.0000
  C   C16       1.0  0.7202785937782608  0.3925227353781012  0.9669686615872091  1.0000
  C   C17       1.0  0.3020658522327865  0.6662394406951294  0.9385930101411827  1.0000
  C   C18       1.0  0.6979361833246217  0.3337595469859594  0.061405918363959616  1.0000
  C   C19       1.0  0.2884079157987641  0.705550706991403  0.10880513847680355  1.0000
  C   C20       1.0  0.7115941578435853  0.29445196040138205  0.8911942050608201  1.0000
  C   C21       1.0  0.2226187760265077  0.6714885454160396  0.2070832027711375  1.0000
  C   C22       1.0  0.7773750410323217  0.328511631319806  0.7929166884653467  1.0000
  C   C23       1.0  0.2275917945938488  0.7640300028359379  0.2794369450133444  1.0000
  C   C24       1.0  0.7724080762481265  0.23596773967798162  0.7205630617736886  1.0000
  C   C25       1.0  0.3028305044577309  0.8939199424097098  0.2547273316572713  1.0000
  C   C26       1.0  0.6971671719377994  0.1060765733544216  0.7452716429717439  1.0000
  C   C27       1.0  0.36557023656870774  0.9314981793911842  0.15714848282344454  1.0000
  C   C28       1.0  0.6344240041454371  0.06850077080994053  0.842851448831652  1.0000
  C   C29       1.0  0.3594744001791241  0.8389545478124917  0.08583060638881787  1.0000
  C   C30       1.0  0.6405190213989868  0.16105054130890303  0.91416895598158  1.0000
  C   C31       1.0  0.32723588159119993  0.43380674899322713  0.6954107807838168  1.0000
  C   C32       1.0  0.6727648944670223  0.5661922078847044  0.3045911288328539  1.0000
  C   C33       1.0  0.06538100400144498  0.6966838683007097  0.6991158566491575  1.0000
  C   C34       1.0  0.9346180576148342  0.30332000699434775  0.300884484333153  1.0000
  C   C35       1.0  0.1762113105906876  0.8080780359187758  0.7079090713651081  1.0000
  C   C36       1.0  0.8237881647705692  0.19192461898068564  0.2920906065558383  1.0000
  S   S1        1.0  0.1349406326103235  0.7123280160705222  0.40138641566456806  1.0000
  S   S2        1.0  0.8650618563334264  0.2876697266584713  0.5986146636990809  1.0000
  N   N1        1.0  0.17874558640512822  0.5481486524719088  0.6463144708576181  1.0000
  N   N2        1.0  0.8212526096362609  0.4518539839026445  0.3536867812149182  1.0000
  O   O1        1.0  0.22210573603351946  0.15072296317098482  0.7314089864729211  1.0000
  O   O2        1.0  0.7778954621236025  0.8492784714404139  0.26859056467497305  1.0000
  O   O3        1.0  0.2522587969595379  0.3679759652698849  0.13541630904105512  1.0000
  O   O4        1.0  0.7477424111079215  0.632025463202396  0.8645839455868083  1.0000
  O   O5        1.0  0.30269800086613696  0.5877187809727289  0.8624314342683232  1.0000
  O   O6        1.0  0.6973053338318137  0.41228021295501094  0.13756732704515426  1.0000
  O   O7        1.0  0.3153125437018857  0.9812363100609148  0.3258733427058046  1.0000
  O   O8        1.0  0.6846817168329339  0.018762627861967505  0.6741279959092237  1.0000
  O   O9        1.0  0.08438490675749225  0.5635415812461204  0.39900042317875506  1.0000
  O   O10       1.0  0.9156154075604803  0.4364549224548285  0.601001030986822  1.0000
  O   O11       1.0  0.28338707834080173  0.6811256933720671  0.4561045911788638  1.0000
  O   O12       1.0  0.7166149770372813  0.318873282030772  0.5438957442862173  1.0000
  O   O13       1.0  0.9783264173459475  0.8531759999534785  0.43697264223407467  1.0000
  O   O14       1.0  0.021673473316710115  0.1468217302821913  0.5630287715128899  1.0000
  O   O15       1.0  0.10090249739487701  0.9114805700648605  0.7725777211422125  1.0000
  O   O16       1.0  0.8990974016216954  0.08852085829987999  0.22742199719733946  1.0000
  O   O17       1.0  0.32616231975042353  0.7954800088776042  0.6495122152937893  1.0000
  O   O18       1.0  0.6738384364871238  0.2045189602785769  0.35048828736294974  1.0000
  O   O19       1.0  0.6316992266667898  0.8056862796039608  0.5129267352665818  1.0000
  O   O20       1.0  0.36829979686455516  0.19431391597940012  0.48707319068324023  1.0000
