data_image0
_chemical_formula_structural       CuH24C24S2N6O8
_chemical_formula_sum              "Cu1 H24 C24 S2 N6 O8"
_cell_length_a       5.630669006757743
_cell_length_b       7.122488004922048
_cell_length_c       15.52012172383783
_cell_angle_alpha    102.6402497372205
_cell_angle_beta     98.94514678590171
_cell_angle_gamma    92.73710154392997

_space_group_name_H-M_alt    "P 1"
_space_group_IT_number       1

loop_
  _space_group_symop_operation_xyz
  'x, y, z'

loop_
  _atom_site_type_symbol
  _atom_site_label
  _atom_site_symmetry_multiplicity
  _atom_site_fract_x
  _atom_site_fract_y
  _atom_site_fract_z
  _atom_site_occupancy
  Cu  Cu1       1.0  0.4999960819880657  0.5000034579853435  3.9111268531345954e-07  1.0000
  H   H1        1.0  0.01637788156830309  0.29272031720409325  0.691616064376241  1.0000
  H   H2        1.0  0.9836175764591388  0.7072736470205854  0.3083841225477642  1.0000
  H   H3        1.0  0.29890108592825027  0.6202408698781525  0.7772244580126753  1.0000
  H   H4        1.0  0.7010964367906213  0.3797688800476919  0.22277094055893804  1.0000
  H   H5        1.0  0.5845718913090465  0.7677347443985809  0.9201345942325149  1.0000
  H   H6        1.0  0.41542970275740027  0.23226485519710136  0.07986262377057328  1.0000
  H   H7        1.0  0.3038504515099731  0.462462791336911  0.6175195607739568  1.0000
  H   H8        1.0  0.6961387673533608  0.5375384438267686  0.3824771145384602  1.0000
  H   H9        1.0  0.8340076479780477  0.6594712417493439  0.9496617162754362  1.0000
  H   H10       1.0  0.1659901696641768  0.34052696884701555  0.0503351521718045  1.0000
  H   H11       1.0  0.23333729207267595  0.7640666079206113  0.9594147113434772  1.0000
  H   H12       1.0  0.7666618317390217  0.23594177643263947  0.04058773274941531  1.0000
  H   H13       1.0  0.19801839271912766  0.7579349671301044  0.05640104814740001  1.0000
  H   H14       1.0  0.8019805444969351  0.2420719638293107  0.9436005994246912  1.0000
  H   H15       1.0  0.007898066491137001  0.44029363851316117  0.8511645202788216  1.0000
  H   H16       1.0  0.9920907739783189  0.5597047762761562  0.1488363691696648  1.0000
  H   H17       1.0  0.5009403359903501  0.0362104031097985  0.4160389620067876  1.0000
  H   H18       1.0  0.4990639874137557  0.9637964072541294  0.5839604020129414  1.0000
  H   H19       1.0  0.21615400956878966  0.17702238116272884  0.2807080969072899  1.0000
  H   H20       1.0  0.7838522173663521  0.822971399479876  0.7192913943637933  1.0000
  H   H21       1.0  0.5006679184668386  0.9019952330037525  0.2528671776914635  1.0000
  H   H22       1.0  0.49934010135936563  0.09799854904677119  0.7471343484440212  1.0000
  H   H23       1.0  0.2191176262142136  0.3033801587081229  0.4449084936488816  1.0000
  H   H24       1.0  0.7808841550259373  0.6966208846799233  0.5550888756330465  1.0000
  C   C1        1.0  0.6557623935747968  0.5452385834503062  0.8241037109390632  1.0000
  C   C2        1.0  0.3442342964006571  0.4547510412037283  0.17589741177084053  1.0000
  C   C3        1.0  0.665235837278921  0.37619302121610326  0.6443242035127099  1.0000
  C   C4        1.0  0.33475895205582856  0.6238095851518607  0.3556735657360193  1.0000
  C   C5        1.0  0.4555859249400101  0.5489269037791757  0.7583203142133286  1.0000
  C   C6        1.0  0.5443975345439966  0.4510715451922991  0.2416770516098339  1.0000
  C   C7        1.0  0.8614786258182293  0.36635992028808323  0.710927570800102  1.0000
  C   C8        1.0  0.13852674236017748  0.6336411067128437  0.28907257772669226  1.0000
  C   C9        1.0  0.8557035121758502  0.4489758143992261  0.799931522409672  1.0000
  C   C10       1.0  0.1442720212684208  0.5510169497859181  0.2000635512601789  1.0000
  C   C11       1.0  0.4594283427921937  0.46304628700191586  0.6691663689270797  1.0000
  C   C12       1.0  0.5405732506961911  0.5369533221952524  0.33083149431796954  1.0000
  C   C13       1.0  0.8552881060149318  0.1852701355667179  0.43862983587785453  1.0000
  C   C14       1.0  0.14472963910079525  0.8147292270617754  0.561368919613713  1.0000
  C   C15       1.0  0.6541440476194893  0.0683824201440828  0.3852716573275998  1.0000
  C   C16       1.0  0.3458528306857999  0.931608629099351  0.6147283261772145  1.0000
  C   C17       1.0  0.8560030241567133  0.037114770078268605  0.2577623527820876  1.0000
  C   C18       1.0  0.1440044312580326  0.9628747286025786  0.7422419457266897  1.0000
  C   C19       1.0  0.06088949756439631  0.21948234192606006  0.4016899669006619  1.0000
  C   C20       1.0  0.9391117198423727  0.7805144084908234  0.5983095295126047  1.0000
  C   C21       1.0  0.05980980201363909  0.14816413254476402  0.31060074100940943  1.0000
  C   C22       1.0  0.9402062568045295  0.8518222647569188  0.6893985886984737  1.0000
  C   C23       1.0  0.654503658462872  0.9937253713238547  0.2949243050067095  1.0000
  C   C24       1.0  0.34551550924297203  0.006271037917471699  0.7050716660978154  1.0000
  S   S1        1.0  0.845158723302241  0.9527048037161804  0.140763150578664  1.0000
  S   S2        1.0  0.15484541061589144  0.047300601261312594  0.8592386431300838  1.0000
  N   N1        1.0  0.6595463541709919  0.6375534573727394  0.9154028598656012  1.0000
  N   N2        1.0  0.3404450319308125  0.36245066678358734  0.08459615286889743  1.0000
  N   N3        1.0  0.6590264649052102  0.2989311610962416  0.5524918534606513  1.0000
  N   N4        1.0  0.3409745630155854  0.7010641839341999  0.4475100726416343  1.0000
  N   N5        1.0  0.8647550403599596  0.272311243174137  0.5299772757633648  1.0000
  N   N6        1.0  0.1352472989329172  0.7276941891998732  0.47002441880688656  1.0000
  O   O1        1.0  0.2132060152909077  0.6699409857178865  0.9982720816197529  1.0000
  O   O2        1.0  0.7867875386274363  0.3300660178296013  0.001728623294866311  1.0000
  O   O3        1.0  0.7188185650448206  0.7588410387417355  0.11626434911680411  1.0000
  O   O4        1.0  0.28117461741643984  0.24116302921363086  0.8837328270303004  1.0000
  O   O5        1.0  0.09603634554986232  0.958501715850545  0.12486922180887211  1.0000
  O   O6        1.0  0.9039661826509191  0.041505131511385705  0.8751306883143217  1.0000
  O   O7        1.0  0.7033410346141977  0.0902930890793101  0.09926123085899262  1.0000
  O   O8        1.0  0.2966640305479373  0.9097196116718322  0.9007464811796951  1.0000
