data_image0
_chemical_formula_structural       Cu2H8C12I2N2
_chemical_formula_sum              "Cu2 H8 C12 I2 N2"
_cell_length_a       4.330625465855606
_cell_length_b       9.290940310831498
_cell_length_c       9.2899771630446
_cell_angle_alpha    60.17224173051753
_cell_angle_beta     84.40699271872752
_cell_angle_gamma    84.39616992643182

_space_group_name_H-M_alt    "P 1"
_space_group_IT_number       1

loop_
  _space_group_symop_operation_xyz
  'x, y, z'

loop_
  _atom_site_type_symbol
  _atom_site_label
  _atom_site_symmetry_multiplicity
  _atom_site_fract_x
  _atom_site_fract_y
  _atom_site_fract_z
  _atom_site_occupancy
  Cu  Cu1       1.0  0.4999215438724676  0.13643616415035353  0.8635374184783726  1.0000
  Cu  Cu2       1.0  0.5000641482478514  0.8635495930367443  0.13647255318497276  1.0000
  H   H1        1.0  0.8645168967755272  0.10881057247061682  0.6450332702897866  1.0000
  H   H2        1.0  0.13532906019513996  0.3549750575279661  0.891159552672043  1.0000
  H   H3        1.0  0.13551581075421382  0.8911904154488115  0.3549621336908755  1.0000
  H   H4        1.0  0.8646127241602671  0.6450095140138715  0.10884857871018729  1.0000
  H   H5        1.0  0.19645506125871043  0.13324479665198652  0.40027813012854807  1.0000
  H   H6        1.0  0.8034432365340719  0.5996635277792637  0.8667558501247682  1.0000
  H   H7        1.0  0.8035673651036462  0.8667648623083654  0.5997136597751404  1.0000
  H   H8        1.0  0.1965225361788328  0.4003351817099274  0.13323384328261054  1.0000
  C   C1        1.0  0.6755298501922411  0.36238554083583113  0.5170369800350797  1.0000
  C   C2        1.0  0.32436230590329274  0.4829433494017294  0.6376897226301848  1.0000
  C   C3        1.0  0.3244486017431214  0.6376027244517176  0.48297105504807536  1.0000
  C   C4        1.0  0.6756716820316272  0.5170636094210865  0.3623416017335612  1.0000
  C   C5        1.0  0.8649411762126533  0.2248429517299472  0.5266274878626048  1.0000
  C   C6        1.0  0.13496721231992842  0.4733215136618512  0.7752291271042535  1.0000
  C   C7        1.0  0.13504220942449766  0.7751649931437967  0.47334418776042475  1.0000
  C   C8        1.0  0.8650587484932332  0.5266763535878597  0.2247841880797876  1.0000
  C   C9        1.0  0.04801725435798689  0.23887929241490022  0.39131342445553924  1.0000
  C   C10       1.0  0.9519043868767127  0.6086020635186457  0.7611877180061554  1.0000
  C   C11       1.0  0.9519515593373314  0.761113254133818  0.6086779464486226  1.0000
  C   C12       1.0  0.048083876478578695  0.3914226669602598  0.2387920375653464  1.0000
  I   I1        1.0  0.3059891177287355  0.8772516818253425  0.8773805254388941  1.0000
  I   I2        1.0  0.6940207945373801  0.12274527502498245  0.12262422192994646  1.0000
  N   N1        1.0  0.49995398660986023  0.3467431399342118  0.6532814822561617  1.0000
  N   N2        1.0  0.5000741404700831  0.6532558924389137  0.34673334684634205  1.0000
