data_image0
_chemical_formula_structural       Cu2H26C34N12O12F8
_chemical_formula_sum              "Cu2 H26 C34 N12 O12 F8"
_cell_length_a       8.397680300086765
_cell_length_b       9.286104481961567
_cell_length_c       13.590414782863165
_cell_angle_alpha    99.39084652286445
_cell_angle_beta     89.57327427433177
_cell_angle_gamma    106.36388976787448

_space_group_name_H-M_alt    "P 1"
_space_group_IT_number       1

loop_
  _space_group_symop_operation_xyz
  'x, y, z'

loop_
  _atom_site_type_symbol
  _atom_site_label
  _atom_site_symmetry_multiplicity
  _atom_site_fract_x
  _atom_site_fract_y
  _atom_site_fract_z
  _atom_site_occupancy
  Cu  Cu1       1.0  0.3589918994421809  0.9439774385621149  0.6488753796978627  1.0000
  Cu  Cu2       1.0  0.6410161665145678  0.056023587623279504  0.3511199693096216  1.0000
  H   H1        1.0  0.7490967113244054  0.1245751199775071  0.6998545198094276  1.0000
  H   H2        1.0  0.250905764848639  0.8754271719959305  0.30014464006484326  1.0000
  H   H3        1.0  0.3653175684275212  0.9777371054482983  0.8937585195107758  1.0000
  H   H4        1.0  0.6346782485555805  0.022262934419714504  0.1062389421381482  1.0000
  H   H5        1.0  0.9944741760267636  0.18026393809442712  0.8283927708491632  1.0000
  H   H6        1.0  0.005524634085610094  0.8197270584903437  0.1716096554489326  1.0000
  H   H7        1.0  0.9439120091851904  0.11157742985930952  0.9419459222572257  1.0000
  H   H8        1.0  0.05607912087517522  0.8884193595533318  0.058057833396397016  1.0000
  H   H9        1.0  0.5996820725770107  0.7587760920339617  0.7097900634515213  1.0000
  H   H10       1.0  0.4003215009883476  0.24121480260293282  0.2902094067857419  1.0000
  H   H11       1.0  0.07518781144191418  0.6288024008821934  0.6939968943851227  1.0000
  H   H12       1.0  0.9248189387386816  0.3712022088611634  0.3060061791334547  1.0000
  H   H13       1.0  0.6396885088507602  0.5246695823269363  0.7607184949974695  1.0000
  H   H14       1.0  0.36031024217241026  0.475336461702824  0.2392957665267303  1.0000
  H   H15       1.0  0.4651637809104657  0.3585122360742403  0.7441522865754067  1.0000
  H   H16       1.0  0.5348381919935363  0.6414925343792036  0.2558566925582113  1.0000
  H   H17       1.0  0.6935497666858623  0.393167473625212  0.5822262875036301  1.0000
  H   H18       1.0  0.306457392954016  0.6068380834941535  0.4177673157544958  1.0000
  H   H19       1.0  0.11377833593229525  0.8064597252545627  0.5197634133091995  1.0000
  H   H20       1.0  0.8862229459215955  0.19354260689640063  0.4802372229688315  1.0000
  H   H21       1.0  0.2736120946774179  0.9303229289288452  0.4806231600188866  1.0000
  H   H22       1.0  0.7263882081240993  0.0696724741631911  0.5193723555566692  1.0000
  H   H23       1.0  0.09142199555926571  0.0436550612196029  0.6675090918275827  1.0000
  H   H24       1.0  0.9085837617453338  0.9563426782270383  0.33249181054273436  1.0000
  H   H25       1.0  0.012617707726846632  0.8820997602621433  0.6967737244679527  1.0000
  H   H26       1.0  0.9873833068602027  0.1178979929890502  0.3032257096318745  1.0000
  C   C1        1.0  0.678883482347253  0.09967502218266591  0.7652367406914278  1.0000
  C   C2        1.0  0.3211183689382224  0.9003215231567054  0.23475962643677661  1.0000
  C   C3        1.0  0.48639737347622974  0.025595939193280504  0.8655388271215543  1.0000
  C   C4        1.0  0.5136071337144017  0.9744051046908101  0.13445578937734134  1.0000
  C   C5        1.0  0.9171785936846533  0.18605487870018317  0.8935935480473204  1.0000
  C   C6        1.0  0.08281822342508598  0.8139372043778507  0.1064053103520592  1.0000
  C   C7        1.0  0.954078713335889  0.3465935159962044  0.9493910186742482  1.0000
  C   C8        1.0  0.04591682601264321  0.6534019890437008  0.050607452962133016  1.0000
  C   C9        1.0  0.9564236499865686  0.4672163184023431  0.8995843572138326  1.0000
  C   C10       1.0  0.043571528285347924  0.5327780335938215  0.10041326124325423  1.0000
  C   C11       1.0  0.9948337998408405  0.3821719235003087  0.051659689604989  1.0000
  C   C12       1.0  0.005155437938462576  0.6178224971684826  0.9483386743739146  1.0000
  C   C13       1.0  0.4691486099349902  0.6999749415576488  0.715080108269845  1.0000
  C   C14       1.0  0.530856689027317  0.30002508539180894  0.2849210273086271  1.0000
  C   C15       1.0  0.20246709152783643  0.6279367100374884  0.7071144540828982  1.0000
  C   C16       1.0  0.7975344472252033  0.3720702450848988  0.2928895965389984  1.0000
  C   C17       1.0  0.5115872686658279  0.47702836827502204  0.7821306231541952  1.0000
  C   C18       1.0  0.4884119510673486  0.5229753441802671  0.2178811929961952  1.0000
  C   C19       1.0  0.5041181266577297  0.488437808198043  0.8939181267218572  1.0000
  C   C20       1.0  0.4958739720873098  0.511565954345187  0.10609296179990223  1.0000
  C   C21       1.0  0.5974759878858364  0.6177347471616345  0.9577799046980716  1.0000
  C   C22       1.0  0.4025184856738804  0.38226899378876317  0.0422311805703757  1.0000
  C   C23       1.0  0.5959946269005485  0.6280581780034425  0.06113382915481943  1.0000
  C   C24       1.0  0.4039994821266433  0.37194442459375676  0.9388771403228799  1.0000
  C   C25       1.0  0.3985282222127751  0.18382308104974507  0.5247098519917657  1.0000
  C   C26       1.0  0.6014774896647169  0.8161778785851652  0.4752810759377013  1.0000
  C   C27       1.0  0.44903122716620203  0.3491320081243856  0.5158056736321228  1.0000
  C   C28       1.0  0.5509760470188639  0.6508700349956485  0.4841831562957849  1.0000
  C   C29       1.0  0.33959546876008073  0.40753597955598764  0.4673657486813524  1.0000
  C   C30       1.0  0.6604069550740448  0.5924695619868244  0.5326249115291759  1.0000
  C   C31       1.0  0.16834849599452895  0.3078065667612081  0.43160809212270823  1.0000
  C   C32       1.0  0.831655549397901  0.692196779316248  0.5683874949728889  1.0000
  C   C33       1.0  0.6081083929487718  0.4415494662729956  0.5480415334245236  1.0000
  C   C34       1.0  0.39189567663498803  0.5584537769705876  0.4519488919511971  1.0000
  N   N1        1.0  0.5149983348194453  0.037958458170216106  0.7675932082245109  1.0000
  N   N2        1.0  0.48499785015208374  0.9620427053604531  0.2324036318266138  1.0000
  N   N3        1.0  0.6235642905531833  0.0777850349932407  0.9235469884797353  1.0000
  N   N4        1.0  0.3764316306073995  0.9222115349471025  0.07644791200462461  1.0000
  N   N5        1.0  0.7442544914186229  0.12313002471115911  0.8583866269625557  1.0000
  N   N6        1.0  0.25574378382121676  0.8768666117796755  0.14161269459982861  1.0000
  N   N7        1.0  0.3376873693169388  0.7430973427544032  0.6905559307265959  1.0000
  N   N8        1.0  0.6623163949850195  0.2569014831855013  0.3094414037450122  1.0000
  N   N9        1.0  0.24418268471777796  0.517244713371973  0.7416602328883071  1.0000
  N   N10       1.0  0.7558179966014011  0.4827635378055604  0.2583513090365273  1.0000
  N   N11       1.0  0.41336100189252545  0.5650114631705494  0.7452938523878316  1.0000
  N   N12       1.0  0.5866405961112378  0.43499221300135826  0.2547172231206929  1.0000
  O   O1        1.0  0.40963338717254777  0.15236468902651268  0.6127223158109274  1.0000
  O   O2        1.0  0.5903759007505796  0.847636179456934  0.3872656576843738  1.0000
  O   O3        1.0  0.3504159288403699  0.0881426696798613  0.4455370001117274  1.0000
  O   O4        1.0  0.6495878769324435  0.91185597997341  0.5544514856972427  1.0000
  O   O5        1.0  0.07338389263868089  0.25376577528189154  0.49782728150665884  1.0000
  O   O6        1.0  0.9266206838315512  0.7462467432856457  0.5021714473339003  1.0000
  O   O7        1.0  0.13400426873131724  0.286036078733389  0.3380766138029117  1.0000
  O   O8        1.0  0.8659968534891151  0.7139581898995786  0.6619195217437974  1.0000
  O   O9        1.0  0.24214533111737074  0.8422870885115329  0.5191686013981566  1.0000
  O   O10       1.0  0.7578540446318485  0.1577129336577912  0.4808295927593632  1.0000
  O   O11       1.0  0.0999229925545605  0.9824229511888799  0.7179900411678871  1.0000
  O   O12       1.0  0.9000800254028364  0.017573671497395093  0.2820107486649874  1.0000
  F   F1        1.0  0.9074425090939471  0.436171912331332  0.801807641568807  1.0000
  F   F2        1.0  0.0925511137821999  0.5638213267985962  0.19819060011273137  1.0000
  F   F3        1.0  0.9872014177268937  0.26926962699811696  0.1046261468886414  1.0000
  F   F4        1.0  0.012772109578321516  0.7307203845054248  0.8953725108356565  1.0000
  F   F5        1.0  0.6927710125547792  0.7368341580645961  0.9184891827002629  1.0000
  F   F6        1.0  0.3072223777750764  0.2631661237545515  0.0815193430302799  1.0000
  F   F7        1.0  0.6956889687751515  0.7538626176340699  0.11829514410716513  1.0000
  F   F8        1.0  0.3043119905174265  0.24613537066597502  0.8817160882095152  1.0000
