data_image0
_chemical_formula_structural       MnH16C26N6O2F4
_chemical_formula_sum              "Mn1 H16 C26 N6 O2 F4"
_cell_length_a       7.593074362083948
_cell_length_b       8.733446757747442
_cell_length_c       10.161824925008933
_cell_angle_alpha    68.17152582921943
_cell_angle_beta     80.49774151336312
_cell_angle_gamma    78.93806258235153

_space_group_name_H-M_alt    "P 1"
_space_group_IT_number       1

loop_
  _space_group_symop_operation_xyz
  'x, y, z'

loop_
  _atom_site_type_symbol
  _atom_site_label
  _atom_site_symmetry_multiplicity
  _atom_site_fract_x
  _atom_site_fract_y
  _atom_site_fract_z
  _atom_site_occupancy
  Mn  Mn1       1.0  2.9661140174985325e-06  1.2345015463003616e-06  0.9999995003000922  1.0000
  H   H1        1.0  0.11763271455060922  0.49415360647334683  0.28490392554895294  1.0000
  H   H2        1.0  0.8823683954327562  0.5058439717867386  0.7150983182480106  1.0000
  H   H3        1.0  0.1164103467046189  0.2774933456820179  0.5291525636372187  1.0000
  H   H4        1.0  0.8835905630881271  0.7225054805040967  0.4708502887424047  1.0000
  H   H5        1.0  0.39269025223912735  0.771625427571024  0.8552960551243702  1.0000
  H   H6        1.0  0.6073072541907151  0.2283696421007093  0.14470546263119394  1.0000
  H   H7        1.0  0.6415260023500194  0.5314333718374441  0.90496902074797  1.0000
  H   H8        1.0  0.35847016943490206  0.4685616935888603  0.09503266071556037  1.0000
  H   H9        1.0  0.17713046367713045  0.003921891424333498  0.7278366393516721  1.0000
  H   H10       1.0  0.8228704562440111  0.9960769295046814  0.2721632612438044  1.0000
  H   H11       1.0  0.010870073301084906  0.7518245251396676  0.8042228533409175  1.0000
  H   H12       1.0  0.9891306531817179  0.2481755402106529  0.19577568798111863  1.0000
  H   H13       1.0  0.009532189692137585  0.9064273941790758  0.6290132065444782  1.0000
  H   H14       1.0  0.9904698714355715  0.09357267541667368  0.3709851710695916  1.0000
  H   H15       1.0  0.82478769003243  0.9152847652372813  0.7616189037718687  1.0000
  H   H16       1.0  0.17521170180544485  0.08471529586761051  0.2383798012581337  1.0000
  C   C1        1.0  0.36271031340726967  0.13070313404844566  0.47665197906930257  1.0000
  C   C2        1.0  0.637289461931175  0.8692944399662037  0.5233504284356274  1.0000
  C   C3        1.0  0.4958807657571569  0.8835074554938627  0.6343788656646084  1.0000
  C   C4        1.0  0.5041194032102537  0.11648762617346615  0.3656242925311163  1.0000
  C   C5        1.0  0.22452125377527918  0.38801584823566054  0.3101842903537176  1.0000
  C   C6        1.0  0.7754783247486826  0.6119829719526562  0.6898177418058257  1.0000
  C   C7        1.0  0.22325789066857024  0.26958190679012967  0.44492779755378115  1.0000
  C   C8        1.0  0.7767432159386586  0.7304156732223175  0.555075430171229  1.0000
  C   C9        1.0  0.4994110756762566  0.7585851316139552  0.7725253506033598  1.0000
  C   C10       1.0  0.5005850927325353  0.24140993556471094  0.22747731478821015  1.0000
  C   C11       1.0  0.6366534403276702  0.6266717763017551  0.7989987713320803  1.0000
  C   C12       1.0  0.3633427280811148  0.37332329087691096  0.20100389405949676  1.0000
  C   C13       1.0  0.3717070249220241  0.78317952794783  0.1314792758561156  1.0000
  C   C14       1.0  0.6282976953671237  0.2168205553958771  0.8685217261261613  1.0000
  C   C15       1.0  0.6892577550249328  0.7685701964706979  0.13119540889462664  1.0000
  C   C16       1.0  0.3107503922600613  0.23143363112083648  0.8688000402153763  1.0000
  C   C17       1.0  0.5245259285039195  0.7242397108423047  0.2043105712127301  1.0000
  C   C18       1.0  0.4754740073448076  0.275765340955033  0.795687452655777  1.0000
  C   C19       1.0  0.36687446217759856  0.6321468475877554  0.453287436607802  1.0000
  C   C20       1.0  0.6331230045719067  0.3678569477926956  0.5467103060939922  1.0000
  C   C21       1.0  0.5126485887883306  0.612634321077806  0.3534271915805434  1.0000
  C   C22       1.0  0.4873496187865171  0.3873732188214304  0.6465702453051493  1.0000
  C   C23       1.0  0.971429063299922  0.8843775513688072  0.7429942067957783  1.0000
  C   C24       1.0  0.028571659806736704  0.11562251573387528  0.25700531845431135  1.0000
  C   C25       1.0  0.6453011723714609  0.4760346485283549  0.40634002916671363  1.0000
  C   C26       1.0  0.35469628762578503  0.5239691503568267  0.5936596813911734  1.0000
  N   N1        1.0  0.3621258296620837  0.0137367836678877  0.6083057209594501  1.0000
  N   N2        1.0  0.6378741424908438  0.9862595441731014  0.3916970618908738  1.0000
  N   N3        1.0  0.8295694624535556  0.8062623433156658  0.07083287443521874  1.0000
  N   N4        1.0  0.17043373988072827  0.19373897494681097  0.9291639801974442  1.0000
  N   N5        1.0  0.24214805476940168  0.8262240422869167  0.06980179378868463  1.0000
  N   N6        1.0  0.7578522848366943  0.1737785119060007  0.9301940289864776  1.0000
  O   O1        1.0  0.05572732568204944  0.9890016046029259  0.7862721868849292  1.0000
  O   O2        1.0  0.9442718659652128  0.010999704427987898  0.21372712672773284  1.0000
  F   F1        1.0  0.7891349084256375  0.44407090748401856  0.3165586062441507  1.0000
  F   F2        1.0  0.21086122030281731  0.555932885403358  0.6834402840936564  1.0000
  F   F3        1.0  0.23319174163246004  0.7631048119721766  0.41321706210349873  1.0000
  F   F4        1.0  0.7668053281119498  0.23690147750796334  0.5867809138355541  1.0000
