data_image0
_chemical_formula_structural       Cu6H40C28I4N14
_chemical_formula_sum              "Cu6 H40 C28 I4 N14"
_cell_length_a       7.885156737705683
_cell_length_b       11.386208227298441
_cell_length_c       12.596356543452544
_cell_angle_alpha    78.00035065710253
_cell_angle_beta     71.79080669217609
_cell_angle_gamma    69.76580939277991

_space_group_name_H-M_alt    "P 1"
_space_group_IT_number       1

loop_
  _space_group_symop_operation_xyz
  'x, y, z'

loop_
  _atom_site_type_symbol
  _atom_site_label
  _atom_site_symmetry_multiplicity
  _atom_site_fract_x
  _atom_site_fract_y
  _atom_site_fract_z
  _atom_site_occupancy
  Cu  Cu1       1.0  0.1998621583152628  0.2499829006284884  0.749915615163765  1.0000
  Cu  Cu2       1.0  0.8001395936961726  0.750018710901223  0.25008279167182224  1.0000
  Cu  Cu3       1.0  0.4148740842516079  0.39877474698422344  0.7109218613594025  1.0000
  Cu  Cu4       1.0  0.5240788733714298  0.1015758064246199  0.78940108989363  1.0000
  Cu  Cu5       1.0  0.5851317645183727  0.6012211758068347  0.28907159549638106  1.0000
  Cu  Cu6       1.0  0.4759234019022927  0.8984257927205024  0.2105954686692115  1.0000
  H   H1        1.0  0.8398412170508962  0.7910608806266525  0.7691957833259053  1.0000
  H   H2        1.0  0.40057967471901884  0.7087309354942092  0.7308667315634949  1.0000
  H   H3        1.0  0.16016733608357472  0.20893040018282247  0.2308081990126851  1.0000
  H   H4        1.0  0.599405861292752  0.29127352836803766  0.26913561726237845  1.0000
  H   H5        1.0  0.05296662396571596  0.569215551302442  0.8657987722764418  1.0000
  H   H6        1.0  0.48838142100609616  0.9305909849859971  0.6343019829452246  1.0000
  H   H7        1.0  0.9470360873646586  0.4307719216824353  0.13419980762130737  1.0000
  H   H8        1.0  0.5116027243220033  0.06941534843677741  0.36569805652163007  1.0000
  H   H9        1.0  0.29151058901487653  0.6054575604098744  0.5144695594217125  1.0000
  H   H10       1.0  0.41115745516617613  0.8947922337007626  0.9857702556105465  1.0000
  H   H11       1.0  0.7084875146315568  0.39454030049966354  0.485531889291167  1.0000
  H   H12       1.0  0.5888430584569093  0.10521223030708877  0.014231813158097923  1.0000
  H   H13       1.0  0.15695910262108717  0.9300244532930437  0.5590083729319987  1.0000
  H   H14       1.0  0.6458108130150889  0.5700397046922205  0.9407639349876008  1.0000
  H   H15       1.0  0.8430407358681151  0.0699696932646177  0.44100139104440933  1.0000
  H   H16       1.0  0.35418551622010613  0.4299656811957816  0.05923513514139966  1.0000
  H   H17       1.0  0.9137631462392123  0.9850399625732462  0.6275853797933238  1.0000
  H   H18       1.0  0.5256141251739951  0.5150248794789931  0.8724753848465241  1.0000
  H   H19       1.0  0.0862385613142109  0.0149541806669049  0.3724238542568941  1.0000
  H   H20       1.0  0.4743852468478238  0.48498143455424275  0.12752147075058667  1.0000
  H   H21       1.0  0.9606212199447768  0.46206206148330864  0.5909953739796023  1.0000
  H   H22       1.0  0.01359057266736827  0.03825500682771119  0.9089640436435289  1.0000
  H   H23       1.0  0.039383913699133265  0.537936701401307  0.4089998965364998  1.0000
  H   H24       1.0  0.986412250966126  0.9617466066185257  0.09103462599884458  1.0000
  H   H25       1.0  0.8502563685851141  0.5215780347962636  0.7226719221037926  1.0000
  H   H26       1.0  0.09446161373767141  0.9786884986243649  0.7772749059928044  1.0000
  H   H27       1.0  0.1497470355292736  0.47842637443920905  0.2773219608408866  1.0000
  H   H28       1.0  0.9055394878136626  0.021312169058006702  0.22272333717573647  1.0000
  H   H29       1.0  0.7118868872292908  0.5308846894674063  0.6311519334841192  1.0000
  H   H30       1.0  0.8739551606173137  0.9692919166543774  0.8686953517932638  1.0000
  H   H31       1.0  0.2881174040907198  0.4691159572788379  0.368843138752503  1.0000
  H   H32       1.0  0.12604641931457652  0.0307106172710121  0.1313000520900687  1.0000
  H   H33       1.0  0.8467526213085105  0.84108393760431  0.5328101832834946  1.0000
  H   H34       1.0  0.22054248131802737  0.6590078942984975  0.9674194000525133  1.0000
  H   H35       1.0  0.15324775277986197  0.15891488337019408  0.4671938029827629  1.0000
  H   H36       1.0  0.7794530953567148  0.340995618195933  0.03258145382191926  1.0000
  H   H37       1.0  0.08245270416450284  0.7978494908832798  0.4507782527752937  1.0000
  H   H38       1.0  0.33136548800024485  0.7021286817857015  0.04938483506887087  1.0000
  H   H39       1.0  0.9175493920060378  0.20215027585507533  0.5492261599647961  1.0000
  H   H40       1.0  0.6686330293607837  0.2978748293077444  0.950615751686172  1.0000
  C   C1        1.0  0.9647857748160438  0.7191642515551351  0.731952163474169  1.0000
  C   C2        1.0  0.4161485587766052  0.7807320161321839  0.7681905602474047  1.0000
  C   C3        1.0  0.035210357665825136  0.28083268312568066  0.2680517625773859  1.0000
  C   C4        1.0  0.5838401472196111  0.21927433210723282  0.23181158598637813  1.0000
  C   C5        1.0  0.07194348086775905  0.6097310485742184  0.7787117787079723  1.0000
  C   C6        1.0  0.4606132627219707  0.8901735725206167  0.7214333694789234  1.0000
  C   C7        1.0  0.9280631208863854  0.39025740069325104  0.22129171262947286  1.0000
  C   C8        1.0  0.539377970245937  0.10982712413390064  0.27856937159330647  1.0000
  C   C9        1.0  0.8142803039652051  0.3468551820689925  0.7128158969821001  1.0000
  C   C10       1.0  0.8739438958053681  0.1533620352188194  0.7870408421192892  1.0000
  C   C11       1.0  0.18572331711046533  0.6531464261432092  0.28718197992728994  1.0000
  C   C12       1.0  0.1260596803885788  0.8466414516209826  0.21295604377764477  1.0000
  C   C13       1.0  0.19862973516972476  0.6222798107105094  0.5975524013030694  1.0000
  C   C14       1.0  0.4182964169616454  0.8778817319941226  0.9026490616982557  1.0000
  C   C15       1.0  0.8013672594202748  0.3777133347953878  0.4024487546881447  1.0000
  C   C16       1.0  0.5816966525256503  0.12212552677191012  0.09734822899791606  1.0000
  C   C17       1.0  0.01498278494866402  0.9499423931682146  0.5496415081771602  1.0000
  C   C18       1.0  0.5143109532995072  0.5500938529766515  0.9503780187462355  1.0000
  C   C19       1.0  0.9850196751652122  0.050053623465508706  0.4503659421276184  1.0000
  C   C20       1.0  0.48568709801784854  0.44991247867520207  0.04962147785660423  1.0000
  C   C21       1.0  0.8342211182686372  0.4724044313023014  0.6617352427192459  1.0000
  C   C22       1.0  0.9683547714986674  0.027818269568634  0.8381707267235187  1.0000
  C   C23       1.0  0.16578275188943076  0.527597157374757  0.3382597303776365  1.0000
  C   C24       1.0  0.03164763097288414  0.9721842858084173  0.1618278437791147  1.0000
  C   C25       1.0  0.9918168483435394  0.8283543664995037  0.5322748254764492  1.0000
  C   C26       1.0  0.35243429433028667  0.6716587430555238  0.9679002866617452  1.0000
  C   C27       1.0  0.00818384480643894  0.1716425829979542  0.4677312073420339  1.0000
  C   C28       1.0  0.6475627302467402  0.32834570805221125  0.03209993814676445  1.0000
  I   I1        1.0  0.43319911934438693  0.2256549518970346  0.5593337588676591  1.0000
  I   I2        1.0  0.2174273923620477  0.27422193354468755  0.9408539481542989  1.0000
  I   I3        1.0  0.5667987673407708  0.7743457100357816  0.4406636958805096  1.0000
  I   I4        1.0  0.7825842158959304  0.7257749622114531  0.05914389021500459  1.0000
  N   N1        1.0  0.6619489328185395  0.31213147952647097  0.7267912034007082  1.0000
  N   N2        1.0  0.7008087686744917  0.18807155740469036  0.7731802547977793  1.0000
  N   N3        1.0  0.338057227565706  0.6878691639022633  0.273203338909724  1.0000
  N   N4        1.0  0.2991975386918142  0.8119281369426686  0.22681333111263066  1.0000
  N   N5        1.0  0.04658639456876292  0.7252608957021212  0.6174923406512747  1.0000
  N   N6        1.0  0.389371629480685  0.7747619365193547  0.882696336137066  1.0000
  N   N7        1.0  0.9534164616095708  0.2747341523150908  0.38251124944095966  1.0000
  N   N8        1.0  0.6106236532299364  0.2252434741378195  0.11730643053742547  1.0000
  N   N9        1.0  0.9490666255998548  0.2501134724108809  0.7498650742014803  1.0000
  N   N10       1.0  0.050935649673867496  0.7498881267342483  0.2501314843613542  1.0000
  N   N11       1.0  0.21785456465059377  0.5499070739842226  0.6939150507572903  1.0000
  N   N12       1.0  0.46168813840030515  0.9501563046578241  0.8062652056294795  1.0000
  N   N13       1.0  0.7821433743636421  0.45008511720627803  0.306084356100918  1.0000
  N   N14       1.0  0.5383073110766148  0.0498462516046843  0.19373363630516144  1.0000
