data_image0
_chemical_formula_structural       Al4H28C64Cl8O20
_chemical_formula_sum              "Al4 H28 C64 Cl8 O20"
_cell_length_a       6.631423880820724
_cell_length_b       24.302318277820206
_cell_length_c       25.258694919181018
_cell_angle_alpha    89.9904017923814
_cell_angle_beta     89.7299926025475
_cell_angle_gamma    88.0418060895136

_space_group_name_H-M_alt    "P 1"
_space_group_IT_number       1

loop_
  _space_group_symop_operation_xyz
  'x, y, z'

loop_
  _atom_site_type_symbol
  _atom_site_label
  _atom_site_symmetry_multiplicity
  _atom_site_fract_x
  _atom_site_fract_y
  _atom_site_fract_z
  _atom_site_occupancy
  Al  Al1       1.0  0.011774128812184903  0.0013783259531194997  0.4982661356846592  1.0000
  Al  Al2       1.0  0.5124974914559034  0.9977228753285061  0.4988611019809071  1.0000
  Al  Al3       1.0  0.987020982181278  0.5024111009663058  0.00114976770071  1.0000
  Al  Al4       1.0  0.4876453656283956  0.4987175585702275  0.0017332857574672  1.0000
  H   H1        1.0  0.2630068478194616  0.06765325489082127  0.5201920871294234  1.0000
  H   H2        1.0  0.7802677278466063  0.9346948104809414  0.5258414992850078  1.0000
  H   H3        1.0  0.2361965740284688  0.43233465705208113  0.9801044718908543  1.0000
  H   H4        1.0  0.7191057590599854  0.5653996152322877  0.9741216259509144  1.0000
  H   H5        1.0  0.4653185031360749  0.41488207911835656  0.140517135920561  1.0000
  H   H6        1.0  0.4551791792548343  0.3450460058044698  0.2126608931236476  1.0000
  H   H7        1.0  0.046148495922167895  0.2832395220206222  0.1640007845354674  1.0000
  H   H8        1.0  0.45049059039254064  0.21626180477713322  0.33555742112069  1.0000
  H   H9        1.0  0.0339448924531354  0.0856384097579195  0.3596054843622838  1.0000
  H   H10       1.0  0.042766361599845516  0.1551756397232822  0.2871711963474226  1.0000
  H   H11       1.0  0.9397711844117324  0.6371207501339241  0.900717036912738  1.0000
  H   H12       1.0  0.9406209690640779  0.7112569304714427  0.8325850617266326  1.0000
  H   H13       1.0  0.5345843457408038  0.6531512888053895  0.782678891618211  1.0000
  H   H14       1.0  0.9690429611150789  0.8466950325013939  0.7177875158175341  1.0000
  H   H15       1.0  0.560496339506919  0.8627815092554058  0.5986013967177755  1.0000
  H   H16       1.0  0.5621762746943517  0.7888484477358731  0.6669356449175865  1.0000
  H   H17       1.0  0.5282465052785313  0.631232844696818  0.0951631756934788  1.0000
  H   H18       1.0  0.5402577137028075  0.7060859297542805  0.1625203470737944  1.0000
  H   H19       1.0  0.9574217946700614  0.6591607243334463  0.22116716956871577  1.0000
  H   H20       1.0  0.5418411935945997  0.8407764728058066  0.2789543317730221  1.0000
  H   H21       1.0  0.9710817663231738  0.8689448082649562  0.40489650817861633  1.0000
  H   H22       1.0  0.9592560222241602  0.7938735571157098  0.3377407480089616  1.0000
  H   H23       1.0  0.4672796111480011  0.41560360683790515  0.8588929395545293  1.0000
  H   H24       1.0  0.4607163941657859  0.3467284963161035  0.7858986167037544  1.0000
  H   H25       1.0  0.043410147053208406  0.28221943100646735  0.8366479789009986  1.0000
  H   H26       1.0  0.4605746495028313  0.21835507330948184  0.6633311618675393  1.0000
  H   H27       1.0  0.0322090158901176  0.08359240889516431  0.6414153649558328  1.0000
  H   H28       1.0  0.0406177196816913  0.15239848841149944  0.7144528624626076  1.0000
  C   C1        1.0  0.7547875885019407  0.0680932684791458  0.5694674456999635  1.0000
  C   C2        1.0  0.7447515168142901  0.0665311364400907  0.42867331172069356  1.0000
  C   C3        1.0  0.2634054349231576  0.9352913650880124  0.4265036569861707  1.0000
  C   C4        1.0  0.26977584952732064  0.9334403414663722  0.571691700003889  1.0000
  C   C5        1.0  0.7449035844264884  0.43185636988278014  0.9306373419981994  1.0000
  C   C6        1.0  0.7546794987104306  0.4336969793086993  0.0714137424829389  1.0000
  C   C7        1.0  0.2359795568964174  0.564947582669781  0.07340736950934  1.0000
  C   C8        1.0  0.23000240415386483  0.5664968818353913  0.9281886766550117  1.0000
  C   C9        1.0  0.7615451336918254  0.39042890830521765  0.11337397957134242  1.0000
  C   C10       1.0  0.5931348397817545  0.38634075126156375  0.14699557547046282  1.0000
  C   C11       1.0  0.5868374755285828  0.34726227761335343  0.1869143066647823  1.0000
  C   C12       1.0  0.7511162156704998  0.30945271146949677  0.19374035925221733  1.0000
  C   C13       1.0  0.9198221149227095  0.31270943000741613  0.1599167163760029  1.0000
  C   C14       1.0  0.925616586724864  0.3527511497771484  0.1205311314786996  1.0000
  C   C15       1.0  0.748306963181598  0.267982719169531  0.2330386237019511  1.0000
  C   C16       1.0  0.7483249045740054  0.23172254078586715  0.2665074542523342  1.0000
  C   C17       1.0  0.7459963812062895  0.19036143537629613  0.3059253659152148  1.0000
  C   C18       1.0  0.5773302656876211  0.1869765426901323  0.3397474079146008  1.0000
  C   C19       1.0  0.5724420989767794  0.14712445794609855  0.37932877450942465  1.0000
  C   C20       1.0  0.7373211449533769  0.10972527595092166  0.3866342566881542  1.0000
  C   C21       1.0  0.9056242241068232  0.11395920403526108  0.3530095525018737  1.0000
  C   C22       1.0  0.9110869059731287  0.15285799911676176  0.3129112256237008  1.0000
  C   C23       1.0  0.23688313071968284  0.6053705669026994  0.88236744652626  1.0000
  C   C24       1.0  0.07009377080810711  0.641732855739036  0.8748997324987613  1.0000
  C   C25       1.0  0.07003986718050469  0.6828242107895831  0.8368543658898419  1.0000
  C   C26       1.0  0.2401508267807699  0.6883555789631043  0.8037375667866726  1.0000
  C   C27       1.0  0.4047479291293  0.650544231803181  0.8090087012378575  1.0000
  C   C28       1.0  0.4032647356403983  0.6097854659947187  0.8477842781445517  1.0000
  C   C29       1.0  0.24768808143841167  0.7312555396594431  0.7660297283280926  1.0000
  C   C30       1.0  0.2565238980444704  0.7687373133121082  0.7340073811904659  1.0000
  C   C31       1.0  0.26318640543330224  0.8116409079132295  0.6962727801183703  1.0000
  C   C32       1.0  0.0981562898353872  0.8493525907238676  0.6912228412216805  1.0000
  C   C33       1.0  0.09842113542481461  0.8900457963014358  0.6523724236922348  1.0000
  C   C34       1.0  0.26389287681727325  0.8944842633595372  0.617494882417958  1.0000
  C   C35       1.0  0.4310342835958352  0.8581952651526236  0.6247050307079718  1.0000
  C   C36       1.0  0.4323927465304748  0.817188002152747  0.6628358715025514  1.0000
  C   C37       1.0  0.23439255732270678  0.6055014805418962  0.1178219602104917  1.0000
  C   C38       1.0  0.4024507021665188  0.6388829050053956  0.1223944241887551  1.0000
  C   C39       1.0  0.4097466680102356  0.6802361475852833  0.1600309897894761  1.0000
  C   C40       1.0  0.2470367534618134  0.6888423486091568  0.1956589763483052  1.0000
  C   C41       1.0  0.08115416754746008  0.6541975959080588  0.192884991721229  1.0000
  C   C42       1.0  0.07473564622023333  0.6132041576089051  0.154410509360325  1.0000
  C   C43       1.0  0.2493446788884057  0.7314199136884268  0.2338148897472792  1.0000
  C   C44       1.0  0.2501347390094253  0.768414846056565  0.2664967571774497  1.0000
  C   C45       1.0  0.2523804449431352  0.8110832447959381  0.3045576873605143  1.0000
  C   C46       1.0  0.4181365288579216  0.8457878518402495  0.3072228748359649  1.0000
  C   C47       1.0  0.4244940128641588  0.8869066907031634  0.3455623847421165  1.0000
  C   C48       1.0  0.2648738314600152  0.8946738110698644  0.3821418007749458  1.0000
  C   C49       1.0  0.0968527036891018  0.8612658702113619  0.3776671033277097  1.0000
  C   C50       1.0  0.08964959160969951  0.8197870810063606  0.3401500497355414  1.0000
  C   C51       1.0  0.7567970472486676  0.38909409654679905  0.8880953114618181  1.0000
  C   C52       1.0  0.5933342046193174  0.3863008279960097  0.8529534218032353  1.0000
  C   C53       1.0  0.5894202804943803  0.3479104867577477  0.81246005571181  1.0000
  C   C54       1.0  0.7521262300020766  0.30945799225298026  0.8061352048393148  1.0000
  C   C55       1.0  0.9172855323672733  0.3117998066928179  0.8407736436638088  1.0000
  C   C56       1.0  0.9201025454516129  0.3509479498958256  0.8810182388104266  1.0000
  C   C57       1.0  0.7509440018360961  0.26814121603062085  0.7667369427492119  1.0000
  C   C58       1.0  0.7524048113359001  0.23166763115086297  0.733491430586092  1.0000
  C   C59       1.0  0.7504655709515261  0.19037575592402328  0.6940742479436679  1.0000
  C   C60       1.0  0.585595640557429  0.1884383958766378  0.6592962420098587  1.0000
  C   C61       1.0  0.5816536473393015  0.14933866659497133  0.6190317706023407  1.0000
  C   C62       1.0  0.7437694920119426  0.1108160996602905  0.6120516809554957  1.0000
  C   C63       1.0  0.9070539963338575  0.1131941138354051  0.647304166932102  1.0000
  C   C64       1.0  0.9119814019559627  0.15153120500959716  0.6878400468754577  1.0000
  Cl  Cl1       1.0  0.1360989561572978  0.3515007916284602  0.07987986919970778  1.0000
  Cl  Cl2       1.0  0.3620104154591246  0.14829332169720993  0.4200008391807657  1.0000
  Cl  Cl3       1.0  0.6102411104640026  0.5644438920988647  0.8496155056946932  1.0000
  Cl  Cl4       1.0  0.8909655483567178  0.935224314765719  0.6507578275575626  1.0000
  Cl  Cl5       1.0  0.8701757533546441  0.5710619986135653  0.1555272948838464  1.0000
  Cl  Cl6       1.0  0.6288354186740152  0.9291278346358066  0.34431523795342406  1.0000
  Cl  Cl7       1.0  0.1291390730152102  0.34662878705091044  0.9219960329672006  1.0000
  Cl  Cl8       1.0  0.37320840813536904  0.15409280587167018  0.5778887245463339  1.0000
  O   O1        1.0  0.9309188177238141  0.04982425393293968  0.5565802074001311  1.0000
  O   O2        1.0  0.5823249322826812  0.043446588309009784  0.4407800412650005  1.0000
  O   O3        1.0  0.42909810669350884  0.9438342659906668  0.44968667160505055  1.0000
  O   O4        1.0  0.10373972034376781  0.945024371268623  0.5486161276152046  1.0000
  O   O5        1.0  0.09207084812410933  0.9565210855813074  0.4393195719766538  1.0000
  O   O6        1.0  0.44266973541100185  0.9500491025388486  0.5580275793411431  1.0000
  O   O7        1.0  0.5899745338165729  0.053095535271594885  0.5495900760220849  1.0000
  O   O8        1.0  0.9167337290231996  0.05588814206548418  0.4493438931438262  1.0000
  O   O9        1.0  0.2603299310820404  0.03300537083669038  0.5010955396246359  1.0000
  O   O10       1.0  0.7688645936577462  0.9651445971405932  0.5010481833995826  1.0000
  O   O11       1.0  0.9095013718398732  0.44693287521773317  0.9505892733648835  1.0000
  O   O12       1.0  0.5827834501191802  0.4443416353656815  0.05070866261155519  1.0000
  O   O13       1.0  0.40726039848713913  0.5436785991727291  0.0606397913910683  1.0000
  O   O14       1.0  0.0569879420956667  0.5499203716535701  0.9417831926527711  1.0000
  O   O15       1.0  0.07034708782685331  0.5564636702803937  0.050157405189729304  1.0000
  O   O16       1.0  0.3957755191362651  0.5549519214158137  0.9513942701040109  1.0000
  O   O17       1.0  0.5686370402172402  0.45008321514308836  0.9434359862120941  1.0000
  O   O18       1.0  0.9171839829347591  0.45680173886270126  0.05939366529940321  1.0000
  O   O19       1.0  0.23912232211500142  0.4670797619838466  0.9990183435720112  1.0000
  O   O20       1.0  0.7305843911828872  0.5349486565869127  0.9989133103900514  1.0000
