data_image0
_chemical_formula_structural       Tl4H16C28S8N4O8
_chemical_formula_sum              "Tl4 H16 C28 S8 N4 O8"
_cell_length_a       7.801500760694346
_cell_length_b       10.72838378813991
_cell_length_c       11.21847433377416
_cell_angle_alpha    90.00004276632161
_cell_angle_beta     104.95465260166628
_cell_angle_gamma    90.00055431491994

_space_group_name_H-M_alt    "P 1"
_space_group_IT_number       1

loop_
  _space_group_symop_operation_xyz
  'x, y, z'

loop_
  _atom_site_type_symbol
  _atom_site_label
  _atom_site_symmetry_multiplicity
  _atom_site_fract_x
  _atom_site_fract_y
  _atom_site_fract_z
  _atom_site_occupancy
  Tl  Tl1       1.0  0.3274620476990719  0.36955742782501483  0.3700649639065288  1.0000
  Tl  Tl2       1.0  0.8274584281459381  0.13044489015531002  0.3700634535297595  1.0000
  Tl  Tl3       1.0  0.6725390417482513  0.630445198669804  0.6299358109129114  1.0000
  Tl  Tl4       1.0  0.17254000782295256  0.8695577363299661  0.6299368479353189  1.0000
  H   H1        1.0  0.15424282406638665  0.5055057722245662  0.9955272165768247  1.0000
  H   H2        1.0  0.654240500277382  0.9944935854003133  0.9955253161506331  1.0000
  H   H3        1.0  0.8457609167293682  0.49449312585205235  0.004473139827695029  1.0000
  H   H4        1.0  0.3457552800628178  0.005502516327126699  0.004473620186153887  1.0000
  H   H5        1.0  0.07962624170554732  0.3112410480760204  0.09732122688405546  1.0000
  H   H6        1.0  0.579624790156039  0.18875931191400494  0.09731836376179355  1.0000
  H   H7        1.0  0.920373518879323  0.6887587820931312  0.9026784194904773  1.0000
  H   H8        1.0  0.42036965924577163  0.8112377219148142  0.9026785523732027  1.0000
  H   H9        1.0  0.0641714064802699  0.10898533612539295  0.993434397361575  1.0000
  H   H10       1.0  0.5641742203202397  0.39101373736452405  0.9934351194140374  1.0000
  H   H11       1.0  0.9358270252624266  0.8910144940386355  0.006564120572704677  1.0000
  H   H12       1.0  0.4358228888621412  0.6089823643680388  0.006564945362995895  1.0000
  H   H13       1.0  0.12281340492437208  0.09118967910297467  0.7846800775989208  1.0000
  H   H14       1.0  0.62281913448318  0.4088133766762138  0.7846831157715781  1.0000
  H   H15       1.0  0.877183695893443  0.9088129473761337  0.21531642013668054  1.0000
  H   H16       1.0  0.3771819612460162  0.591185521392262  0.21532033433088316  1.0000
  C   C1        1.0  0.17406265638576457  0.40315019489197795  0.8333413463184622  1.0000
  C   C2        1.0  0.6740638567619186  0.09685325982773206  0.8333406708384029  1.0000
  C   C3        1.0  0.8259357795831335  0.5968524315932979  0.16665895514661602  1.0000
  C   C4        1.0  0.32594121288277467  0.9031465703608602  0.16666081400793323  1.0000
  C   C5        1.0  0.14605023335415973  0.4153178635220909  0.949925958492393  1.0000
  C   C6        1.0  0.6460499284641228  0.08468361864294136  0.9499241140685651  1.0000
  C   C7        1.0  0.8539495293404328  0.5846828987542594  0.05007457964676826  1.0000
  C   C8        1.0  0.3539485053680167  0.9153143473077417  0.050075295625681755  1.0000
  C   C9        1.0  0.10621580190174737  0.3066896294075717  0.006637005967149888  1.0000
  C   C10       1.0  0.6062183965582689  0.19331084874061583  0.006634868026082972  1.0000
  C   C11       1.0  0.8937813052046975  0.6933102007520374  0.993362167053021  1.0000
  C   C12       1.0  0.3937787063084598  0.8066843208840521  0.9933625214601772  1.0000
  C   C13       1.0  0.09770203494534967  0.19125691565781713  0.9474034756447264  1.0000
  C   C14       1.0  0.597704986952813  0.30874422339486773  0.9474059440620618  1.0000
  C   C15       1.0  0.9022950658589507  0.8087438466075906  0.05259302208777674  1.0000
  C   C16       1.0  0.4022921285519842  0.6912537425524403  0.052596796007300356  1.0000
  C   C17       1.0  0.1301774052996407  0.18094415545765224  0.8309607311786491  1.0000
  C   C18       1.0  0.6301804963371253  0.3190608519601027  0.8309587751131955  1.0000
  C   C19       1.0  0.8698210306760072  0.8190594031344669  0.1690395702879782  1.0000
  C   C20       1.0  0.3698205909937187  0.6809399103206741  0.16904110794006744  1.0000
  C   C21       1.0  0.16784878447310797  0.28854202028787757  0.7732175813790858  1.0000
  C   C22       1.0  0.6678503197052945  0.21145854818380624  0.7732170506916628  1.0000
  C   C23       1.0  0.8321496514822682  0.711458741983705  0.22678272008289457  1.0000
  C   C24       1.0  0.33215475202884903  0.7885394177914405  0.22678532591464054  1.0000
  C   C25       1.0  0.2075829968419356  0.30293477542128494  0.6507897866709837  1.0000
  C   C26       1.0  0.7075829945772726  0.19706784383579645  0.6507880796402715  1.0000
  C   C27       1.0  0.7924154391269554  0.6970678510639841  0.3492105147940946  1.0000
  C   C28       1.0  0.2924180927535645  0.8029329184449806  0.3492118034129986  1.0000
  S   S1        1.0  0.22017281678230918  0.5177817510061968  0.7318353500136819  1.0000
  S   S2        1.0  0.7201676636599998  0.9822206661083891  0.7318338271405478  1.0000
  S   S3        1.0  0.779828270548535  0.48221901127457995  0.26816453303958804  1.0000
  S   S4        1.0  0.2798360792522344  0.017780096182278295  0.2681674210301565  1.0000
  S   S5        1.0  0.22764558713203795  0.17935515405937955  0.5618052039733071  1.0000
  S   S6        1.0  0.7276460519112005  0.32064660647837673  0.561804563363246  1.0000
  S   S7        1.0  0.7723554981025912  0.8206465403278924  0.4381937873184326  1.0000
  S   S8        1.0  0.2723550396255732  0.6793541558030894  0.4381971032161686  1.0000
  N   N1        1.0  0.23555627299545276  0.4205779323409331  0.6212440529387917  1.0000
  N   N2        1.0  0.7355558960523964  0.07942392957227179  0.6212439745335486  1.0000
  N   N3        1.0  0.7644434875894177  0.5794218978282186  0.3787555934357413  1.0000
  N   N4        1.0  0.2644465201206287  0.9205768327136211  0.3787570369599748  1.0000
  O   O1        1.0  0.39044063057887257  0.5788176597727668  0.7825794671113326  1.0000
  O   O2        1.0  0.8904438797406584  0.9211878620516172  0.7825793978249107  1.0000
  O   O3        1.0  0.6095617856009097  0.42118403461997617  0.21742154438373962  1.0000
  O   O4        1.0  0.10955587664503237  0.0788129002236815  0.21741846502501966  1.0000
  O   O5        1.0  0.07017555192031469  0.6025824234751621  0.6923982479300503  1.0000
  O   O6        1.0  0.5701811078868104  0.897419837032835  0.6923976811282058  1.0000
  O   O7        1.0  0.9298242107945499  0.39742113512173194  0.30760229021375807  1.0000
  O   O8        1.0  0.4298186527115746  0.10258185735001035  0.30760196524942524  1.0000
