data_image0
_chemical_formula_structural       La4H76C108O32
_chemical_formula_sum              "La4 H76 C108 O32"
_cell_length_a       13.904974119262851
_cell_length_b       14.594390070774356
_cell_length_c       22.49354254077186
_cell_angle_alpha    108.91072843434641
_cell_angle_beta     100.71198138904104
_cell_angle_gamma    90.0131026880766

_space_group_name_H-M_alt    "P 1"
_space_group_IT_number       1

loop_
  _space_group_symop_operation_xyz
  'x, y, z'

loop_
  _atom_site_type_symbol
  _atom_site_label
  _atom_site_symmetry_multiplicity
  _atom_site_fract_x
  _atom_site_fract_y
  _atom_site_fract_z
  _atom_site_occupancy
  La  La1       1.0  0.46264559289731017  0.4176761406795537  0.4052438539929285  1.0000
  La  La2       1.0  0.03723433724612589  0.012324412625403701  0.5947608738562664  1.0000
  La  La3       1.0  0.5373517279085931  0.5823226608030654  0.5947544646086983  1.0000
  La  La4       1.0  0.9627661501186109  0.9876741163223955  0.4052407968151713  1.0000
  H   H1        1.0  0.8022848903596366  0.7292698877732066  0.5363625634527268  1.0000
  H   H2        1.0  0.698035280017301  0.1933626795951826  0.46367258135551753  1.0000
  H   H3        1.0  0.19771028734913904  0.2707321070128757  0.46363966138866186  1.0000
  H   H4        1.0  0.3019718439933428  0.8066373700571108  0.5363313352455921  1.0000
  H   H5        1.0  0.9231661162254808  0.7292538325059683  0.3737166848945749  1.0000
  H   H6        1.0  0.5768902455433889  0.3558187729298157  0.6261834542734449  1.0000
  H   H7        1.0  0.076833683142489  0.2707418181914109  0.6262828397585807  1.0000
  H   H8        1.0  0.42310707715255086  0.6441813653498941  0.3738161971450398  1.0000
  H   H9        1.0  0.7012234946469035  0.5082077250246827  0.35451684997174493  1.0000
  H   H10       1.0  0.7989823099879345  0.15429633793661438  0.6456429064887177  1.0000
  H   H11       1.0  0.2987763085011323  0.4917905992668782  0.6454853403151192  1.0000
  H   H12       1.0  0.2010167172363424  0.8457046977728383  0.35436126226249354  1.0000
  H   H13       1.0  0.8670686784338031  0.6945133167491165  0.2709341975517391  1.0000
  H   H14       1.0  0.632838334256256  0.4241469405292267  0.7291358782300466  1.0000
  H   H15       1.0  0.13292961305015177  0.3054849619498798  0.729067221788803  1.0000
  H   H16       1.0  0.3671627418380581  0.5758520355547675  0.27086406604119884  1.0000
  H   H17       1.0  0.8858158399525989  0.6133010601042558  0.16152076670302765  1.0000
  H   H18       1.0  0.6140111082240338  0.45221196598355845  0.8385269876631158  1.0000
  H   H19       1.0  0.11418157949047716  0.3866997268935536  0.8384809800447997  1.0000
  H   H20       1.0  0.38599060812348535  0.5477900095908411  0.16147449923402496  1.0000
  H   H21       1.0  0.8020243358158723  0.3377988988621753  0.17632520872488305  1.0000
  H   H22       1.0  0.6979781166145711  0.1620362698145147  0.8237974801022646  1.0000
  H   H23       1.0  0.19797742512515262  0.6622007274770995  0.8236746602032241  1.0000
  H   H24       1.0  0.30202286588265537  0.8379642855465265  0.17620259020105786  1.0000
  H   H25       1.0  0.7829648576081636  0.41918767802006585  0.28589120096263804  1.0000
  H   H26       1.0  0.7171093744832149  0.13398869876856173  0.714262522489662  1.0000
  H   H27       1.0  0.21703498824334838  0.5808069602392723  0.7141080385383419  1.0000
  H   H28       1.0  0.28289014409349994  0.8660116897599509  0.28573738025972534  1.0000
  H   H29       1.0  0.8729203787071211  0.5471110325809931  0.06667174559053285  1.0000
  H   H30       1.0  0.627096076827193  0.48074459937141295  0.9334706991180753  1.0000
  H   H31       1.0  0.12707987308986896  0.4528903305618432  0.9333291294803916  1.0000
  H   H32       1.0  0.37290558988672734  0.5192561606458669  0.06652885156982087  1.0000
  H   H33       1.0  0.9036534593332987  0.46453039091181164  0.9608345773731914  1.0000
  H   H34       1.0  0.5964551509010222  0.5037782388281968  0.03931732644259269  1.0000
  H   H35       1.0  0.09634596690634109  0.5354724680917968  0.03916633995283556  1.0000
  H   H36       1.0  0.403542170534891  0.49622100825345006  0.9606814364313225  1.0000
  H   H37       1.0  0.8883626655804375  0.1904543254586031  0.9945247805210399  1.0000
  H   H38       1.0  0.6116829401794206  0.1960285540052666  0.005545297147364231  1.0000
  H   H39       1.0  0.1116411027871678  0.8095478184854984  0.005474703257554835  1.0000
  H   H40       1.0  0.3883164810201407  0.8039707402061044  0.9944520660003919  1.0000
  H   H41       1.0  0.8621017597392251  0.2734887184976103  0.1011606319744445  1.0000
  H   H42       1.0  0.6379093823361544  0.17264070176388222  0.8988957115921253  1.0000
  H   H43       1.0  0.13790146449230886  0.726510629075165  0.8988389602353166  1.0000
  H   H44       1.0  0.3620929208509125  0.8273603841496214  0.10110271608796505  1.0000
  H   H45       1.0  0.9129262809180005  0.3939483500995923  0.87098938775641  1.0000
  H   H46       1.0  0.587356105114857  0.5230122404761489  0.12896939874796945  1.0000
  H   H47       1.0  0.08707154069048785  0.6060564881875335  0.1290113289276534  1.0000
  H   H48       1.0  0.41264126343460833  0.4769864397664921  0.8710295232460511  1.0000
  H   H49       1.0  0.9528135163939025  0.3076247111182157  0.7656009830272623  1.0000
  H   H50       1.0  0.5474373260521475  0.5422492733796532  0.23440012681012945  1.0000
  H   H51       1.0  0.04718543871025821  0.6923838162754664  0.23439834309773044  1.0000
  H   H52       1.0  0.4525580319206881  0.4577446612629999  0.7655969589719832  1.0000
  H   H53       1.0  0.9602523033047418  0.04076357076922951  0.8071350670672431  1.0000
  H   H54       1.0  0.5393576894601821  0.233904737544549  0.19301954467201204  1.0000
  H   H55       1.0  0.0397452324724057  0.9592424405567854  0.19286247353477395  1.0000
  H   H56       1.0  0.4606426954873155  0.7660891322938642  0.806976032219531  1.0000
  H   H57       1.0  0.9238363491389378  0.12551929269650247  0.9138086194828859  1.0000
  H   H58       1.0  0.5760793104799973  0.21185332888369157  0.08635971191879586  1.0000
  H   H59       1.0  0.07615835113424649  0.8744839144893392  0.08618757143462133  1.0000
  H   H60       1.0  0.4239178174616356  0.7881446207617347  0.9136348602964264  1.0000
  H   H61       1.0  0.28907125989157123  0.5411885615280455  0.37056858542577953  1.0000
  H   H62       1.0  0.21086456897809566  0.17046897023654167  0.6294102774395756  1.0000
  H   H63       1.0  0.7109255651518325  0.4588077679422967  0.6294308892716884  1.0000
  H   H64       1.0  0.7891306558442251  0.8295324577105349  0.37059210652191876  1.0000
  H   H65       1.0  0.27387110131281395  0.4503273051396023  0.309531347003123  1.0000
  H   H66       1.0  0.2259416881801144  0.14068753171444845  0.6904820954219275  1.0000
  H   H67       1.0  0.7261291467041104  0.5496713844090453  0.6904668624340929  1.0000
  H   H68       1.0  0.7740641521740698  0.8593042909618873  0.30951651456596363  1.0000
  H   H69       1.0  0.3833439234172218  0.2011655774432058  0.35013142205777836  1.0000
  H   H70       1.0  0.11663507130834462  0.8510879277989505  0.64995484201679  1.0000
  H   H71       1.0  0.6166631987033924  0.7988331354119966  0.6498711617264804  1.0000
  H   H72       1.0  0.8833718196545988  0.1489167384444913  0.35005005607293077  1.0000
  H   H73       1.0  0.318048133807558  0.2698928396809635  0.39340216765739916  1.0000
  H   H74       1.0  0.181902926066023  0.8765923641535738  0.6066631568455422  1.0000
  H   H75       1.0  0.6819509788236715  0.7301008239640443  0.6065960995220437  1.0000
  H   H76       1.0  0.8180955313856018  0.12341235443074791  0.39333599255843416  1.0000
  C   C1        1.0  0.6747329663823862  0.568847700397207  0.4753159541646  1.0000
  C   C2        1.0  0.8255046537363241  0.0940784420992175  0.5247852098393581  1.0000
  C   C3        1.0  0.32526127768171154  0.43114712074899597  0.524676220701437  1.0000
  C   C4        1.0  0.17449533660587946  0.9059167236382567  0.4752167283833516  1.0000
  C   C5        1.0  0.7443719550678054  0.6140066027761082  0.4476173809630098  1.0000
  C   C6        1.0  0.7559606368452804  0.1670159427626532  0.5525162576391837  1.0000
  C   C7        1.0  0.255628893018887  0.386000554691286  0.5523870989751245  1.0000
  C   C8        1.0  0.24404403738992636  0.832983006423838  0.44749380205021805  1.0000
  C   C9        1.0  0.8037511984803912  0.6969770100583049  0.48563835555381024  1.0000
  C   C10       1.0  0.6965658720740038  0.21185747518882908  0.5144052719820564  1.0000
  C   C11       1.0  0.19624597720480352  0.3030208183471503  0.5143568200537986  1.0000
  C   C12       1.0  0.3034370650661629  0.7881421542247724  0.485590255601089  1.0000
  C   C13       1.0  0.8659138010456002  0.7392019175489608  0.4582253409160658  1.0000
  C   C14       1.0  0.6342622228687773  0.28133468242929655  0.5417457189947541  1.0000
  C   C15       1.0  0.13408522617868357  0.26079911816049184  0.5417788278351453  1.0000
  C   C16       1.0  0.36573982957368406  0.7186677812623616  0.4582613244659585  1.0000
  C   C17       1.0  0.8708205309697661  0.6974231088979936  0.39333809133407277  1.0000
  C   C18       1.0  0.629338312791688  0.3044926781574873  0.60663472873469  1.0000
  C   C19       1.0  0.1291805909780805  0.3025744091489317  0.6066611235127085  1.0000
  C   C20       1.0  0.37066110651784373  0.6955052792567926  0.39336130159621524  1.0000
  C   C21       1.0  0.8135207075422954  0.6119719476842251  0.3548602946528732  1.0000
  C   C22       1.0  0.6866950776327769  0.2577071224127042  0.6452283398547892  1.0000
  C   C23       1.0  0.1864791414592659  0.388024918570267  0.645141166209527  1.0000
  C   C24       1.0  0.313305365768464  0.742294201369255  0.3547753930579703  1.0000
  C   C25       1.0  0.7493729090718944  0.5723323450804189  0.38290687248579053  1.0000
  C   C26       1.0  0.7508975420241343  0.19005688618079852  0.617222542821871  1.0000
  C   C27       1.0  0.25062674643538674  0.4276632237378523  0.6170903977179166  1.0000
  C   C28       1.0  0.24910105424809362  0.8099443494903725  0.38277530685327593  1.0000
  C   C29       1.0  0.9274130538307189  0.8286243865028241  0.4995211012396724  1.0000
  C   C30       1.0  0.5725061515860261  0.3291912156994316  0.5003850494404107  1.0000
  C   C31       1.0  0.07258733615686447  0.17137304812784063  0.5004780298301413  1.0000
  C   C32       1.0  0.42749468768052173  0.6708097033815366  0.4996132106857446  1.0000
  C   C33       1.0  0.8225045122972074  0.5637133422592129  0.28758105368243053  1.0000
  C   C34       1.0  0.6775912228375417  0.27677484598999075  0.7125219994377404  1.0000
  C   C35       1.0  0.1774967993648531  0.43628279962975125  0.7124196861893354  1.0000
  C   C36       1.0  0.32241053873349296  0.723225225948312  0.28747831376264815  1.0000
  C   C37       1.0  0.8508678860407174  0.6161458922562418  0.2504449596112438  1.0000
  C   C38       1.0  0.6491118882571597  0.36626511030907255  0.7496381717978409  1.0000
  C   C39       1.0  0.1491311380335105  0.3838529154580571  0.7495569877785471  1.0000
  C   C40       1.0  0.3508889560494737  0.6337393735641471  0.2503636425065849  1.0000
  C   C41       1.0  0.8623056035128727  0.5694146124584237  0.18785542885121492  1.0000
  C   C42       1.0  0.637618169428407  0.3820605433750902  0.8122268023870803  1.0000
  C   C43       1.0  0.13769323084713386  0.43058557141383624  0.8121449935135915  1.0000
  C   C44       1.0  0.3623851490302171  0.6179376705196732  0.18777310806289194  1.0000
  C   C45       1.0  0.8474730958759408  0.467972025176266  0.15929672530878491  1.0000
  C   C46       1.0  0.6525038175647925  0.30916306402000554  0.8408158244892479  1.0000
  C   C47       1.0  0.15252866569509385  0.5320280467620364  0.8407035878916105  1.0000
  C   C48       1.0  0.3474985823694112  0.6908386706116048  0.1591846985201927  1.0000
  C   C49       1.0  0.8173513497916287  0.41611126389820907  0.1964177109795316  1.0000
  C   C50       1.0  0.6826623384103881  0.22026877380569965  0.8037013787053412  1.0000
  C   C51       1.0  0.1826498682733444  0.5838864572678022  0.8035831549243113  1.0000
  C   C52       1.0  0.3173400608938054  0.7797325152268826  0.19629870003180383  1.0000
  C   C53       1.0  0.8050811256379334  0.462576795732133  0.2587633194386072  1.0000
  C   C54       1.0  0.6949900182611941  0.20448069585413733  0.7413699110143456  1.0000
  C   C55       1.0  0.19491921786611502  0.5374216513365725  0.741236096783382  1.0000
  C   C56       1.0  0.3050102793893288  0.7955192092516301  0.2586302346321149  1.0000
  C   C57       1.0  0.8646982919479953  0.4180562342543794  0.09399325129053443  1.0000
  C   C58       1.0  0.6352779152665775  0.3244003575804941  0.9061123885134493  1.0000
  C   C59       1.0  0.1353027382927863  0.5819441998666833  0.9060074224051746  1.0000
  C   C60       1.0  0.36472370622382755  0.6756023060728895  0.09388833587119907  1.0000
  C   C61       1.0  0.8772699874287966  0.46861346786356967  0.05191730306368925  1.0000
  C   C62       1.0  0.6227579335175973  0.4169546089474782  0.9482122957869736  1.0000
  C   C63       1.0  0.12273026310817407  0.5313870040812038  0.9480826834626656  1.0000
  C   C64       1.0  0.37724382616340796  0.5830441261937339  0.05178668459656425  1.0000
  C   C65       1.0  0.8941598668309183  0.42091261802958296  0.9907454810040195  1.0000
  C   C66       1.0  0.6059329844727301  0.43030062244288564  0.009379849113038633  1.0000
  C   C67       1.0  0.10584038622609167  0.5790896363113164  0.009256282611467315  1.0000
  C   C68       1.0  0.3940672176906688  0.5696995251428382  0.9906190897486414  1.0000
  C   C69       1.0  0.8990111041801541  0.3193825575820527  0.9673738671372407  1.0000
  C   C70       1.0  0.6010872418308679  0.3521050377699737  0.03272516730454813  1.0000
  C   C71       1.0  0.1009896898628782  0.680620265135012  0.032625566685659683  1.0000
  C   C72       1.0  0.3989121787386836  0.6478938108423625  0.9672717515709269  1.0000
  C   C73       1.0  0.8863039168888562  0.2691248684191194  0.009548438389870713  1.0000
  C   C74       1.0  0.6137542846151121  0.2597052231005608  0.9905360458600044  1.0000
  C   C75       1.0  0.1136985766424417  0.730875286935451  0.9904519585874925  1.0000
  C   C76       1.0  0.3862451855880309  0.7402948410688879  0.009462809224714926  1.0000
  C   C77       1.0  0.8702272524652201  0.3167186965409527  0.07076635145414666  1.0000
  C   C78       1.0  0.6297835852748932  0.24622218489890485  0.9293166445851995  1.0000
  C   C79       1.0  0.12977519395252557  0.6832820256526236  0.9292338864031111  1.0000
  C   C80       1.0  0.3702187637656992  0.7537774429775296  0.07068105367042689  1.0000
  C   C81       1.0  0.9174546485176904  0.2678468364605211  0.9024573536764038  1.0000
  C   C82       1.0  0.5826588724842735  0.3654875631733177  0.09763733164435003  1.0000
  C   C83       1.0  0.08254170728025662  0.7321564981969858  0.09754186263687367  1.0000
  C   C84       1.0  0.41733908479476867  0.6345115642055179  0.9023598639494709  1.0000
  C   C85       1.0  0.9246867301581503  0.31676982566827416  0.8585266943992665  1.0000
  C   C86       1.0  0.575522498452493  0.4583647473996067  0.1415085321791382  1.0000
  C   C87       1.0  0.07531241088015862  0.6832346519732583  0.14147149111700238  1.0000
  C   C88       1.0  0.42447701571413887  0.5416325219356894  0.8584882606642525  1.0000
  C   C89       1.0  0.9465591626004864  0.2685750838831852  0.7987452261640797  1.0000
  C   C90       1.0  0.5536153150906743  0.470040610941041  0.20128481409263807  1.0000
  C   C91       1.0  0.0534402190456476  0.731430124355562  0.20125730913098047  1.0000
  C   C92       1.0  0.44637921732481095  0.5299548195623915  0.7987123139445772  1.0000
  C   C93       1.0  0.9612389164761765  0.16906934966112186  0.7801977947919524  1.0000
  C   C94       1.0  0.5387271212753221  0.38913800209398636  0.2198551326491512  1.0000
  C   C95       1.0  0.038760864815337484  0.830938127470809  0.21980193335021175  1.0000
  C   C96       1.0  0.46126735898653237  0.6108544304562146  0.7801382820896877  1.0000
  C   C97       1.0  0.9503271545209839  0.11846082992855883  0.8221493952743374  1.0000
  C   C98       1.0  0.5494918211378347  0.2965433700499887  0.1779749517353579  1.0000
  C   C99       1.0  0.04967179617310081  0.8815445782719068  0.17784682094465867  1.0000
  C   C100      1.0  0.4505054010309025  0.7034534459174254  0.8220199387200752  1.0000
  C   C101      1.0  0.9294562026373399  0.16707215117329355  0.8820443068400508  1.0000
  C   C102      1.0  0.5705152983931541  0.28516049636566987  0.11809099996044387  1.0000
  C   C103      1.0  0.07054088512086311  0.8329312669004735  0.1179549932502014  1.0000
  C   C104      1.0  0.4294820173726706  0.7148347403246978  0.8819037644629123  1.0000
  C   C105      1.0  0.9912842858775335  0.1175296860364697  0.7182505613726349  1.0000
  C   C106      1.0  0.5086242938936962  0.3996852369013838  0.2818126859737405  1.0000
  C   C107      1.0  0.008720384828066583  0.8824821004024276  0.2817498461523514  1.0000
  C   C108      1.0  0.49136905161246597  0.6003026153442055  0.7181812307796137  1.0000
  O   O1        1.0  0.28739782770777106  0.4701949740383214  0.3561396941541944  1.0000
  O   O2        1.0  0.21251084465539094  0.11392984868280136  0.6438772936366635  1.0000
  O   O3        1.0  0.7125974391880162  0.5298023222775046  0.6438592947491274  1.0000
  O   O4        1.0  0.7874888133719364  0.8860675025315958  0.35612175365618287  1.0000
  O   O5        1.0  0.3444007210988858  0.25746627222048357  0.3539837750447106  1.0000
  O   O6        1.0  0.15553189370050544  0.9035701102342703  0.6460728740417282  1.0000
  O   O7        1.0  0.6556051186252888  0.7425251048568174  0.6460143906708995  1.0000
  O   O8        1.0  0.8444717829600421  0.09643494978396222  0.3539280685857947  1.0000
  O   O9        1.0  0.6293473548459544  0.4886943687857014  0.43927085635974095  1.0000
  O   O10       1.0  0.8707646439965302  0.049848940506692085  0.5607939805362037  1.0000
  O   O11       1.0  0.3706489149150228  0.5113158923372156  0.5607338172530235  1.0000
  O   O12       1.0  0.12922722997237907  0.9501426356778496  0.439214511311768  1.0000
  O   O13       1.0  0.6645381488352058  0.6127342060371179  0.5326788062407745  1.0000
  O   O14       1.0  0.8356881285636247  0.08061995679404547  0.4674252986278021  1.0000
  O   O15       1.0  0.3354626069144259  0.387275421905379  0.4673266882739996  1.0000
  O   O16       1.0  0.16431755842310033  0.9193743379775798  0.5325844667423427  1.0000
  O   O17       1.0  0.9508342004584946  0.8454226179361587  0.5594356050869609  1.0000
  O   O18       1.0  0.5490896766807154  0.2860241343015987  0.4404886758933558  1.0000
  O   O19       1.0  0.04916964065924389  0.15457247992274173  0.4405691655901408  1.0000
  O   O20       1.0  0.450911907146299  0.7139857801762519  0.5595185534554477  1.0000
  O   O21       1.0  0.9543077256390688  0.8876266730001064  0.4728216273050664  1.0000
  O   O22       1.0  0.5453491773197854  0.4147627372862532  0.5270518204146626  1.0000
  O   O23       1.0  0.045696519534111184  0.112373812945194  0.5271834461251289  1.0000
  O   O24       1.0  0.4546549284027817  0.585240785973163  0.47295410847207375  1.0000
  O   O25       1.0  0.01865822992197508  0.16691778449278175  0.6855573021206354  1.0000
  O   O26       1.0  0.48167979644770753  0.4818998352612312  0.3145774125789275  1.0000
  O   O27       1.0  0.9813430598835639  0.8330875102365528  0.3144409756064307  1.0000
  O   O28       1.0  0.5183095129787888  0.518092580214102  0.6854152566010401  1.0000
  O   O29       1.0  0.9907279497830288  0.024591802601307448  0.699109402665755  1.0000
  O   O30       1.0  0.5087145116350271  0.32583860049131647  0.3008717850321717  1.0000
  O   O31       1.0  0.00928318845076598  0.9754128366616045  0.30089329936404147  1.0000
  O   O32       1.0  0.4912806076200127  0.67415594035122  0.6991222837880003  1.0000
