data_image0
_chemical_formula_structural       CuH14C12N8O2
_chemical_formula_sum              "Cu1 H14 C12 N8 O2"
_cell_length_a       3.7536260948030553
_cell_length_b       8.639809181015867
_cell_length_c       12.179418824708922
_cell_angle_alpha    72.8045867598416
_cell_angle_beta     85.37128124215728
_cell_angle_gamma    81.51182409657144

_space_group_name_H-M_alt    "P 1"
_space_group_IT_number       1

loop_
  _space_group_symop_operation_xyz
  'x, y, z'

loop_
  _atom_site_type_symbol
  _atom_site_label
  _atom_site_symmetry_multiplicity
  _atom_site_fract_x
  _atom_site_fract_y
  _atom_site_fract_z
  _atom_site_occupancy
  Cu  Cu1       1.0  0.4999988614776782  0.5000045747324933  0.49999625058080716  1.0000
  H   H1        1.0  0.2314697329906039  0.35478685349430356  0.7377436921886797  1.0000
  H   H2        1.0  0.768560170052787  0.6452013600823463  0.262258943520898  1.0000
  H   H3        1.0  0.11647986376387817  0.4378005949502041  0.9174206113151868  1.0000
  H   H4        1.0  0.8835479895832635  0.5621851915576671  0.08258176340690677  1.0000
  H   H5        1.0  0.5513609074059217  0.8873059390350095  0.7374114646242659  1.0000
  H   H6        1.0  0.4485959061850481  0.11269612443201282  0.262588484193877  1.0000
  H   H7        1.0  0.640810175284521  0.7854963214807713  0.564529921292447  1.0000
  H   H8        1.0  0.3591641184549488  0.21451051869133414  0.4354694051479555  1.0000
  H   H9        1.0  0.6594893321857072  0.8536273348232372  0.9341536191497325  1.0000
  H   H10       1.0  0.3405174535424463  0.14637808485454684  0.06585421188808742  1.0000
  H   H11       1.0  0.2971449716040269  0.8572426459573209  0.03952530360932365  1.0000
  H   H12       1.0  0.7028566177071556  0.14275182600550101  0.9604833088735631  1.0000
  H   H13       1.0  0.22667265298422726  0.9619738885288175  0.888989244881131  1.0000
  H   H14       1.0  0.7733303540013878  0.0380254542047922  0.11101913307817309  1.0000
  C   C1        1.0  0.2984859318551827  0.4714164307917273  0.7411082116682692  1.0000
  C   C2        1.0  0.7015260033705746  0.5285792098679282  0.25889168308038524  1.0000
  C   C3        1.0  0.23663744174579185  0.5170173102295907  0.8411550955966901  1.0000
  C   C4        1.0  0.7633811487940817  0.4829734040257635  0.1588522300168052  1.0000
  C   C5        1.0  0.326246202982304  0.6684967454044612  0.842156363719809  1.0000
  C   C6        1.0  0.6737463885028843  0.33150144296674716  0.157848414859842  1.0000
  C   C7        1.0  0.4736089308636764  0.7689698973217888  0.7414461857696252  1.0000
  C   C8        1.0  0.5263795705071317  0.23102343500062267  0.2585597131168953  1.0000
  C   C9        1.0  0.5230765213634853  0.7133377867119324  0.6446212239025114  1.0000
  C   C10       1.0  0.47690044945499466  0.2866690377825591  0.3553780378955338  1.0000
  C   C11       1.0  0.3682451718119069  0.8555415579717478  0.950845773484346  1.0000
  C   C12       1.0  0.6317611210792576  0.144455330160369  0.04915892963904871  1.0000
  N   N1        1.0  0.9005791816079808  0.31490684076923975  0.5680059689164736  1.0000
  N   N2        1.0  0.0994227335341407  0.6850961971418884  0.4319762104075195  1.0000
  N   N3        1.0  0.8437857728157637  0.21488155243624626  0.6578535624496168  1.0000
  N   N4        1.0  0.15622275641775468  0.7851373039606387  0.3421276009057266  1.0000
  N   N5        1.0  0.7973122282923983  0.11635387760713202  0.7459508806768653  1.0000
  N   N6        1.0  0.20268453271305722  0.883658940277755  0.2540384137953636  1.0000
  N   N7        1.0  0.439809055731665  0.5673597524695567  0.6436203100954216  1.0000
  N   N8        1.0  0.5601822438755449  0.4326433290394577  0.3563785506165189  1.0000
  O   O1        1.0  0.2598842287556734  0.7059625347909563  0.942693876771372  1.0000
  O   O2        1.0  0.740143485406641  0.2940342269645981  0.057311130354072815  1.0000
