data_image0
_chemical_formula_structural       CuH8C8S2N8
_chemical_formula_sum              "Cu1 H8 C8 S2 N8"
_cell_length_a       5.6969525266653385
_cell_length_b       6.479418898132535
_cell_length_c       8.570044593487802
_cell_angle_alpha    102.75461641553065
_cell_angle_beta     99.89651382092671
_cell_angle_gamma    93.33859698775488

_space_group_name_H-M_alt    "P 1"
_space_group_IT_number       1

loop_
  _space_group_symop_operation_xyz
  'x, y, z'

loop_
  _atom_site_type_symbol
  _atom_site_label
  _atom_site_symmetry_multiplicity
  _atom_site_fract_x
  _atom_site_fract_y
  _atom_site_fract_z
  _atom_site_occupancy
  Cu  Cu1       1.0  1.7829837020000005e-06  1.1851582800000002e-08  2.203805138e-07  1.0000
  H   H1        1.0  0.5738580972712982  0.9775350751516781  0.6763090292960925  1.0000
  H   H2        1.0  0.4261314081213143  0.022467375752683  0.3236983597400069  1.0000
  H   H3        1.0  0.2601176367853811  0.3191523813124348  0.8163311410161072  1.0000
  H   H4        1.0  0.7398733171699376  0.6808451647201536  0.1836663165265264  1.0000
  H   H5        1.0  0.06713076372096789  0.3044711364249935  0.3841073185635793  1.0000
  H   H6        1.0  0.932862346756707  0.6955295654224686  0.6158885664525114  1.0000
  H   H7        1.0  0.2606716897184428  0.46113026065809487  0.5630301868500993  1.0000
  H   H8        1.0  0.7393212134547226  0.5388688874603033  0.4369677620044854  1.0000
  C   C1        1.0  0.7324055786815649  0.07956951564904813  0.6774106340470708  1.0000
  C   C2        1.0  0.2675995775378297  0.9204281799539519  0.32259208869457723  1.0000
  C   C3        1.0  0.08269914794573202  0.24957253988018388  0.7508708547333851  1.0000
  C   C4        1.0  0.9173078323277225  0.7504251310692209  0.2491297536188455  1.0000
  C   C5        1.0  0.07346376992803269  0.40581593175388514  0.5058674091469157  1.0000
  C   C6        1.0  0.92652475921102  0.5941910042128313  0.4941230615285405  1.0000
  C   C7        1.0  0.5950647785556099  0.251303793315806  0.1181965798331461  1.0000
  C   C8        1.0  0.4049158735240255  0.7486985435728997  0.8818062051455015  1.0000
  S   S1        1.0  0.3641105210788069  0.37353515125079173  0.15536396050465123  1.0000
  S   S2        1.0  0.6358902425239991  0.6264720867080058  0.844642061453939  1.0000
  N   N1        1.0  0.9787565751224818  0.2793952994416244  0.6055615920599422  1.0000
  N   N2        1.0  0.021254053259099147  0.720602322200612  0.39443478751347527  1.0000
  N   N3        1.0  0.7556777484458479  0.1719456879469092  0.5564211998100177  1.0000
  N   N4        1.0  0.2443300649510505  0.8280616704285465  0.4435903732104762  1.0000
  N   N5        1.0  0.9303678261480853  0.12264618123572998  0.7989268850483596  1.0000
  N   N6        1.0  0.069638926285684  0.8773499542372037  0.20107695452733051  1.0000
  N   N7        1.0  0.7685294542909986  0.16488068978072326  0.0967423216418126  1.0000
  N   N8        1.0  0.23148189354230905  0.8350899398353562  0.9032510602433135  1.0000
