data_image0
_chemical_formula_structural       CdH38C30N4O6
_chemical_formula_sum              "Cd1 H38 C30 N4 O6"
_cell_length_a       8.809957475575107
_cell_length_b       9.384303299525243
_cell_length_c       10.846892200513995
_cell_angle_alpha    98.42349593776783
_cell_angle_beta     114.00851149720928
_cell_angle_gamma    89.9978614458236

_space_group_name_H-M_alt    "P 1"
_space_group_IT_number       1

loop_
  _space_group_symop_operation_xyz
  'x, y, z'

loop_
  _atom_site_type_symbol
  _atom_site_label
  _atom_site_symmetry_multiplicity
  _atom_site_fract_x
  _atom_site_fract_y
  _atom_site_fract_z
  _atom_site_occupancy
  Cd  Cd1       1.0  0.8668007905307037  0.00010194342505800004  8.325057596896651e-05  1.0000
  H   H1        1.0  0.0970253918713837  0.6005350100112494  0.664364686688977  1.0000
  H   H2        1.0  0.4328809958989839  0.39931004373006834  0.3357603954094588  1.0000
  H   H3        1.0  0.5320879618974104  0.49301744855632285  0.7646935099789263  1.0000
  H   H4        1.0  0.7669489469151997  0.5069301678172594  0.23500128506329085  1.0000
  H   H5        1.0  0.7705424973155247  0.6763066647919016  0.8954527629254162  1.0000
  H   H6        1.0  0.8739048966875772  0.32381124056206545  0.1037718540714821  1.0000
  H   H7        1.0  0.45604458645529894  0.0096441563003609  0.8645317762870521  1.0000
  H   H8        1.0  0.5911230819926133  0.9902126247700523  0.13507938889043206  1.0000
  H   H9        1.0  0.20314532012912417  0.8408063182645691  0.7458668974474068  1.0000
  H   H10       1.0  0.45738259457217373  0.1589208826570356  0.2540903243907594  1.0000
  H   H11       1.0  0.9351257598334611  0.4058050422742525  0.5408127577942425  1.0000
  H   H12       1.0  0.39482979599596757  0.5942787890483457  0.4592573049649503  1.0000
  H   H13       1.0  0.9182183640258685  0.1921437698951607  0.3965005115730734  1.0000
  H   H14       1.0  0.5231742307898983  0.8079041775029125  0.6035060997542702  1.0000
  H   H15       1.0  0.1215720960819624  0.1513979701599055  0.4971360599403313  1.0000
  H   H16       1.0  0.6250018132962579  0.848596833216007  0.5024291282061955  1.0000
  H   H17       1.0  0.8297993394744765  0.011842613515483397  0.4922212213684818  1.0000
  H   H18       1.0  0.338347138479527  0.9880495551474199  0.5081047084931002  1.0000
  H   H19       1.0  0.029904106424005792  0.0128972842090604  0.6226850860319644  1.0000
  H   H20       1.0  0.4073272207863355  0.9872330192346652  0.3774725534741919  1.0000
  H   H21       1.0  0.23128192502068148  0.1716765016973838  0.7855175285833554  1.0000
  H   H22       1.0  0.4453232492560559  0.8286030746954652  0.2145245632420228  1.0000
  H   H23       1.0  0.1709726293634262  0.23889810703715844  0.9198459951501123  1.0000
  H   H24       1.0  0.2503978605204935  0.7613385663628733  0.08026924376358123  1.0000
  H   H25       1.0  0.2840882419409071  0.35416424421107706  0.8669537057662852  1.0000
  H   H26       1.0  0.4166112090137021  0.6461449086293598  0.1329617839321387  1.0000
  H   H27       1.0  0.0746385572310544  0.5270849046231589  0.8493596971321014  1.0000
  H   H28       1.0  0.22520085514401703  0.47305603421772713  0.15063786957464495  1.0000
  H   H29       1.0  0.9299764088367866  0.4154736510329471  0.8731865452030052  1.0000
  H   H30       1.0  0.0564885740824508  0.5844817226235719  0.1268207005977331  1.0000
  H   H31       1.0  0.8659774434441021  0.4958202339850289  0.7226348877682444  1.0000
  H   H32       1.0  0.1435091611420845  0.5040369948554754  0.2773111593786482  1.0000
  H   H33       1.0  0.6688943819854032  0.2971373685962817  0.6695688000051309  1.0000
  H   H34       1.0  0.9997816721941606  0.7027149276595139  0.3309167229727879  1.0000
  H   H35       1.0  0.6190634665287575  0.13708410551826938  0.5486740789415381  1.0000
  H   H36       1.0  0.07098183256167802  0.8627929431236152  0.45176213400279164  1.0000
  H   H37       1.0  0.7028929078614399  0.2929391365424081  0.5180563662155466  1.0000
  H   H38       1.0  0.1857080603071779  0.7070580765669732  0.4823518429118395  1.0000
  C   C1        1.0  0.5104844009216765  0.6060098295040605  0.7859860810801821  1.0000
  C   C2        1.0  0.7240100628870464  0.39392961354371897  0.21368070620348334  1.0000
  C   C3        1.0  0.6425324351700394  0.7081621617292272  0.856795591604737  1.0000
  C   C4        1.0  0.7848729434625241  0.2918590114577312  0.14263346275567576  1.0000
  C   C5        1.0  0.46734085563802097  0.8939700971961813  0.8418370381029664  1.0000
  C   C6        1.0  0.6251628423043131  0.105893894389105  0.1578350075566633  1.0000
  C   C7        1.0  0.3269183196949684  0.8000144353011224  0.7739496958896556  1.0000
  C   C8        1.0  0.5528572255100955  0.19978878787046742  0.22588849691408808  1.0000
  C   C9        1.0  0.3476199228952055  0.6523382231191306  0.7425839402294587  1.0000
  C   C10       1.0  0.6048770431121467  0.3474983908566074  0.2572788724019901  1.0000
  C   C11       1.0  0.19895573066188627  0.41301485005047306  0.6212124260828562  1.0000
  C   C12       1.0  0.5779684810068914  0.5868072602683582  0.37871794963870553  1.0000
  C   C13       1.0  0.034561633460633304  0.33553554122897106  0.5911159448381939  1.0000
  C   C14       1.0  0.44381300620910474  0.6644255569874674  0.40882988679660326  1.0000
  C   C15       1.0  0.0049296164519745025  0.1862523200658686  0.5018114375609245  1.0000
  C   C16       1.0  0.5038690199255669  0.8137254129245477  0.49808595878804607  1.0000
  C   C17       1.0  0.9352816773978888  0.08359215757170088  0.5676572862695439  1.0000
  C   C18       1.0  0.36817492682632047  0.9163960335202644  0.4325600891989085  1.0000
  C   C19       1.0  0.884912818449216  0.1805765845198266  0.6701495845863692  1.0000
  C   C20       1.0  0.21501004343807753  0.8194650941290574  0.3301040003157142  1.0000
  C   C21       1.0  0.020755876991131596  0.3113909597434557  0.7271410245522534  1.0000
  C   C22       1.0  0.2935538286351402  0.6886521553995593  0.2729088190996692  1.0000
  C   C23       1.0  0.18637173365655002  0.26594014764256707  0.8302141140914331  1.0000
  C   C24       1.0  0.35569631503891236  0.7342837526511802  0.16983262063424587  1.0000
  C   C25       1.0  0.9696164023424956  0.445667189203526  0.7962519007592521  1.0000
  C   C26       1.0  0.17326383446709306  0.5543546005173212  0.20373657263017014  1.0000
  C   C27       1.0  0.708892178082458  0.2308440625054189  0.5978511248717313  1.0000
  C   C28       1.0  0.11159731663740761  0.7690907404736508  0.4025505995278991  1.0000
  C   C29       1.0  0.8891671120843296  0.10658079985638841  0.7880170543000278  1.0000
  C   C30       1.0  0.10108695069551743  0.8936099422248917  0.21239345629028616  1.0000
  N   N1        1.0  0.6232586851801828  0.8499881267926881  0.8830921566221125  1.0000
  N   N2        1.0  0.7394511823427194  0.15000315896224953  0.1163402351042251  1.0000
  N   N3        1.0  0.20699519462193897  0.558806153879864  0.6736696912113233  1.0000
  N   N4        1.0  0.5334869936542431  0.44099992047122777  0.32637317007557715  1.0000
  O   O1        1.0  0.3178110281427138  0.35498149057368517  0.6076830925820291  1.0000
  O   O2        1.0  0.7103905023016708  0.6448024188041046  0.3921497891126081  1.0000
  O   O3        1.0  0.8412494821848285  0.18013756291687597  0.8739694264296961  1.0000
  O   O4        1.0  0.9669057969708704  0.820203644066872  0.12654615042684722  1.0000
  O   O5        1.0  0.9385680254775721  0.9802449306264621  0.8000480165480757  1.0000
  O   O6        1.0  0.1385377215220558  0.019903330454198506  0.20033034512179174  1.0000
