data_image0
_chemical_formula_structural       Zn2H40C52N8O8
_chemical_formula_sum              "Zn2 H40 C52 N8 O8"
_cell_length_a       9.622108105403917
_cell_length_b       10.454828541538562
_cell_length_c       13.557307857284062
_cell_angle_alpha    70.78021909678831
_cell_angle_beta     81.2677876612699
_cell_angle_gamma    71.330091675802

_space_group_name_H-M_alt    "P 1"
_space_group_IT_number       1

loop_
  _space_group_symop_operation_xyz
  'x, y, z'

loop_
  _atom_site_type_symbol
  _atom_site_label
  _atom_site_symmetry_multiplicity
  _atom_site_fract_x
  _atom_site_fract_y
  _atom_site_fract_z
  _atom_site_occupancy
  Zn  Zn1       1.0  0.49193080037208126  0.16259999539990838  0.7171824301175391  1.0000
  Zn  Zn2       1.0  0.5080683368827791  0.8374014568446599  0.2828200437615179  1.0000
  H   H1        1.0  0.4790954276251325  0.6948251183297884  0.07243941314821714  1.0000
  H   H2        1.0  0.5208998639235245  0.30517848890684723  0.9275585269690084  1.0000
  H   H3        1.0  0.8120340057907355  0.5924670038786816  0.33685080704460546  1.0000
  H   H4        1.0  0.18796566079082308  0.40753234596102333  0.6631462406270856  1.0000
  H   H5        1.0  0.1623621102195826  0.8289119615921906  0.7405958188470265  1.0000
  H   H6        1.0  0.837640762852395  0.17108735317752627  0.2594038204670496  1.0000
  H   H7        1.0  0.3131834902064481  0.8173605452568112  0.6477924896576966  1.0000
  H   H8        1.0  0.6868234932350887  0.1826355633184207  0.3522089703145283  1.0000
  H   H9        1.0  0.2045336241259931  0.6989069571827927  0.6747446201581864  1.0000
  H   H10       1.0  0.795469535587152  0.30109130288105496  0.3252537797175704  1.0000
  H   H11       1.0  0.6714621375723197  0.43563420397337194  0.45657402378621015  1.0000
  H   H12       1.0  0.3285395120126322  0.564369341881907  0.5434254154523898  1.0000
  H   H13       1.0  0.3060351214928545  0.1673269969211972  0.37221775778279204  1.0000
  H   H14       1.0  0.6939789325775292  0.8326701043827925  0.6277826380229357  1.0000
  H   H15       1.0  0.8094929457839439  0.9316211793804927  0.7583713267961015  1.0000
  H   H16       1.0  0.19050625385877845  0.06838344864799951  0.2416259048429694  1.0000
  H   H17       1.0  0.24781522793283262  0.4799956833209721  0.8627125900462786  1.0000
  H   H18       1.0  0.7521768686917267  0.5199973909417678  0.1372913510487521  1.0000
  H   H19       1.0  0.014136022927871686  0.16791726392812478  0.9650845117973644  1.0000
  H   H20       1.0  0.9858571388638495  0.8320757992285268  0.03492004756756721  1.0000
  H   H21       1.0  0.8340683182635968  0.30878362204595794  0.07197997849856107  1.0000
  H   H22       1.0  0.16592588671748124  0.6912094335080496  0.928023725470915  1.0000
  H   H23       1.0  0.8256239887932109  0.6456838416693599  0.8567472478413478  1.0000
  H   H24       1.0  0.17437610373973195  0.35431761698634295  0.1432484759807977  1.0000
  H   H25       1.0  0.027868868715010774  0.23491808789265894  0.39764223030269363  1.0000
  H   H26       1.0  0.9721395618894484  0.765080125399365  0.602355576759166  1.0000
  H   H27       1.0  0.3846900998684788  0.9026985376225696  0.8714390801377904  1.0000
  H   H28       1.0  0.6153097609678396  0.09730396698039102  0.12856156728608426  1.0000
  H   H29       1.0  0.7438286766784257  0.47178348584206026  0.7822426305723269  1.0000
  H   H30       1.0  0.2561674233947783  0.5282137797413002  0.21775757030260218  1.0000
  H   H31       1.0  0.5933612070212816  0.6210231288214487  0.7335849748345282  1.0000
  H   H32       1.0  0.40663798965325526  0.378974119209147  0.2664104493559805  1.0000
  H   H33       1.0  0.5815577518746193  0.4468452638748417  0.7563056616008907  1.0000
  H   H34       1.0  0.4184380615574168  0.5531530564143949  0.24369577871235754  1.0000
  H   H35       1.0  0.4915911128634463  0.24399034888200086  0.46963132487824305  1.0000
  H   H36       1.0  0.5084204398657519  0.7560046570595561  0.5303728424006308  1.0000
  H   H37       1.0  0.9795921647686326  0.3008025559971585  0.6946623656538833  1.0000
  H   H38       1.0  0.020412434086708134  0.6992051905331067  0.30533345192739597  1.0000
  H   H39       1.0  0.21193985122839354  0.05624363136197991  0.7004938368118445  1.0000
  H   H40       1.0  0.7880573903569328  0.9437641771453901  0.2995042843742509  1.0000
  C   C1        1.0  0.4848194945061479  0.6098015465988524  0.04073100891277901  1.0000
  C   C2        1.0  0.515175168815631  0.3902041788081405  0.9592657259176818  1.0000
  C   C3        1.0  0.849273595905423  0.5291845448816092  0.4148476762069534  1.0000
  C   C4        1.0  0.15072406866310215  0.4708179924438626  0.5851473136810341  1.0000
  C   C5        1.0  0.20097676067140202  0.8082718496099233  0.6650457777813726  1.0000
  C   C6        1.0  0.7990279121381147  0.1917285046603894  0.33495339018010384  1.0000
  C   C7        1.0  0.09950490871462844  0.9087497816239749  0.5804079386247593  1.0000
  C   C8        1.0  0.9005047263672166  0.0912515840838353  0.4195904022957819  1.0000
  C   C9        1.0  0.7717743205653919  0.4413158855092759  0.480597918175839  1.0000
  C   C10       1.0  0.22822335499203916  0.5586866500644733  0.5193978085448308  1.0000
  C   C11       1.0  0.2510182492960594  0.2281762993593688  0.8488374408232744  1.0000
  C   C12       1.0  0.7489704825182172  0.7718210299528181  0.15116432682378897  1.0000
  C   C13       1.0  0.3159652572976482  0.15631706556882824  0.45333727826602654  1.0000
  C   C14       1.0  0.6840407563312993  0.8436822246412491  0.5466605316943571  1.0000
  C   C15       1.0  0.14199692411190773  0.3164078313552991  0.9095031324259892  1.0000
  C   C16       1.0  0.8579934057418296  0.6835841981516851  0.09050349051968712  1.0000
  C   C17       1.0  0.7246809230310802  0.8805027891526508  0.7942467605340938  1.0000
  C   C18       1.0  0.27531502971118016  0.1194986946584535  0.2057545953679352  1.0000
  C   C19       1.0  0.15711206312161605  0.4438729079700536  0.9090990483909779  1.0000
  C   C20       1.0  0.8428792879436598  0.5561191174377315  0.09090524549387172  1.0000
  C   C21       1.0  0.8202549899152132  0.3570490993870195  0.5819392241750307  1.0000
  C   C22       1.0  0.1797470012554497  0.6429533830037644  0.4180626597886529  1.0000
  C   C23       1.0  0.023882377215834066  0.26755707549206426  0.9681655378849783  1.0000
  C   C24       1.0  0.9761083676003821  0.7324370645826406  0.03183902437847048  1.0000
  C   C25       1.0  0.9258030208780565  0.34507919052219904  0.027132895034156876  1.0000
  C   C26       1.0  0.07419015190257736  0.65491387088273  0.9728724011634569  1.0000
  C   C27       1.0  0.7336118864367833  0.7406199402963197  0.8425871408600969  1.0000
  C   C28       1.0  0.266387919454992  0.2593825730652597  0.1574098224003748  1.0000
  C   C29       1.0  0.01620426821921228  0.1302357183850731  0.4406237178029642  1.0000
  C   C30       1.0  0.9838059731116855  0.8697635326558174  0.5593743547389778  1.0000
  C   C31       1.0  0.737472174974222  0.25892270387626576  0.6528183825116828  1.0000
  C   C32       1.0  0.26253723939991136  0.7410797060270794  0.3471856188432696  1.0000
  C   C33       1.0  0.5021707197925024  0.8717171886415688  0.8528742488562315  1.0000
  C   C34       1.0  0.4978312494003418  0.12828529725266688  0.1471261614420882  1.0000
  C   C35       1.0  0.6232045361619284  0.5122545028232608  0.7862750346317711  1.0000
  C   C36       1.0  0.3767903184464316  0.4877469973490989  0.21372349250231792  1.0000
  C   C37       1.0  0.5461886987621724  0.6147548909020983  0.9398696260597107  1.0000
  C   C38       1.0  0.4538073383457615  0.3852497651894923  0.0601279612676962  1.0000
  C   C39       1.0  0.9762926880711189  0.5412894364477412  0.4482119347131217  1.0000
  C   C40       1.0  0.02371187781749024  0.45871831533768426  0.5517816723701117  1.0000
  C   C41       1.0  0.11344844006165293  0.0420332704048079  0.5184783557883605  1.0000
  C   C42       1.0  0.886559373304834  0.9579670593058581  0.4815189828194235  1.0000
  C   C43       1.0  0.4070330411449276  0.1915666414663306  0.5018475813711945  1.0000
  C   C44       1.0  0.5929775637495069  0.8084315426066269  0.49815440956119517  1.0000
  C   C45       1.0  0.9439338576993418  0.36632748888505523  0.6164238753715523  1.0000
  C   C46       1.0  0.05606778089670427  0.6336760587219459  0.38357482703436563  1.0000
  C   C47       1.0  0.2672193649820612  0.09153294999106981  0.6251883209708851  1.0000
  C   C48       1.0  0.732780943783467  0.9084716599244447  0.3748124762688149  1.0000
  C   C49       1.0  0.05886357809311701  0.5255691358885528  0.9693788834023281  1.0000
  C   C50       1.0  0.9411289334939139  0.4744260489419078  0.0306229970104823  1.0000
  C   C51       1.0  0.5627039542036056  0.5058452948656155  0.8960464448876166  1.0000
  C   C52       1.0  0.4372910177371521  0.49415937233205653  0.10395052416988901  1.0000
  N   N1        1.0  0.579834856276477  0.9603785514894982  0.8003504156015921  1.0000
  N   N2        1.0  0.42016575011912477  0.03962500196841749  0.1996498790324637  1.0000
  N   N3        1.0  0.5919944786149356  0.7367093142303746  0.8799352372807974  1.0000
  N   N4        1.0  0.40800533826575247  0.26329319737947543  0.1200624628123563  1.0000
  N   N5        1.0  0.22832337502482142  0.09183686582393591  0.5326488191799826  1.0000
  N   N6        1.0  0.7716809891657163  0.9081645466556908  0.46735011455445624  1.0000
  N   N7        1.0  0.3755836184847681  0.1503207521870351  0.6084943438785047  1.0000
  N   N8        1.0  0.6244197135053182  0.8496806661435202  0.39150618208407917  1.0000
  O   O1        1.0  0.7858314467847691  0.17564931834414207  0.7383081941009451  1.0000
  O   O2        1.0  0.21418302224809335  0.8243498935275682  0.26169014102256233  1.0000
  O   O3        1.0  0.36235716975480864  0.27516796379751446  0.8047694063750939  1.0000
  O   O4        1.0  0.6376333508081018  0.7248304067669906  0.195231153086695  1.0000
  O   O5        1.0  0.2306409084617157  0.1185492877462053  0.8427883766671584  1.0000
  O   O6        1.0  0.769349388425297  0.881442747015946  0.15721603578047189  1.0000
  O   O7        1.0  0.6131787669979117  0.27095416272989337  0.6178067483490537  1.0000
  O   O8        1.0  0.3868220042313195  0.7290493644521874  0.3822045987752175  1.0000
