data_image0
_chemical_formula_structural       Zn8Te8H48C16N8
_chemical_formula_sum              "Zn8 Te8 H48 C16 N8"
_cell_length_a       6.898517862888083
_cell_length_b       6.9835799231117095
_cell_length_c       20.644674985327608
_cell_angle_alpha    90.00049769060246
_cell_angle_beta     90.00009116670289
_cell_angle_gamma    89.99899469973796

_space_group_name_H-M_alt    "P 1"
_space_group_IT_number       1

loop_
  _space_group_symop_operation_xyz
  'x, y, z'

loop_
  _atom_site_type_symbol
  _atom_site_label
  _atom_site_symmetry_multiplicity
  _atom_site_fract_x
  _atom_site_fract_y
  _atom_site_fract_z
  _atom_site_occupancy
  Zn  Zn1       1.0  0.7397406179538919  0.09423578319550778  0.7071298008512629  1.0000
  Zn  Zn2       1.0  0.2602452469632084  0.405764396203935  0.20713103539522143  1.0000
  Zn  Zn3       1.0  0.23975068555944293  0.905746090556974  0.7928632982635052  1.0000
  Zn  Zn4       1.0  0.760256174912996  0.5942613844181324  0.29286894116798123  1.0000
  Zn  Zn5       1.0  0.26026009351166834  0.9057709078557109  0.29286746353552934  1.0000
  Zn  Zn6       1.0  0.7397380697557808  0.5942337039873563  0.7928730105120824  1.0000
  Zn  Zn7       1.0  0.7602558241852151  0.0942505766553623  0.20713057545553684  1.0000
  Zn  Zn8       1.0  0.23972714166061587  0.4057438752043297  0.7071321983797321  1.0000
  Te  Te1       1.0  0.11566537354126892  0.0520925952753331  0.6838976833722372  1.0000
  Te  Te2       1.0  0.8843260490368011  0.44790835401715867  0.18390129277884887  1.0000
  Te  Te3       1.0  0.6156682773384006  0.9478922390667038  0.8160987137898843  1.0000
  Te  Te4       1.0  0.38433012636039626  0.5521130342298761  0.316096838914696  1.0000
  Te  Te5       1.0  0.884335337896978  0.9479126637720299  0.31609861224996655  1.0000
  Te  Te6       1.0  0.1156630658916953  0.5520954736057816  0.8160998467566218  1.0000
  Te  Te7       1.0  0.38433533333235204  0.052108724228560284  0.1838985506195812  1.0000
  Te  Te8       1.0  0.6156531902132156  0.4478922253925859  0.6839043006330173  1.0000
  H   H1        1.0  0.4667379379932656  0.9912028710306585  0.6290139431972437  1.0000
  H   H2        1.0  0.5332772953740204  0.5087840320074761  0.1290236240872034  1.0000
  H   H3        1.0  0.9667523348710603  0.008777882442103598  0.8709765842863394  1.0000
  H   H4        1.0  0.033233855074257704  0.4912242543209828  0.37098715875239924  1.0000
  H   H5        1.0  0.5332932146986097  0.008792363883841902  0.37097896167021105  1.0000
  H   H6        1.0  0.4667248660756229  0.49119545286453803  0.8709804218605232  1.0000
  H   H7        1.0  0.033313608130718805  0.9912302400553444  0.12902455495320453  1.0000
  H   H8        1.0  0.9667103228275024  0.5087853019637549  0.6290193091593181  1.0000
  H   H9        1.0  0.6123777530550641  0.8046526385389187  0.6359484922671543  1.0000
  H   H10       1.0  0.3876263878814967  0.6953539318257428  0.1359531827736262  1.0000
  H   H11       1.0  0.11237477434853099  0.1953079318646118  0.864052772133441  1.0000
  H   H12       1.0  0.8876225081412058  0.30470174479984274  0.3640541287887943  1.0000
  H   H13       1.0  0.38762730713812493  0.19537266770191755  0.36405070954297974  1.0000
  H   H14       1.0  0.6123627271227788  0.3046584876365728  0.8640513474173448  1.0000
  H   H15       1.0  0.8876375340628754  0.8046500733798325  0.13594400810571736  1.0000
  H   H16       1.0  0.1123593587769776  0.6953350175280092  0.6359499169015025  1.0000
  H   H17       1.0  0.7269541406473293  0.1556307013644727  0.566086342749422  1.0000
  H   H18       1.0  0.2730635003177468  0.34435666304076307  0.06609303630367692  1.0000
  H   H19       1.0  0.22690991894886284  0.8443113836184394  0.9339010344352235  1.0000
  H   H20       1.0  0.7730521194522169  0.6556688125304149  0.43391363123888754  1.0000
  H   H21       1.0  0.2730828105483312  0.8443616699142353  0.4339104372052916  1.0000
  H   H22       1.0  0.7269067702404328  0.655635709768582  0.9339134316146487  1.0000
  H   H23       1.0  0.7731763178425554  0.15569387385726685  0.06608799508888553  1.0000
  H   H24       1.0  0.2269167011879674  0.34435792633039597  0.5660889613958278  1.0000
  H   H25       1.0  0.848593368593555  0.9341411765829051  0.5665721239102696  1.0000
  H   H26       1.0  0.1514289180815069  0.5658333850480731  0.06657561091506643  1.0000
  H   H27       1.0  0.3486070186371962  0.06574788820571338  0.9334177851734683  1.0000
  H   H28       1.0  0.6513895129019361  0.4342121754850013  0.4334236809153469  1.0000
  H   H29       1.0  0.1514551797241808  0.0658311481942917  0.4334333750740529  1.0000
  H   H30       1.0  0.8485543987035697  0.4341718750154798  0.9334313412695608  1.0000
  H   H31       1.0  0.651450226217733  0.9342874400795509  0.06657027550740931  1.0000
  H   H32       1.0  0.34852422298054353  0.5658088352823397  0.5665653491272808  1.0000
  H   H33       1.0  0.6902974955863216  0.9602636634103306  0.46333235079310964  1.0000
  H   H34       1.0  0.3097246674301388  0.5397410456729687  0.9633415603796041  1.0000
  H   H35       1.0  0.19032750380040397  0.0396950527015107  0.0366613385859793  1.0000
  H   H36       1.0  0.8096561054929694  0.4602878465120455  0.5366723575806917  1.0000
  H   H37       1.0  0.3097698967739859  0.039731571071840194  0.5366605539463977  1.0000
  H   H38       1.0  0.6902673468744922  0.4602771018069589  0.03666732924591541  1.0000
  H   H39       1.0  0.8097746791561278  0.9602772712888239  0.9633422226633431  1.0000
  H   H40       1.0  0.19019819828395162  0.5397174155316762  0.46334040769633594  1.0000
  H   H41       1.0  0.5567887636075284  0.788204985146457  0.5073858483713494  1.0000
  H   H42       1.0  0.4432292170324245  0.7117663220044862  0.007397707699780703  1.0000
  H   H43       1.0  0.0568311960418697  0.21177552519259277  0.992603698613209  1.0000
  H   H44       1.0  0.9431623938145819  0.28820927271817703  0.49261114947378115  1.0000
  H   H45       1.0  0.44325978451372094  0.21174872391139127  0.49261141615095755  1.0000
  H   H46       1.0  0.5567627976466341  0.28821602758443293  0.99261602599551  1.0000
  H   H47       1.0  0.94323619637926  0.7882469164072035  0.007395018606899803  1.0000
  H   H48       1.0  0.05673104882447431  0.7117573263350182  0.507396287636688  1.0000
  C   C1        1.0  0.7037850687703867  0.9997467512966407  0.5660258703648468  1.0000
  C   C2        1.0  0.2962154338434928  0.5002363182935384  0.06601649470064792  1.0000
  C   C3        1.0  0.20378498856322838  0.00017870212648319998  0.9339529514031287  1.0000
  C   C4        1.0  0.7961999851192091  0.4997943302378119  0.4339580398455  1.0000
  C   C5        1.0  0.2962344884522849  0.0002341668420485  0.4339985197424527  1.0000
  C   C6        1.0  0.7037504872645926  0.49976607675679213  0.9339725352646868  1.0000
  C   C7        1.0  0.7962592088709358  0.9998365766797759  0.06600071800388461  1.0000
  C   C8        1.0  0.2037673850848449  0.5001980401433174  0.5660159741935972  1.0000
  C   C9        1.0  0.5925042020739254  0.9420595855655305  0.5052608039185742  1.0000
  C   C10       1.0  0.4074730353578461  0.557954357610349  0.005274683234773602  1.0000
  C   C11       1.0  0.0925267492376989  0.0578857066187695  0.9947294599212672  1.0000
  C   C12       1.0  0.907448150383047  0.4420850941050958  0.4947271601054624  1.0000
  C   C13       1.0  0.407495059608422  0.0579571287213199  0.49473258532447073  1.0000
  C   C14       1.0  0.5925146301178472  0.4420666536718657  0.9947327532304159  1.0000
  C   C15       1.0  0.9074986054613775  0.9420551151221231  0.005264898438504402  1.0000
  C   C16       1.0  0.09251632150925101  0.5579330531520199  0.5052744638211452  1.0000
  N   N1        1.0  0.6102733064074143  0.950502758411133  0.6280109904065372  1.0000
  N   N2        1.0  0.38972155968627936  0.5494839924695327  0.12801831089436894  1.0000
  N   N3        1.0  0.110266721958034  0.049476477597338  0.8719936794641114  1.0000
  N   N4        1.0  0.8897369369940336  0.4505243813021309  0.37200303328352663  1.0000
  N   N5        1.0  0.3897216067737261  0.0494767258489475  0.3719838522249931  1.0000
  N   N6        1.0  0.6102487111855551  0.45050265320656985  0.8719959072394163  1.0000
  N   N7        1.0  0.8897368891885264  0.9505531256280904  0.12802102269156992  1.0000
  N   N8        1.0  0.11025507760044921  0.5494636958978845  0.6280092472196304  1.0000
