data_image0
_chemical_formula_structural       Ni6H84C144N12O26
_chemical_formula_sum              "Ni6 H84 C144 N12 O26"
_cell_length_a       18.686093187547876
_cell_length_b       18.572813337348364
_cell_length_c       18.564734201032703
_cell_angle_alpha    98.93948187473094
_cell_angle_beta     98.67275014494527
_cell_angle_gamma    98.69006978353485

_space_group_name_H-M_alt    "P 1"
_space_group_IT_number       1

loop_
  _space_group_symop_operation_xyz
  'x, y, z'

loop_
  _atom_site_type_symbol
  _atom_site_label
  _atom_site_symmetry_multiplicity
  _atom_site_fract_x
  _atom_site_fract_y
  _atom_site_fract_z
  _atom_site_occupancy
  Ni  Ni1       1.0  0.25010478533125274  0.18465008707018873  0.3156696661813854  1.0000
  Ni  Ni2       1.0  0.31578075256111054  0.2501144454489719  0.18484116743105972  1.0000
  Ni  Ni3       1.0  0.18455685141938014  0.3155598296037354  0.2500427488165329  1.0000
  Ni  Ni4       1.0  0.7499033202522014  0.8153507514809848  0.6843342835595791  1.0000
  Ni  Ni5       1.0  0.6842209470306527  0.7498754618711062  0.8151518433601835  1.0000
  Ni  Ni6       1.0  0.8154325610901553  0.6844462814713596  0.7499541400378006  1.0000
  H   H1        1.0  0.4481133169915593  0.7106686019297044  0.6955676614926389  1.0000
  H   H2        1.0  0.32933515527557944  0.755306186966912  0.6628387576661225  1.0000
  H   H3        1.0  0.4510621433347168  0.9599713000336365  0.629699086842578  1.0000
  H   H4        1.0  0.5670726378975672  0.9130088040600202  0.6562770918311857  1.0000
  H   H5        1.0  0.3635424575696931  0.9489678413206375  0.5421143225671017  1.0000
  H   H6        1.0  0.18190451407199498  0.0819235512088383  0.5405529703771208  1.0000
  H   H7        1.0  0.18606615107744776  0.16816206191270308  0.45029855648420636  1.0000
  H   H8        1.0  0.6957092851067017  0.4475211533830432  0.710550444707259  1.0000
  H   H9        1.0  0.6623692544480662  0.3283071002983249  0.7555101094706346  1.0000
  H   H10       1.0  0.6296278735376574  0.45241025370621196  0.9601939352395803  1.0000
  H   H11       1.0  0.6568101061796411  0.5688097062998523  0.9129132257787445  1.0000
  H   H12       1.0  0.5417047174356213  0.36444669488010106  0.9490054332711324  1.0000
  H   H13       1.0  0.5402990931258884  0.1821833638883703  0.08203042153224518  1.0000
  H   H14       1.0  0.4502728422149289  0.1862845914551201  0.16825572492781046  1.0000
  H   H15       1.0  0.7110716973601754  0.6955192199491835  0.44806938542850366  1.0000
  H   H16       1.0  0.7561033158143217  0.6623086846566721  0.32860887452145693  1.0000
  H   H17       1.0  0.9595077588170895  0.6300607887706775  0.45202345637183317  1.0000
  H   H18       1.0  0.9121787963963328  0.6569429770571913  0.5686333841219235  1.0000
  H   H19       1.0  0.9489120931620293  0.541856216505991  0.3639760309625828  1.0000
  H   H20       1.0  0.0817366255143099  0.5407237787031393  0.18199564149064432  1.0000
  H   H21       1.0  0.1681087152793026  0.450737088928733  0.18652701690290024  1.0000
  H   H22       1.0  0.7885409897735939  0.051914016494180294  0.8044466232485091  1.0000
  H   H23       1.0  0.7437989313736537  0.17155915885683024  0.8378302610099269  1.0000
  H   H24       1.0  0.5402286751092619  0.04850220900931391  0.8700918189824093  1.0000
  H   H25       1.0  0.5873575752706869  0.9317236763590557  0.8431301326873495  1.0000
  H   H26       1.0  0.5512025809755556  0.13644918242816576  0.9582938159465257  1.0000
  H   H27       1.0  0.4183165197726453  0.3181685852161493  0.9596786411837144  1.0000
  H   H28       1.0  0.33218350661087476  0.3135721296341459  0.04985894757975022  1.0000
  H   H29       1.0  0.051994623388047494  0.8043826993278387  0.7890632667972994  1.0000
  H   H30       1.0  0.1708890268443142  0.8372595570453145  0.7446598417744568  1.0000
  H   H31       1.0  0.0493513538231696  0.8704139280639681  0.5398318054367124  1.0000
  H   H32       1.0  0.9332437791840462  0.8437679445766124  0.5866423453918727  1.0000
  H   H33       1.0  0.1367804467007616  0.9579813383852954  0.5511262362378346  1.0000
  H   H34       1.0  0.31822627275010257  0.959728879978165  0.4181544164244499  1.0000
  H   H35       1.0  0.3141095718632982  0.050186787977722205  0.3321513110196364  1.0000
  H   H36       1.0  0.8042318148312475  0.7891475456866885  0.052446191589510166  1.0000
  H   H37       1.0  0.8377303032993167  0.7444549621299146  0.17186890380296654  1.0000
  H   H38       1.0  0.8704490243952138  0.5396284358435466  0.0480927968452391  1.0000
  H   H39       1.0  0.8431889088638583  0.5866862285456448  0.9314910532812702  1.0000
  H   H40       1.0  0.9583483263441509  0.551148193041101  0.13593460635873814  1.0000
  H   H41       1.0  0.9600500369783235  0.41808600146230657  0.3179551662246141  1.0000
  H   H42       1.0  0.05026954964304759  0.3320725936567258  0.3137847915639824  1.0000
  H   H43       1.0  0.5519152980259109  0.28931590907876636  0.30443643884190413  1.0000
  H   H44       1.0  0.6706829819210115  0.24466266308584042  0.33716911512059505  1.0000
  H   H45       1.0  0.5489299381259796  0.040014455516178764  0.3703099713423369  1.0000
  H   H46       1.0  0.4329311599166202  0.08698526464330308  0.3437217994508188  1.0000
  H   H47       1.0  0.6364607014818799  0.05099703721235466  0.45789904645181406  1.0000
  H   H48       1.0  0.818109154083423  0.9180515386975188  0.45945627178898  1.0000
  H   H49       1.0  0.8139483443639647  0.8318267010206244  0.5497243894475331  1.0000
  H   H50       1.0  0.3043002686661255  0.5524675786635669  0.2894350471645026  1.0000
  H   H51       1.0  0.33764647713778834  0.6716768422639918  0.24447022383962755  1.0000
  H   H52       1.0  0.3703960860724252  0.5475659050028981  0.0397923974388945  1.0000
  H   H53       1.0  0.34320047893164934  0.4311715113672039  0.08707927855765969  1.0000
  H   H54       1.0  0.4583066639739997  0.6355397507863857  0.05096974690166429  1.0000
  H   H55       1.0  0.45971825666091354  0.8177915542347944  0.917955155841419  1.0000
  H   H56       1.0  0.5497471854898635  0.813696257069438  0.8317334263885029  1.0000
  H   H57       1.0  0.2888831892440962  0.30448182224203896  0.5519473750124817  1.0000
  H   H58       1.0  0.2438456114477816  0.3377060822348525  0.6713962361597154  1.0000
  H   H59       1.0  0.04046939417340669  0.37000589355533725  0.5479620014135165  1.0000
  H   H60       1.0  0.08781207820473469  0.34310654150713293  0.4313628198288555  1.0000
  H   H61       1.0  0.05103414954150761  0.4581695863171405  0.6360207590028253  1.0000
  H   H62       1.0  0.9182324265984009  0.4593252664685537  0.8180189756358303  1.0000
  H   H63       1.0  0.8318687011980757  0.5493152314687038  0.813481437754298  1.0000
  H   H64       1.0  0.2114766562093635  0.9480695598755347  0.19555282120270323  1.0000
  H   H65       1.0  0.2562149789950682  0.8284216005139838  0.16216163842850054  1.0000
  H   H66       1.0  0.4597842337094987  0.9514762341709331  0.12989414615540074  1.0000
  H   H67       1.0  0.41266449435753577  0.0682541711334963  0.15687071283528548  1.0000
  H   H68       1.0  0.44882729684331923  0.8635384022818043  0.04169914690467644  1.0000
  H   H69       1.0  0.5817189604943778  0.6818129919463942  0.04031102244521627  1.0000
  H   H70       1.0  0.6678393517751573  0.6864131296886312  0.9501243937735638  1.0000
  H   H71       1.0  0.9480226665945894  0.19560168577577752  0.21095887940721522  1.0000
  H   H72       1.0  0.8291235118611978  0.16271475626293608  0.2553512411668136  1.0000
  H   H73       1.0  0.950651157888956  0.12955733916665937  0.4601857424228157  1.0000
  H   H74       1.0  0.0667602565064911  0.1562095517149586  0.4133818678741505  1.0000
  H   H75       1.0  0.8632285672464165  0.04200367481936954  0.44889518803741885  1.0000
  H   H76       1.0  0.6817916229122503  0.04026057987371702  0.5818627399786181  1.0000
  H   H77       1.0  0.6859034429066213  0.9498012554448464  0.6678604974167114  1.0000
  H   H78       1.0  0.19576870731576426  0.2108951988308263  0.9475354012727806  1.0000
  H   H79       1.0  0.16227118986192582  0.25559773865440855  0.8281182614782595  1.0000
  H   H80       1.0  0.129512542970609  0.4603996352100311  0.9519122805085799  1.0000
  H   H81       1.0  0.156781722395273  0.4133338437348897  0.0685018085998976  1.0000
  H   H82       1.0  0.04162965400049501  0.44890807354219214  0.8640718980212512  1.0000
  H   H83       1.0  0.039910727743922784  0.5819399133149546  0.682031106189811  1.0000
  H   H84       1.0  0.9496912802604741  0.6679500886844566  0.6861982650610159  1.0000
  C   C1        1.0  0.5879698762042338  0.7833890987502627  0.6935392840656504  1.0000
  C   C2        1.0  0.5151177608587858  0.8080361854822158  0.6755748334964764  1.0000
  C   C3        1.0  0.4479274854052875  0.764773689239455  0.6796875220347189  1.0000
  C   C4        1.0  0.38176191775992413  0.78984022039311  0.6619483797718431  1.0000
  C   C5        1.0  0.3812948291371612  0.8593334875009618  0.640921241881081  1.0000
  C   C6        1.0  0.4493187469042184  0.9040536389816437  0.6414035115060982  1.0000
  C   C7        1.0  0.5148945542129155  0.8784543420634917  0.6573063773648116  1.0000
  C   C8        1.0  0.3121110657645616  0.8849479188501806  0.6147174893249314  1.0000
  C   C9        1.0  0.3133008541976566  0.9328444296681724  0.5630726272639208  1.0000
  C   C10       1.0  0.211766906320797  0.07221684523303651  0.49492861115304265  1.0000
  C   C11       1.0  0.21368380982614352  0.1206613389128322  0.4449835528089565  1.0000
  C   C12       1.0  0.6941390641319315  0.5882827453296571  0.7830058575730944  1.0000
  C   C13       1.0  0.6758998715537742  0.5154687385974412  0.8079563325249666  1.0000
  C   C14       1.0  0.6797620416406502  0.4476323442889694  0.7646684200279736  1.0000
  C   C15       1.0  0.6616790326305733  0.3813643775270492  0.7898724653044482  1.0000
  C   C16       1.0  0.6405857371263792  0.38170673062705873  0.8594335597380648  1.0000
  C   C17       1.0  0.6413372815316407  0.4503577796122897  0.9042218188263789  1.0000
  C   C18       1.0  0.6576047403097078  0.5160360977196063  0.878462376713898  1.0000
  C   C19       1.0  0.6142930770854136  0.31251341303919844  0.8852059961092208  1.0000
  C   C20       1.0  0.5627394613148836  0.3138901978497586  0.9330319010525585  1.0000
  C   C21       1.0  0.494778015282911  0.21193788142422676  0.07228886367872882  1.0000
  C   C22       1.0  0.44487983208213666  0.21373400662299957  0.12064802316825048  1.0000
  C   C23       1.0  0.7831425517808556  0.6937671889260386  0.5886605375722027  1.0000
  C   C24       1.0  0.8078621473791117  0.6757422244592419  0.5156279065110211  1.0000
  C   C25       1.0  0.7649153860276102  0.6796572134482022  0.44796875587352497  1.0000
  C   C26       1.0  0.7901659395443659  0.661707407673525  0.3815925148839625  1.0000
  C   C27       1.0  0.8594009418535081  0.6407792883407737  0.3816676174636696  1.0000
  C   C28       1.0  0.9038214721797858  0.6416074188221118  0.4501764568136295  1.0000
  C   C29       1.0  0.8780265723246218  0.6576632135808538  0.5159422710112409  1.0000
  C   C30       1.0  0.8851406664339121  0.6144278028787369  0.31230999324109376  1.0000
  C   C31       1.0  0.9329218990043062  0.5628188112585735  0.31346657595038613  1.0000
  C   C32       1.0  0.0721865370735699  0.4950469449404977  0.2118048750000128  1.0000
  C   C33       1.0  0.12060645347618497  0.4451966219059784  0.21383341838943443  1.0000
  C   C34       1.0  0.716203564116668  0.9115923735098972  0.8057465185851597  1.0000
  C   C35       1.0  0.6916448149867876  0.9846236313669082  0.8242560892555062  1.0000
  C   C36       1.0  0.7347511158274785  0.05218531357260053  0.8203944260378648  1.0000
  C   C37       1.0  0.7096687833749017  0.11862407382277242  0.8384238170726306  1.0000
  C   C38       1.0  0.6404476753179937  0.11864675292083858  0.8593158908018808  1.0000
  C   C39       1.0  0.5958944796686653  0.05023286570551021  0.8585291057348882  1.0000
  C   C40       1.0  0.621549562866221  0.9843945874476673  0.8424401915247657  1.0000
  C   C41       1.0  0.6148458585293212  0.18806048581889453  0.8856447515293198  1.0000
  C   C42       1.0  0.5671622230964745  0.1869388695453296  0.9373219336421457  1.0000
  C   C43       1.0  0.4280012708802304  0.28839262875052907  0.005362226561345602  1.0000
  C   C44       1.0  0.3797208679606641  0.28632258887083856  0.05531878794422342  1.0000
  C   C45       1.0  0.9122774316467428  0.805972910426789  0.7160446380206337  1.0000
  C   C46       1.0  0.9851437453541511  0.8243846118407276  0.691586457478607  1.0000
  C   C47       1.0  0.052280889137009  0.8203082053421866  0.7349932170168856  1.0000
  C   C48       1.0  0.11848087483818398  0.8381155978348076  0.710059549635794  1.0000
  C   C49       1.0  0.11899458395435401  0.8591092615745669  0.6405654984019407  1.0000
  C   C50       1.0  0.05103045593119049  0.8586806818464723  0.5957341365778461  1.0000
  C   C51       1.0  0.9854167727394624  0.842767605031739  0.6212436600051205  1.0000
  C   C52       1.0  0.1882117399619005  0.8853059717607652  0.6150640143947115  1.0000
  C   C53       1.0  0.18704195942983404  0.9370227436277859  0.5672517167381556  1.0000
  C   C54       1.0  0.28841029931632534  0.005386485514968315  0.4279725130272496  1.0000
  C   C55       1.0  0.28654115544976116  0.055462654823699595  0.379674832931471  1.0000
  C   C56       1.0  0.8053941734884161  0.716380756660655  0.911887600444757  1.0000
  C   C57       1.0  0.8240358280105157  0.6916186540439997  0.9847422757100333  1.0000
  C   C58       1.0  0.8202192799109936  0.7350643442082045  0.052497851170173235  1.0000
  C   C59       1.0  0.8383498064490594  0.7100188014270259  0.11883423708682976  1.0000
  C   C60       1.0  0.8594067514215098  0.6404533794276402  0.11858421523801603  1.0000
  C   C61       1.0  0.8587216594913656  0.5955757453374632  0.0500144474026314  1.0000
  C   C62       1.0  0.8424269293188614  0.6211848475048498  0.9842566279503943  1.0000
  C   C63       1.0  0.8856867062547877  0.6148266125669934  0.18784415244953576  1.0000
  C   C64       1.0  0.9373261735247949  0.5671014761669751  0.18650035090145414  1.0000
  C   C65       1.0  0.005586166142798301  0.4279620398389881  0.2882584107085577  1.0000
  C   C66       1.0  0.055591580395379495  0.37972187251255457  0.2864208244829243  1.0000
  C   C67       1.0  0.4120449641135052  0.21660267881883039  0.3064605110336345  1.0000
  C   C68       1.0  0.4848964673595617  0.19195598691023716  0.32442869697505466  1.0000
  C   C69       1.0  0.5520900906920829  0.2352114733643731  0.32031594355598264  1.0000
  C   C70       1.0  0.6182512172166809  0.210135875259482  0.3380593240680767  1.0000
  C   C71       1.0  0.6187088892300993  0.1406462830242319  0.35908713172559453  1.0000
  C   C72       1.0  0.5506816718161289  0.09592880032296588  0.3586031418863769  1.0000
  C   C73       1.0  0.4851114267903399  0.12153793412736753  0.3426947332798918  1.0000
  C   C74       1.0  0.6878947525404867  0.11502889728466667  0.3852988245517607  1.0000
  C   C75       1.0  0.6867017253110674  0.06713127185498276  0.43693919781803453  1.0000
  C   C76       1.0  0.7882521504480592  0.9277690368815497  0.5050859919330435  1.0000
  C   C77       1.0  0.7863335858084711  0.8793291533376575  0.5550299201614664  1.0000
  C   C78       1.0  0.3058539242042784  0.4117044948070471  0.21697989020798056  1.0000
  C   C79       1.0  0.3241031083830491  0.4845149494828505  0.19202724429129597  1.0000
  C   C80       1.0  0.3202430945329623  0.5523555518162269  0.2353172833427379  1.0000
  C   C81       1.0  0.33833555292983425  0.6186187751109673  0.21011078133420827  1.0000
  C   C82       1.0  0.3594277596757182  0.6182734882344291  0.14054956257501056  1.0000
  C   C83       1.0  0.3586707021196389  0.5496230438559379  0.09576049437202265  1.0000
  C   C84       1.0  0.3424015115745008  0.4839487316247428  0.12152354379064428  1.0000
  C   C85       1.0  0.38571994343138266  0.687464572469338  0.11477290836485568  1.0000
  C   C86       1.0  0.4372790039616206  0.6860931502739405  0.06695040111102912  1.0000
  C   C87       1.0  0.5052441967318088  0.788044460328706  0.9277014325767894  1.0000
  C   C88       1.0  0.5551390550487554  0.786249888673119  0.8793425198440802  1.0000
  C   C89       1.0  0.21683462418845065  0.306233267606828  0.4113436382321964  1.0000
  C   C90       1.0  0.1921111508949238  0.3242761048309859  0.484371572577551  1.0000
  C   C91       1.0  0.2350434561562267  0.32035996194570526  0.5520373086942739  1.0000
  C   C92       1.0  0.20979119081049896  0.33832364414519833  0.6184128611662771  1.0000
  C   C93       1.0  0.14056668043517112  0.35927236303956533  0.61833157008423  1.0000
  C   C94       1.0  0.09615663868013509  0.3584549748973346  0.5498197655024128  1.0000
  C   C95       1.0  0.12195545333870678  0.3423807897416823  0.48405641384643866  1.0000
  C   C96       1.0  0.1148171449378026  0.3856105741499931  0.6876848502358186  1.0000
  C   C97       1.0  0.0670265014304974  0.4372155805772451  0.6865309080048193  1.0000
  C   C98       1.0  0.9277853506455782  0.504996660470006  0.7882066191573287  1.0000
  C   C99       1.0  0.879368784363706  0.5548465451975702  0.7861758620400892  1.0000
  C   C100      1.0  0.28381791730733147  0.08839519506278752  0.1942536774182884  1.0000
  C   C101      1.0  0.3083756245692726  0.015364873440574899  0.17573977940690358  1.0000
  C   C102      1.0  0.2652671026841347  0.9478033108930077  0.17960217371836512  1.0000
  C   C103      1.0  0.29034721185055895  0.8813580988192841  0.1615756626243936  1.0000
  C   C104      1.0  0.3595662465483328  0.8813312783272521  0.1406760995745415  1.0000
  C   C105      1.0  0.4041227094407418  0.9497446606046793  0.141466033679869  1.0000
  C   C106      1.0  0.378470848837594  0.015585135394978489  0.15756015109680277  1.0000
  C   C107      1.0  0.38516980996423916  0.8119206686528531  0.11434049920846695  1.0000
  C   C108      1.0  0.43285563799477705  0.8130437848178786  0.06266392575822982  1.0000
  C   C109      1.0  0.5720275268417084  0.7115931240929498  0.9946297175465019  1.0000
  C   C110      1.0  0.6203003392942534  0.7136601714773433  0.9446649467960669  1.0000
  C   C111      1.0  0.087728224418278  0.1940262216769995  0.2839753276328095  1.0000
  C   C112      1.0  0.014864183418161796  0.1755958280485359  0.3084351115445045  1.0000
  C   C113      1.0  0.9477287152561047  0.17967365826401496  0.2650267079305734  1.0000
  C   C114      1.0  0.8815282035430343  0.16186399243987634  0.28995937513236203  1.0000
  C   C115      1.0  0.8810095025836233  0.14087156043640897  0.3594544227808995  1.0000
  C   C116      1.0  0.9489731251275018  0.14129733586725018  0.4042836228047264  1.0000
  C   C117      1.0  0.014585691487774005  0.15721019370199227  0.3787749566671224  1.0000
  C   C118      1.0  0.8117940340681004  0.1146746410913693  0.38495399550929216  1.0000
  C   C119      1.0  0.8129676536246606  0.06296022188845282  0.43276731379152267  1.0000
  C   C120      1.0  0.7116032360139429  0.994599994543258  0.5720418172207786  1.0000
  C   C121      1.0  0.7134740468399272  0.9445241470414273  0.6203387476586856  1.0000
  C   C122      1.0  0.19460086797977283  0.28363633985239295  0.08809909730771888  1.0000
  C   C123      1.0  0.1759634535830727  0.3084133700326817  0.015251352793896384  1.0000
  C   C124      1.0  0.1797877324471244  0.2649811871508021  0.9474917357960989  1.0000
  C   C125      1.0  0.1616499883170732  0.2900264351244245  0.8811578827379948  1.0000
  C   C126      1.0  0.1405776213181227  0.35958348840959087  0.8814077541558732  1.0000
  C   C127      1.0  0.14126208195801127  0.4044538372683278  0.9499848369048891  1.0000
  C   C128      1.0  0.15755691912423941  0.37884263122727185  0.015736401043454907  1.0000
  C   C129      1.0  0.1142782196722649  0.38521361885103295  0.8121543244147702  1.0000
  C   C130      1.0  0.06263758188714519  0.43293904058441507  0.8135022899799365  1.0000
  C   C131      1.0  0.994382711101295  0.5720696850570164  0.7117371603204531  1.0000
  C   C132      1.0  0.9443751579346938  0.6203078481786193  0.7135708311560763  1.0000
  C   C133      1.0  0.2501644374120886  0.960610104720267  0.5395343035837641  1.0000
  C   C134      1.0  0.2501059023692207  0.012923523220273101  0.48727505484460915  1.0000
  C   C135      1.0  0.5393778663430949  0.2504458869245383  0.9608185998339562  1.0000
  C   C136      1.0  0.4872148583225738  0.25030138184944667  0.013035935684328608  1.0000
  C   C137      1.0  0.960761416173348  0.5393787652295571  0.24994905656194522  1.0000
  C   C138      1.0  0.013030282790218502  0.48726178611129006  0.24995798503761796  1.0000
  C   C139      1.0  0.749845730474675  0.03937460982484  0.46048402922765047  1.0000
  C   C140      1.0  0.7499076484157355  0.9870596844233077  0.5127392772736883  1.0000
  C   C141      1.0  0.4606438452702547  0.7495363919800581  0.03916837113008136  1.0000
  C   C142      1.0  0.5128123163413819  0.7496791572229  0.9869554201952438  1.0000
  C   C143      1.0  0.0392012915454814  0.46065775581383395  0.7500511367519422  1.0000
  C   C144      1.0  0.9869378045070503  0.5127833299833426  0.7500488217552073  1.0000
  N   N1        1.0  0.2501291056312169  0.11234389374047989  0.3881335718443353  1.0000
  N   N2        1.0  0.2501560751841581  0.8605638365990131  0.6394052612438941  1.0000
  N   N3        1.0  0.38813863408128674  0.2500066005539381  0.11225941703141018  1.0000
  N   N4        1.0  0.6390478688137763  0.250218542522866  0.8608952525741954  1.0000
  N   N5        1.0  0.1123262850327933  0.38825687044648294  0.2501611246046096  1.0000
  N   N6        1.0  0.8608967486410251  0.6391255168051515  0.2501127914985162  1.0000
  N   N7        1.0  0.7498877442061341  0.8876470466381219  0.6118793462854057  1.0000
  N   N8        1.0  0.7498491732075651  0.13941559816856142  0.360611390339642  1.0000
  N   N9        1.0  0.6118770459098782  0.7499718257950931  0.8877259246443641  1.0000
  N   N10       1.0  0.3609695606408395  0.7497591770170615  0.139084334818719  1.0000
  N   N11       1.0  0.8876491811283599  0.6117755307542508  0.7498367214913202  1.0000
  N   N12       1.0  0.1390611045431456  0.36091398878599523  0.7498790124541515  1.0000
  O   O1        1.0  0.5920027672840503  0.7351516218020963  0.7349457233100908  1.0000
  O   O2        1.0  0.6405481893986931  0.8166373432471516  0.6678921146441681  1.0000
  O   O3        1.0  0.7356436064255973  0.5919376006623267  0.7349794447494488  1.0000
  O   O4        1.0  0.6682465786828686  0.6412935069515485  0.8159861586986564  1.0000
  O   O5        1.0  0.7351461669390601  0.7352895560517184  0.5927367344715222  1.0000
  O   O6        1.0  0.8161727111075693  0.6678902719673943  0.6413589351325015  1.0000
  O   O7        1.0  0.763751103710824  0.9079893299713648  0.7637137500559986  1.0000
  O   O8        1.0  0.6834249257165866  0.8588188570465576  0.8317411537737414  1.0000
  O   O9        1.0  0.9087238736481069  0.7641765914907594  0.7639416017351834  1.0000
  O   O10       1.0  0.8596147301422407  0.8316735855803683  0.6829058433546678  1.0000
  O   O11       1.0  0.7634490694348202  0.7640303090552152  0.9086898401210916  1.0000
  O   O12       1.0  0.83138549777248  0.6835370466179355  0.8588374333827175  1.0000
  O   O13       1.0  0.4080097711222733  0.2648191984106986  0.2650308430985433  1.0000
  O   O14       1.0  0.3594684931206942  0.1833731716514748  0.332125618753544  1.0000
  O   O15       1.0  0.26434063653587003  0.40805625190611755  0.2649984090663366  1.0000
  O   O16       1.0  0.3317643271142572  0.3586952937043931  0.18401896202662016  1.0000
  O   O17       1.0  0.2648167098812593  0.2646961859283508  0.4072680461826579  1.0000
  O   O18       1.0  0.18381877871816954  0.3321194362097374  0.3586453539747155  1.0000
  O   O19       1.0  0.2362839118467974  0.09200227557234092  0.23630281086064292  1.0000
  O   O20       1.0  0.31658131392278216  0.14116650992662733  0.16824539207514277  1.0000
  O   O21       1.0  0.09127360890188638  0.23584700050359697  0.23609936572902504  1.0000
  O   O22       1.0  0.1403896641639406  0.16831076870592204  0.3170931611699075  1.0000
  O   O23       1.0  0.2365575442850059  0.23599772212455858  0.09129518021632782  1.0000
  O   O24       1.0  0.16859527732415813  0.3164642667477437  0.1411480822542401  1.0000
  O   O25       1.0  0.24552502209870397  0.2455004787651021  0.24546688762314517  1.0000
  O   O26       1.0  0.7544678279608162  0.7544943148276175  0.7545254698722418  1.0000
