data_image0
_chemical_formula_structural       Na2H8C6N6O8
_chemical_formula_sum              "Na2 H8 C6 N6 O8"
_cell_length_a       3.5612771769416938
_cell_length_b       9.163092836619931
_cell_length_c       9.157389458071115
_cell_angle_alpha    91.95066598386924
_cell_angle_beta     98.18245011687847
_cell_angle_gamma    91.12244214002726

_space_group_name_H-M_alt    "P 1"
_space_group_IT_number       1

loop_
  _space_group_symop_operation_xyz
  'x, y, z'

loop_
  _atom_site_type_symbol
  _atom_site_label
  _atom_site_symmetry_multiplicity
  _atom_site_fract_x
  _atom_site_fract_y
  _atom_site_fract_z
  _atom_site_occupancy
  Na  Na1       1.0  0.668078848339448  0.37735912087043727  0.3643303291176565  1.0000
  Na  Na2       1.0  0.33189725433270223  0.6226464655478591  0.6356674940144913  1.0000
  H   H1        1.0  0.038328101613935  0.5198055065941884  0.1809151775492452  1.0000
  H   H2        1.0  0.9616536313698277  0.480197861048893  0.8190785501742468  1.0000
  H   H3        1.0  0.05598565008632761  0.355199477466904  0.11302218473695547  1.0000
  H   H4        1.0  0.9440018587580852  0.6448049708186898  0.8869708212900773  1.0000
  H   H5        1.0  0.8766273857207096  0.050970585046719884  0.10619061922731281  1.0000
  H   H6        1.0  0.1234106469133636  0.9490272953296351  0.8938084717180103  1.0000
  H   H7        1.0  0.5708369825336919  0.8826090599994314  0.4873217830304667  1.0000
  H   H8        1.0  0.42916736192650984  0.11739431385542073  0.5126765572620897  1.0000
  C   C1        1.0  0.9098386263693997  0.8220959645788279  0.12338186752065641  1.0000
  C   C2        1.0  0.0901560946256552  0.17789770549865835  0.8766331163117868  1.0000
  C   C3        1.0  0.7049381536342166  0.9912647803708905  0.304224672683894  1.0000
  C   C4        1.0  0.2950627223679446  0.008729864884102798  0.695774319731207  1.0000
  C   C5        1.0  0.7617071995306616  0.7302461395351683  0.3427977934682076  1.0000
  C   C6        1.0  0.2383022336033562  0.26975516620876044  0.6572182653026672  1.0000
  N   N1        1.0  0.8295426931924295  0.9630838834847918  0.17245209985262017  1.0000
  N   N2        1.0  0.17049203796709378  0.036909675048562476  0.8275532321925212  1.0000
  N   N3        1.0  0.8764717343566916  0.7077759869764718  0.2100492991715797  1.0000
  N   N4        1.0  0.1235237708578865  0.29222303146627127  0.7899494936275389  1.0000
  N   N5        1.0  0.668336399406279  0.8711037194384799  0.3856991649829737  1.0000
  N   N6        1.0  0.3316764277428277  0.12889965580414037  0.6143007686861921  1.0000
  O   O1        1.0  0.737287851958648  0.6318347937042643  0.4338984062641344  1.0000
  O   O2        1.0  0.2627142178282612  0.3681751057023843  0.566095606948565  1.0000
  O   O3        1.0  0.02041654761509189  0.8085777762527824  0.9991533179220582  1.0000
  O   O4        1.0  0.9795612463789213  0.19141365377129196  0.0008507765439631015  1.0000
  O   O5        1.0  0.11763818219520773  0.4184725698789789  0.2031173959431314  1.0000
  O   O6        1.0  0.8823409895093446  0.5815351764365742  0.7968773904194819  1.0000
  O   O7        1.0  0.6282164557648715  0.11644314877491267  0.348471433648065  1.0000
  O   O8        1.0  0.3718044332130361  0.8835525518137499  0.6515254934856358  1.0000
