data_image0
_chemical_formula_structural       Li8H20C16O26
_chemical_formula_sum              "Li8 H20 C16 O26"
_cell_length_a       5.46451759693113
_cell_length_b       5.464482876231788
_cell_length_c       24.43465013701237
_cell_angle_alpha    89.99988618895095
_cell_angle_beta     90.00005382860851
_cell_angle_gamma    118.47848733120152

_space_group_name_H-M_alt    "P 1"
_space_group_IT_number       1

loop_
  _space_group_symop_operation_xyz
  'x, y, z'

loop_
  _atom_site_type_symbol
  _atom_site_label
  _atom_site_symmetry_multiplicity
  _atom_site_fract_x
  _atom_site_fract_y
  _atom_site_fract_z
  _atom_site_occupancy
  Li  Li1       1.0  0.9398117706560429  0.37064414198660967  0.8041977372717428  1.0000
  Li  Li2       1.0  0.06018062229737353  0.6293604473168346  0.30419902626308476  1.0000
  Li  Li3       1.0  0.37063807653216674  0.9398153559729608  0.1958008754342941  1.0000
  Li  Li4       1.0  0.6293614940900982  0.060186065202778104  0.6958012963930855  1.0000
  Li  Li5       1.0  0.467326303155538  0.031936983203635805  0.9669776672979893  1.0000
  Li  Li6       1.0  0.5326841303861443  0.9680578733235664  0.4669797224580068  1.0000
  Li  Li7       1.0  0.03194537314062971  0.46731601195685357  0.0330210406921196  1.0000
  Li  Li8       1.0  0.9680550320645268  0.5326847924684588  0.5330233697024838  1.0000
  H   H1        1.0  0.47358234882551664  0.2882527391357073  0.7693783020439896  1.0000
  H   H2        1.0  0.5264089084501293  0.7117459214638943  0.26937964978571227  1.0000
  H   H3        1.0  0.2882425611308009  0.4735799738581434  0.2306211936115972  1.0000
  H   H4        1.0  0.7117496826625003  0.5264211164133246  0.7306210176860759  1.0000
  H   H5        1.0  0.46745868284958925  0.9311982852860656  0.8349948151583889  1.0000
  H   H6        1.0  0.532537376169863  0.06880603693959841  0.33499358122455913  1.0000
  H   H7        1.0  0.931189455476144  0.4674514504421057  0.1650058334644129  1.0000
  H   H8        1.0  0.0688092699156968  0.5325523243419356  0.6650055240244441  1.0000
  H   H9        1.0  0.4125255285994457  0.5203423730596413  0.9385306566701817  1.0000
  H   H10       1.0  0.5874803954688447  0.47965480676953853  0.4385317093294249  1.0000
  H   H11       1.0  0.5203370870630196  0.41250903106835335  0.06146840964525781  1.0000
  H   H12       1.0  0.479657678035629  0.5874873450542565  0.5614681597209525  1.0000
  H   H13       1.0  0.6227419965291717  0.6360166830394292  0.8393702396652927  1.0000
  H   H14       1.0  0.3772558949170276  0.36398760454434864  0.3393696632383509  1.0000
  H   H15       1.0  0.6360087169693146  0.6227386442970372  0.16062960687888514  1.0000
  H   H16       1.0  0.36398817599578603  0.3772651651288826  0.6606302440892762  1.0000
  H   H17       1.0  0.8720088796349118  0.675889739954549  0.9261719902213913  1.0000
  H   H18       1.0  0.12798293957563803  0.3240971180945139  0.4261726083212096  1.0000
  H   H19       1.0  0.6759024682289267  0.8720146223979061  0.0738261853420852  1.0000
  H   H20       1.0  0.3241027373553252  0.12799206627064316  0.5738269237160978  1.0000
  C   C1        1.0  0.9884554116233704  0.10667133700562913  0.9409646447588288  1.0000
  C   C2        1.0  0.011543038721562409  0.893321643297526  0.4409653988763083  1.0000
  C   C3        1.0  0.10667111004692482  0.9884493032154326  0.059034811751431  1.0000
  C   C4        1.0  0.8933292965890731  0.0115512678060199  0.5590357169986149  1.0000
  C   C5        1.0  0.05009793885479744  0.9364278880318297  0.8254926915647759  1.0000
  C   C6        1.0  0.949907425685332  0.06358070175261332  0.32549318186833187  1.0000
  C   C7        1.0  0.9364222763120653  0.05009767827458231  0.17450595918973022  1.0000
  C   C8        1.0  0.0635734836538404  0.9498997655083558  0.6745095582696194  1.0000
  C   C9        1.0  0.7712598228214562  0.8460841249404327  0.8540632777108997  1.0000
  C   C10       1.0  0.22874173380506596  0.1539200400466783  0.354063172410882  1.0000
  C   C11       1.0  0.8460832629683425  0.7712587592185403  0.1459352989507892  1.0000
  C   C12       1.0  0.1539257560673661  0.2287514508970361  0.6459355492701349  1.0000
  C   C13       1.0  0.7902401568702615  0.8211578481520051  0.9172682007211037  1.0000
  C   C14       1.0  0.2097601243572882  0.17883534939097254  0.4172684898885707  1.0000
  C   C15       1.0  0.8211629424830137  0.7902353894629713  0.0827299673855109  1.0000
  C   C16       1.0  0.17884493931363474  0.20976914663042123  0.5827330958802577  1.0000
  O   O1        1.0  0.1713379166574782  0.1778862482373924  0.8043180222755667  1.0000
  O   O2        1.0  0.8286544763025818  0.8221183399827938  0.3043202016430513  1.0000
  O   O3        1.0  0.17788349209320134  0.17134490863742974  0.1956819310972975  1.0000
  O   O4        1.0  0.8221214299676732  0.8286523682575367  0.6956820543868362  1.0000
  O   O5        1.0  0.6545927345163777  0.3454067486375935  0.7500000889953001  1.0000
  O   O6        1.0  0.3453985216933404  0.6545920858398447  0.2500001971960089  1.0000
  O   O7        1.0  0.1422326659211065  0.7613462603208845  0.8252672398728151  1.0000
  O   O8        1.0  0.8577625490268163  0.23866022647144555  0.3252680439282686  1.0000
  O   O9        1.0  0.7613358274224356  0.1422299630030395  0.17473142062436153  1.0000
  O   O10       1.0  0.23866161962887864  0.8577633241749116  0.6747334587028675  1.0000
  O   O11       1.0  0.6743399354562599  0.03822160432695651  0.8419818313887292  1.0000
  O   O12       1.0  0.32565978831958386  0.9617826644543899  0.34197893611863606  1.0000
  O   O13       1.0  0.03820985306350611  0.6743293379311056  0.15802012558530984  1.0000
  O   O14       1.0  0.961780264324297  0.3256640807217934  0.6580196792906889  1.0000
  O   O15       1.0  0.5239447877081532  0.7306968613557815  0.9407324131933166  1.0000
  O   O16       1.0  0.4760593042951273  0.26930029410885953  0.44073107986940135  1.0000
  O   O17       1.0  0.7306929053752074  0.5239329199160779  0.0592670245818212  1.0000
  O   O18       1.0  0.26930735616058854  0.4760634898089295  0.5592688269765347  1.0000
  O   O19       1.0  0.24792006407928113  0.19394891479125684  0.933498513367269  1.0000
  O   O20       1.0  0.7520920546939536  0.8060420875384582  0.4335010934533444  1.0000
  O   O21       1.0  0.19396051682115714  0.24790665743529425  0.066501429129822  1.0000
  O   O22       1.0  0.8060465205462182  0.7521001015812417  0.5665007642005478  1.0000
  O   O23       1.0  0.8844656948780243  0.24027177507226585  0.9656050231780785  1.0000
  O   O24       1.0  0.1155437499385883  0.7597210118622046  0.4656058570263113  1.0000
  O   O25       1.0  0.2402873358249026  0.884461750345665  0.0343944298553538  1.0000
  O   O26       1.0  0.7597206884260149  0.11554737865881043  0.5343956715803841  1.0000
