data_image0
_chemical_formula_structural       Zn8H64C74O38
_chemical_formula_sum              "Zn8 H64 C74 O38"
_cell_length_a       18.050168963311236
_cell_length_b       18.296409634154298
_cell_length_c       18.228970651107637
_cell_angle_alpha    89.98596227696179
_cell_angle_beta     119.24302277640032
_cell_angle_gamma    120.0775424867227

_space_group_name_H-M_alt    "P 1"
_space_group_IT_number       1

loop_
  _space_group_symop_operation_xyz
  'x, y, z'

loop_
  _atom_site_type_symbol
  _atom_site_label
  _atom_site_symmetry_multiplicity
  _atom_site_fract_x
  _atom_site_fract_y
  _atom_site_fract_z
  _atom_site_occupancy
  Zn  Zn1       1.0  0.41489180968367373  0.796209281331457  0.20702567711705197  1.0000
  Zn  Zn2       1.0  0.5851074553017666  0.20378736272056128  0.7929752778232382  1.0000
  Zn  Zn3       1.0  0.4114869179424899  0.6184517284501964  0.20416486701405734  1.0000
  Zn  Zn4       1.0  0.5885113226604302  0.38154624447390256  0.795836135254717  1.0000
  Zn  Zn5       1.0  0.5859049235130059  0.7913979263440609  0.38172853799584766  1.0000
  Zn  Zn6       1.0  0.4141004395315092  0.20860406169541076  0.6182754060252477  1.0000
  Zn  Zn7       1.0  0.5898324788631372  0.7953995222461927  0.2077628701043039  1.0000
  Zn  Zn8       1.0  0.4101653657808483  0.20459977655393397  0.7922390359157061  1.0000
  H   H1        1.0  0.45110673502793464  0.5236679009705156  0.8553585564743287  1.0000
  H   H2        1.0  0.060879720418661507  0.0320508339946528  0.6576983074660987  1.0000
  H   H3        1.0  0.7555392419225696  0.16656653225232526  0.1513236496246293  1.0000
  H   H4        1.0  0.7314244267837535  0.17584139839571117  0.04563572506793177  1.0000
  H   H5        1.0  0.6967311907002768  0.22220767955389684  0.09848855348410984  1.0000
  H   H6        1.0  0.2444600653064128  0.8334301347305201  0.8486740344165185  1.0000
  H   H7        1.0  0.30326920355876996  0.7777896596620621  0.9015091146787312  1.0000
  H   H8        1.0  0.26857442887934  0.8241545971797705  0.9543622861244214  1.0000
  H   H9        1.0  0.6757979969987458  0.6750910727534957  0.9978393156425155  1.0000
  H   H10       1.0  0.32420613664319115  0.32491290327426725  0.00216567273253077  1.0000
  H   H11       1.0  0.2441229573187584  0.3985248043528103  0.4169892460138627  1.0000
  H   H12       1.0  0.5488995585929429  0.47633741187985373  0.14464749044381608  1.0000
  H   H13       1.0  0.2704196883822617  0.3185901108146112  0.45248273582087944  1.0000
  H   H14       1.0  0.3037286888592447  0.4056158542682837  0.5309339139805684  1.0000
  H   H15       1.0  0.7558732345191216  0.6014758263154646  0.5830118509118803  1.0000
  H   H16       1.0  0.696266246131472  0.5943847823921117  0.4690654700996787  1.0000
  H   H17       1.0  0.7295758609508525  0.6814105152061104  0.547518594981824  1.0000
  H   H18       1.0  0.312272689193989  0.3113133784292613  0.3187536430896785  1.0000
  H   H19       1.0  0.287297158680559  0.3921291305907957  0.2836832821389734  1.0000
  H   H20       1.0  0.38383945248435225  0.39091468210182967  0.282295878018182  1.0000
  H   H21       1.0  0.6877229298272666  0.6886892525184649  0.6812471740133431  1.0000
  H   H22       1.0  0.6161570070211367  0.6090872905554291  0.7177042533322576  1.0000
  H   H23       1.0  0.6696096429313272  0.5235186159319838  0.07264956938966798  1.0000
  H   H24       1.0  0.7127005576720932  0.6078728360743426  0.7163185620569692  1.0000
  H   H25       1.0  0.5675399428069382  0.397990616953166  0.41262993782358853  1.0000
  H   H26       1.0  0.6278700473032331  0.40363134140570617  0.5262365425961945  1.0000
  H   H27       1.0  0.4946230245275343  0.31803657686680953  0.4477739297766802  1.0000
  H   H28       1.0  0.43245472856051487  0.6020153516154493  0.5873698677583831  1.0000
  H   H29       1.0  0.5053739006250167  0.6819660748414266  0.552224784122842  1.0000
  H   H30       1.0  0.37212670099162165  0.5963719847059606  0.4737609877293777  1.0000
  H   H31       1.0  0.9725250857563948  0.5766000439505063  0.8365107103491096  1.0000
  H   H32       1.0  0.027474800612033237  0.42339659328364126  0.16349164616378428  1.0000
  H   H33       1.0  0.03257151620908864  0.4270735446263174  0.865584120491519  1.0000
  H   H34       1.0  0.33039556365949346  0.47648602468527906  0.9273564934067906  1.0000
  H   H35       1.0  0.9674300833345127  0.5729284652113265  0.13441413984322273  1.0000
  H   H36       1.0  0.9977943886465326  0.3233844774776102  0.9998807630347386  1.0000
  H   H37       1.0  0.0022059007214207055  0.6766108377023198  0.00012014457706737759  1.0000
  H   H38       1.0  0.435787371857792  0.8473056761319668  0.8336650562711724  1.0000
  H   H39       1.0  0.3746385582223794  0.9006673927375175  0.7786110875799961  1.0000
  H   H40       1.0  0.508427297506003  0.9532785555283566  0.8243248881260284  1.0000
  H   H41       1.0  0.5642128103405993  0.152692318378385  0.16633415406699473  1.0000
  H   H42       1.0  0.49157179766233133  0.04671876674888859  0.17567433809045244  1.0000
  H   H43       1.0  0.625360536945955  0.09932992953972787  0.22138813863648465  1.0000
  H   H44       1.0  0.564063101360894  0.16669649777226433  0.40967725790275017  1.0000
  H   H45       1.0  0.628720257410826  0.9702064100942916  0.028841200599636116  1.0000
  H   H46       1.0  0.4875863434363977  0.17292728912819647  0.4413790048715994  1.0000
  H   H47       1.0  0.6211133559908076  0.22193583506940937  0.5220566245289859  1.0000
  H   H48       1.0  0.43593088969004157  0.8332988397246766  0.5903161757812754  1.0000
  H   H49       1.0  0.3788817847377358  0.7780621757658325  0.47793682472689614  1.0000
  H   H50       1.0  0.5124070051097787  0.8270680437211907  0.5586146626893863  1.0000
  H   H51       1.0  0.25659382509567047  0.8684433426485185  0.41801057876783426  1.0000
  H   H52       1.0  0.7434019158940971  0.13155464990344262  0.58198590751023  1.0000
  H   H53       1.0  0.01698593667355654  0.8472940752965386  0.41473696228688783  1.0000
  H   H54       1.0  0.13200915050625647  0.9529581695967908  0.44597731560541115  1.0000
  H   H55       1.0  0.1261877310073484  0.9016751417179376  0.5273574728450965  1.0000
  H   H56       1.0  0.3712794591405029  0.029790905365089795  0.9711594271894485  1.0000
  H   H57       1.0  0.9830177368011944  0.1527119621595574  0.5852590238677493  1.0000
  H   H58       1.0  0.8738171648293973  0.0983289039280635  0.4726380141054349  1.0000
  H   H59       1.0  0.8679934985859815  0.047049196731393295  0.5540187178777103  1.0000
  H   H60       1.0  0.025640469054124527  0.15668109624632362  0.413176933597768  1.0000
  H   H61       1.0  0.9743599526495148  0.8433182249658061  0.5868234917645339  1.0000
  H   H62       1.0  0.3722117041956069  0.9682792215648635  0.3426244321971054  1.0000
  H   H63       1.0  0.6277834083705754  0.03171877398315811  0.6573711976582075  1.0000
  H   H64       1.0  0.9391218509625788  0.9679511605557707  0.34230213346806687  1.0000
  C   C1        1.0  0.5031149145877265  0.6141192435533469  0.10910507336547676  1.0000
  C   C2        1.0  0.49882639075052976  0.9480880046431822  0.44532998989274813  1.0000
  C   C3        1.0  0.40494206346856726  0.9568349875640934  0.4843159648113157  1.0000
  C   C4        1.0  0.5950541150059081  0.0431636687516175  0.5156812846152617  1.0000
  C   C5        1.0  0.967019642019501  0.9827017708335221  0.4124788773877269  1.0000
  C   C6        1.0  0.03298473184545261  0.017301565187061392  0.5875223882125695  1.0000
  C   C7        1.0  0.03802635373001093  0.9582268488231022  0.48314723797067655  1.0000
  C   C8        1.0  0.961976756247175  0.04177648936779829  0.5168528599339767  1.0000
  C   C9        1.0  0.10539043888461919  0.05337198169972619  0.5541997703503796  1.0000
  C   C10       1.0  0.8946117609202059  0.9466300098546369  0.44580152700653713  1.0000
  C   C11       1.0  0.034593134402349776  0.07718304671139008  0.4817878188713536  1.0000
  C   C12       1.0  0.49689140015492217  0.3858860807624395  0.8908993381031037  1.0000
  C   C13       1.0  0.9654097149478246  0.9228189533123299  0.5182126994587362  1.0000
  C   C14       1.0  0.5719766871249162  0.5854584206803751  0.013008173271202779  1.0000
  C   C15       1.0  0.4280296135365517  0.4145468959917977  0.9869973284970895  1.0000
  C   C16       1.0  0.49976899933365343  0.8908360178791098  0.38874893705614966  1.0000
  C   C17       1.0  0.5002292764722185  0.10916197415402003  0.6112493394633418  1.0000
  C   C18       1.0  0.4725726524373498  0.5137670550377607  0.9200465345331351  1.0000
  C   C19       1.0  0.527432370255184  0.4862382561611227  0.07995888983922576  1.0000
  C   C20       1.0  0.49521620359824675  0.44194384013475496  0.9480805897240642  1.0000
  C   C21       1.0  0.5047896454973325  0.5580608051300544  0.05192523919542674  1.0000
  C   C22       1.0  0.5944575805881982  0.5136858884670801  0.04122151158257734  1.0000
  C   C23       1.0  0.47486951162377977  0.9576395101525463  0.9216711657375852  1.0000
  C   C24       1.0  0.4055485150532192  0.4863200873213033  0.9587849872111888  1.0000
  C   C25       1.0  0.42783359364980095  0.44390726476534326  0.4133259302051044  1.0000
  C   C26       1.0  0.5721611433614413  0.5560940348330661  0.5866739057507502  1.0000
  C   C27       1.0  0.4046687934329043  0.4475865804933079  0.4855480998421768  1.0000
  C   C28       1.0  0.5953282733743848  0.5524153777024738  0.5144545233805857  1.0000
  C   C29       1.0  0.5044379139986929  0.45164048781649757  0.5569373394414328  1.0000
  C   C30       1.0  0.49555827783918727  0.5483601428517703  0.44306375748430327  1.0000
  C   C31       1.0  0.5265418668154992  0.4472918265252445  0.48356548150940876  1.0000
  C   C32       1.0  0.47345451596125804  0.5527081373832061  0.5164357086905724  1.0000
  C   C33       1.0  0.03946598372062471  0.4856468834430033  0.9585645123241305  1.0000
  C   C34       1.0  0.5251302260493204  0.04235781677225249  0.07832782660192797  1.0000
  C   C35       1.0  0.9605349411115044  0.51434843256267  0.04143670656056729  1.0000
  C   C36       1.0  0.9632462518400187  0.5155664371905644  0.9209587261909818  1.0000
  C   C37       1.0  0.03675320408429868  0.4844295401016366  0.07904232202354672  1.0000
  C   C38       1.0  0.8945116594759029  0.4427191556257881  0.9479292705883822  1.0000
  C   C39       1.0  0.1054869214789989  0.5572754941388993  0.05207025132912687  1.0000
  C   C40       1.0  0.22114423877631853  0.6134093331065388  0.11034163458572267  1.0000
  C   C41       1.0  0.778856876994695  0.38658531613931757  0.8896596775732134  1.0000
  C   C42       1.0  0.9700631514739796  0.41274562717961766  0.9852591508206531  1.0000
  C   C43       1.0  0.029937957256436144  0.5872490182444352  0.014742706488135563  1.0000
  C   C44       1.0  0.7798250139011812  0.8892154125248196  0.38947735895731467  1.0000
  C   C45       1.0  0.4285874364515366  0.9825732320157031  0.4126448893416566  1.0000
  C   C46       1.0  0.22017735572075034  0.1107859008043164  0.6105256671234116  1.0000
  C   C47       1.0  0.496589164673061  0.6066922257375751  0.3868361009623413  1.0000
  C   C48       1.0  0.5034098085267543  0.3933097349354355  0.6131674560790968  1.0000
  C   C49       1.0  0.5028151903807653  0.8908759582559611  0.11009463186935874  1.0000
  C   C50       1.0  0.4971862141796208  0.1091200444443032  0.88990407926471  1.0000
  C   C51       1.0  0.5716350889391109  0.9838503536859307  0.015697390577010032  1.0000
  C   C52       1.0  0.428363808249756  0.016147631529328497  0.984302287515085  1.0000
  C   C53       1.0  0.5959640055936577  0.07857224028681031  0.04174353720945599  1.0000
  C   C54       1.0  0.4040341864428994  0.9214237391757079  0.958256343309429  1.0000
  C   C55       1.0  0.4971363909085867  0.05258417150945151  0.9476662921832926  1.0000
  C   C56       1.0  0.5714078529723422  0.0174240891288946  0.5873519240876064  1.0000
  C   C57       1.0  0.5028625203614608  0.9474138213494144  0.05233229560909073  1.0000
  C   C58       1.0  0.7004430415989445  0.165460780020922  0.08665952550332884  1.0000
  C   C59       1.0  0.2995569010942062  0.8345358877876663  0.9133384698107104  1.0000
  C   C60       1.0  0.30038459284759256  0.38956194922823767  0.47074697964935547  1.0000
  C   C61       1.0  0.6996113939702298  0.6104393405562406  0.5292551143018611  1.0000
  C   C62       1.0  0.34859982723322946  0.38112117992072564  0.31964861333939604  1.0000
  C   C63       1.0  0.6513981427058367  0.6188821210897897  0.680353355580955  1.0000
  C   C64       1.0  0.5557426115722706  0.38878917071497193  0.4666522192650645  1.0000
  C   C65       1.0  0.4442549349632684  0.6112134741753932  0.5333478962070686  1.0000
  C   C66       1.0  0.44685937664036157  0.9123314219024793  0.8349724790343629  1.0000
  C   C67       1.0  0.5234642005416531  0.07824885671816159  0.48117218186042265  1.0000
  C   C68       1.0  0.5531399094668502  0.08766523361495619  0.16502684045635627  1.0000
  C   C69       1.0  0.5504791309826301  0.1645197277003803  0.46252917037688235  1.0000
  C   C70       1.0  0.44951510661413596  0.8354769403201273  0.5374649331814041  1.0000
  C   C71       1.0  0.08062204555458395  0.9127292240684  0.4669006045440867  1.0000
  C   C72       1.0  0.9193822493031688  0.0872768065698324  0.5330967831831543  1.0000
  C   C73       1.0  0.4765319920140028  0.921749807241163  0.5188239772664359  1.0000
  C   C74       1.0  0.5011676277449978  0.05190931484992941  0.5546662009907308  1.0000
  O   O1        1.0  0.4996975068583182  0.7493492956265442  0.25087411700837947  1.0000
  O   O2        1.0  0.4415645606894998  0.13508189951189556  0.5707869949522788  1.0000
  O   O3        1.0  0.56532648229566  0.6983867323757665  0.13285734805485558  1.0000
  O   O4        1.0  0.4346814641313231  0.30161724860645484  0.8671495079575564  1.0000
  O   O5        1.0  0.44107538544775327  0.8719296972387625  0.304770009726951  1.0000
  O   O6        1.0  0.5589159447742206  0.1280636052755639  0.6952265086141693  1.0000
  O   O7        1.0  0.26262012504005106  0.5706634102165963  0.1289986139975595  1.0000
  O   O8        1.0  0.7373772851154712  0.429328554744373  0.8710025277976498  1.0000
  O   O9        1.0  0.7346662601660581  0.866897474858554  0.4300013776315622  1.0000
  O   O10       1.0  0.26533897054277844  0.13310050714871835  0.5700030486390375  1.0000
  O   O11       1.0  0.43792224903010196  0.5692850997421746  0.30248520976976323  1.0000
  O   O12       1.0  0.5003024280764804  0.250649335069184  0.749129361254397  1.0000
  O   O13       1.0  0.5620782141993033  0.4307162111097327  0.6975168824922803  1.0000
  O   O14       1.0  0.5680510536333614  0.8709706628163545  0.13558811663636308  1.0000
  O   O15       1.0  0.43194820502925774  0.12902401070491012  0.8644084456549024  1.0000
  O   O16       1.0  0.5572006047449135  0.6908230997440511  0.4283949346680486  1.0000
  O   O17       1.0  0.44279749348549297  0.3091775334014528  0.5716070960763702  1.0000
  O   O18       1.0  0.43678598789222867  0.8670251090475743  0.12998475575080437  1.0000
  O   O19       1.0  0.5632160239699645  0.13297087919120537  0.8700164472555799  1.0000
  O   O20       1.0  0.6439661905631695  0.6738591816135938  0.028720941524646448  1.0000
  O   O21       1.0  0.3560405475830136  0.3261467988223358  0.9712853233921521  1.0000
  O   O22       1.0  0.918037072531689  0.5252515461711766  0.8380357898367805  1.0000
  O   O23       1.0  0.2666345598690326  0.697435916208093  0.13594199812206398  1.0000
  O   O24       1.0  0.08196237635203821  0.4747444272992141  0.16196580352760748  1.0000
  O   O25       1.0  0.08659766839369344  0.4769848049466248  0.9210194226680244  1.0000
  O   O26       1.0  0.9134042151771666  0.5230138511571667  0.07898171851429933  1.0000
  O   O27       1.0  0.9363318633996156  0.32410612767030506  0.9689434146466948  1.0000
  O   O28       1.0  0.06366904031074919  0.6758891768699512  0.031059439687574193  1.0000
  O   O29       1.0  0.31020457943996144  0.917355432261772  0.474123075138209  1.0000
  O   O30       1.0  0.6897915434275531  0.082641226770555  0.5258735976883315  1.0000
  O   O31       1.0  0.07814558803229228  0.1596211536805896  0.4692690427002262  1.0000
  O   O32       1.0  0.9218561883690057  0.8403801817536302  0.5307304012084657  1.0000
  O   O33       1.0  0.733366591104925  0.302558752146794  0.8640565882875889  1.0000
  O   O34       1.0  0.736562209166209  0.8680151336508927  0.30549694677251443  1.0000
  O   O35       1.0  0.2634374135789698  0.1319868354914746  0.694505831242104  1.0000
  O   O36       1.0  0.43785430779749374  0.5708546827171189  0.12938018735476925  1.0000
  O   O37       1.0  0.5621483850989861  0.42914996988438503  0.8706224497506909  1.0000
  O   O38       1.0  0.5584354932175654  0.8649187628634748  0.4292121535618276  1.0000
