data_image0
_chemical_formula_structural       Zr6H46C90N10O52
_chemical_formula_sum              "Zr6 H46 C90 N10 O52"
_cell_length_a       19.068514925444177
_cell_length_b       19.054609692536626
_cell_length_c       19.082991762595018
_cell_angle_alpha    59.52675836017233
_cell_angle_beta     59.930244251365174
_cell_angle_gamma    60.07338226701453

_space_group_name_H-M_alt    "P 1"
_space_group_IT_number       1

loop_
  _space_group_symop_operation_xyz
  'x, y, z'

loop_
  _atom_site_type_symbol
  _atom_site_label
  _atom_site_symmetry_multiplicity
  _atom_site_fract_x
  _atom_site_fract_y
  _atom_site_fract_z
  _atom_site_occupancy
  Zr  Zr1       1.0  0.9055180761252756  0.40801779730700355  0.5939978348911409  1.0000
  Zr  Zr2       1.0  0.09242721169259491  0.5936862717708067  0.40838176118808184  1.0000
  Zr  Zr3       1.0  0.09066781141954999  0.4064506342374302  0.5953785436114315  1.0000
  Zr  Zr4       1.0  0.9074877743957613  0.5950815066046928  0.4067662760012142  1.0000
  Zr  Zr5       1.0  0.9065998567008718  0.5931996693350143  0.5935504378061366  1.0000
  Zr  Zr6       1.0  0.0914245823421355  0.4083934521319605  0.4087110749315385  1.0000
  H   H1        1.0  0.9245950238852456  0.42591606403640725  0.7212417770415058  1.0000
  H   H2        1.0  0.9281921355979817  0.7209385122855207  0.4262976372683838  1.0000
  H   H3        1.0  0.21821579325581544  0.4269890297134467  0.4293044659786318  1.0000
  H   H4        1.0  0.9254392434178839  0.4290110590156574  0.4272744499057096  1.0000
  H   H5        1.0  0.47026106499857406  0.5920178000073976  0.0600370481291321  1.0000
  H   H6        1.0  0.5432155487313467  0.38996515830761785  0.9569028456921913  1.0000
  H   H7        1.0  0.6554204933403155  0.6353907251740839  0.7922384278579669  1.0000
  H   H8        1.0  0.5181543115110118  0.6455091793571341  0.9146275750773895  1.0000
  H   H9        1.0  0.2787762194443745  0.4355721837265705  0.14791981377159402  1.0000
  H   H10       1.0  0.39907783398609104  0.4439424887465576  0.009033722512775446  1.0000
  H   H11       1.0  0.1096109935483581  0.9567208505699512  0.39035914000163524  1.0000
  H   H12       1.0  0.8777928161905137  0.059304143078769266  0.5930829612729837  1.0000
  H   H13       1.0  0.137564102246742  0.14775327524220225  0.4355920233442275  1.0000
  H   H14       1.0  0.14779488341740432  0.008842013543947775  0.44397039686961653  1.0000
  H   H15       1.0  0.9170850413023927  0.7916407600243929  0.6360363414989223  1.0000
  H   H16       1.0  0.9217919838308076  0.9140800534826141  0.6461443974018052  1.0000
  H   H17       1.0  0.45456722962370577  0.048568640120564124  0.3896409399141946  1.0000
  H   H18       1.0  0.5570982616254768  0.9678669340000778  0.5951674252505724  1.0000
  H   H19       1.0  0.6430875133756898  0.7814763640499934  0.4358377569755446  1.0000
  H   H20       1.0  0.5045067200191441  0.9018332625193465  0.4445224120526987  1.0000
  H   H21       1.0  0.28899485144561504  0.15200735417346317  0.6383510116865806  1.0000
  H   H22       1.0  0.41100866154054216  0.014089944853544853  0.6485268816525576  1.0000
  H   H23       1.0  0.8798579834962227  0.5948318944109233  0.9682163935927617  1.0000
  H   H24       1.0  0.1068183290571909  0.3891615184601491  0.049149236674487964  1.0000
  H   H25       1.0  0.9208616006087311  0.6382368974359738  0.15209915140162883  1.0000
  H   H26       1.0  0.92670087360046  0.6483695414996831  0.014145941249076165  1.0000
  H   H27       1.0  0.1395853181840892  0.43569422710051947  0.7816704751251322  1.0000
  H   H28       1.0  0.14913562122426074  0.4442563861170399  0.9021042444662938  1.0000
  H   H29       1.0  0.11980805450116326  0.8170422199015734  0.1721151896749191  1.0000
  H   H30       1.0  0.18670974031051174  0.9269419147615566  0.056262259695437015  1.0000
  H   H31       1.0  0.8975114222238786  0.8108115490612987  0.1730199177414776  1.0000
  H   H32       1.0  0.8913846735855913  0.17158718776029502  0.8172021653791576  1.0000
  H   H33       1.0  0.8306386352427352  0.05552940336340136  0.9269808860107956  1.0000
  H   H34       1.0  0.11897671493442626  0.1725550940840961  0.8109554461081955  1.0000
  H   H35       1.0  0.46126003079394456  0.3822913411527368  0.6042647067634732  1.0000
  H   H36       1.0  0.5519806192824959  0.6042239915188646  0.3826741528082209  1.0000
  H   H37       1.0  0.6517764386855588  0.4238244730984136  0.63621145550713  1.0000
  H   H38       1.0  0.5150301897516487  0.42855670697049675  0.6459448854668111  1.0000
  H   H39       1.0  0.2880017850475339  0.6359194378357742  0.42424052579303145  1.0000
  H   H40       1.0  0.41023658085499876  0.6457391045070366  0.4289714967710693  1.0000
  H   H41       1.0  0.24800989182595864  0.035409619235146315  0.9552735395676847  1.0000
  H   H42       1.0  0.1845223213261561  0.13548747517089765  0.8994178836441478  1.0000
  H   H43       1.0  0.25464323117665094  0.05571763503402851  0.8506624618436902  1.0000
  H   H44       1.0  0.763208311595612  0.9532435570822245  0.03379862610698574  1.0000
  H   H45       1.0  0.7787708088107903  0.9021787253928438  0.13539632421196754  1.0000
  H   H46       1.0  0.8396023417051807  0.8485581274539484  0.059482535816670144  1.0000
  C   C1        1.0  0.7584398348990999  0.5052325680385297  0.7309883565461062  1.0000
  C   C2        1.0  0.00527768976994024  0.7305834752286701  0.5057480617157069  1.0000
  C   C3        1.0  0.23118668947659418  0.5048143768476409  0.2632615921427686  1.0000
  C   C4        1.0  0.0007220971479426454  0.26285116435243344  0.5052269904001959  1.0000
  C   C5        1.0  0.0016325773664504538  0.2602515596204783  0.7331893515573569  1.0000
  C   C6        1.0  0.7598917441208922  0.5072775150298625  0.503120442502137  1.0000
  C   C7        1.0  0.004979173548804434  0.7329351966722298  0.2606660989033145  1.0000
  C   C8        1.0  0.22969118620478207  0.502767179921328  0.50754881999341  1.0000
  C   C9        1.0  0.0023016655475416046  0.5040809408353654  0.7331373928947684  1.0000
  C   C10       1.0  0.22834327947557403  0.25951403333113626  0.5071322985050983  1.0000
  C   C11       1.0  0.004912370968213354  0.5068574644425041  0.2598525678649893  1.0000
  C   C12       1.0  0.7604511558890721  0.7328224894562041  0.5043564226152029  1.0000
  C   C13       1.0  0.30583300830964766  0.5088569890769394  0.181754291014208  1.0000
  C   C14       1.0  0.6758093913673447  0.5091749595420011  0.8041326547777671  1.0000
  C   C15       1.0  0.3604131256329168  0.5533786689955917  0.15444183684026316  1.0000
  C   C16       1.0  0.42795515646265847  0.559076535514393  0.07704698164639727  1.0000
  C   C17       1.0  0.6412195760452593  0.4419842693724121  0.8508067333581194  1.0000
  C   C18       1.0  0.5654480659373322  0.44545688401642286  0.9202911204857996  1.0000
  C   C19       1.0  0.6293915751277194  0.5825107513137483  0.8286599360284226  1.0000
  C   C20       1.0  0.5531334494198888  0.5873014295809895  0.8977210499516771  1.0000
  C   C21       1.0  0.3212809967525914  0.46978245887832054  0.12760565045056887  1.0000
  C   C22       1.0  0.38910397128049107  0.4743714772881163  0.05011072992931524  1.0000
  C   C23       1.0  0.4441413466539644  0.5182522827274382  0.024014223416188005  1.0000
  C   C24       1.0  0.5206536804128775  0.5181681254183771  0.9456563025910893  1.0000
  C   C25       1.0  0.010835897188783979  0.8037217551438187  0.5097042667995735  1.0000
  C   C26       1.0  0.00352071283784741  0.1813140061909166  0.509351759703307  1.0000
  C   C27       1.0  0.06583611311629756  0.8504930717028075  0.44245744003287507  1.0000
  C   C28       1.0  0.06860159930422323  0.9200193080017415  0.44590218141652826  1.0000
  C   C29       1.0  0.9318021569003886  0.15385121511585  0.5541644847269894  1.0000
  C   C30       1.0  0.9359677919338836  0.0764588397692237  0.5598580740696518  1.0000
  C   C31       1.0  0.08122059280295699  0.1273095817483636  0.4700179643345237  1.0000
  C   C32       1.0  0.08631637586908161  0.04980831696602909  0.47460290429403784  1.0000
  C   C33       1.0  0.9594507271512069  0.8281732765563915  0.5830955703710075  1.0000
  C   C34       1.0  0.9618562024098974  0.8972315421747511  0.587901653199495  1.0000
  C   C35       1.0  0.015433671266301283  0.9452563059806066  0.5186998991274122  1.0000
  C   C36       1.0  0.013548644704286487  0.023583750169265772  0.5187837507121882  1.0000
  C   C37       1.0  0.3018499610822971  0.17703648789802173  0.5105470657510693  1.0000
  C   C38       1.0  0.6780637021446834  0.8063741913773725  0.5098221134891217  1.0000
  C   C39       1.0  0.348942230142633  0.1450484428546872  0.44221372806266146  1.0000
  C   C40       1.0  0.41786737967346  0.06886228398907696  0.4458210239693655  1.0000
  C   C41       1.0  0.6508656880115067  0.8591697544488497  0.5556687444622312  1.0000
  C   C42       1.0  0.5737677925559055  0.9267376309237463  0.561457839671796  1.0000
  C   C43       1.0  0.6233842015119108  0.8231141078052178  0.4703692677921865  1.0000
  C   C44       1.0  0.546049197895833  0.8908192046237033  0.4751994676465615  1.0000
  C   C45       1.0  0.32581924596903616  0.12783166456772935  0.5847653416953378  1.0000
  C   C46       1.0  0.3945578686869667  0.051351061197571816  0.589588192245273  1.0000
  C   C47       1.0  0.44260565747103453  0.021284202806618958  0.5195423620788873  1.0000
  C   C48       1.0  0.520568007901218  0.9445201941408926  0.519767879556241  1.0000
  C   C49       1.0  0.0056818369003082585  0.5095428493921759  0.8066878651101419  1.0000
  C   C50       1.0  0.01041751365083609  0.5102368072554951  0.1774195691140434  1.0000
  C   C51       1.0  0.9342459638089194  0.5553669385601836  0.8595038843595972  1.0000
  C   C52       1.0  0.938025237127775  0.5611716469731649  0.9270463860042139  1.0000
  C   C53       1.0  0.06345974530978536  0.4418014457563615  0.14556472314463062  1.0000
  C   C54       1.0  0.06717260267181042  0.4453997245413177  0.06935404458407393  1.0000
  C   C55       1.0  0.9616762650703093  0.5845611691685022  0.12804664573508975  1.0000
  C   C56       1.0  0.964646659177909  0.5893663219253042  0.0515444357876192  1.0000
  C   C57       1.0  0.08311193499720558  0.4701542275424232  0.8233660272603841  1.0000
  C   C58       1.0  0.08792100141861421  0.47492393444522923  0.8911057375581137  1.0000
  C   C59       1.0  0.01512554353508453  0.5194502472352197  0.9448465891461453  1.0000
  C   C60       1.0  0.016510263692111896  0.5192107207158543  0.021636098832900148  1.0000
  C   C61       1.0  0.07235262119166906  0.8442283083288374  0.14131752717462123  1.0000
  C   C62       1.0  0.0740618547834871  0.9165336151294454  0.06567877930233125  1.0000
  C   C63       1.0  0.13835981998673189  0.9559273211112755  0.025905557722616435  1.0000
  C   C64       1.0  0.945888694680313  0.8416382037317904  0.14138551420156617  1.0000
  C   C65       1.0  0.9446899681162364  0.914287344503755  0.06621610451605163  1.0000
  C   C66       1.0  0.8793335542451927  0.9523487257500707  0.027674352241447802  1.0000
  C   C67       1.0  0.9424220464885732  0.1408115348703164  0.844428605301516  1.0000
  C   C68       1.0  0.9440615905539146  0.06519566134388555  0.9167467456471596  1.0000
  C   C69       1.0  0.880230727137601  0.025315731574842626  0.9560763509605719  1.0000
  C   C70       1.0  0.07139852118044845  0.1409208692702747  0.8418457462038944  1.0000
  C   C71       1.0  0.07506891682683661  0.06584387260154043  0.9145952148789719  1.0000
  C   C72       1.0  0.1407653597362923  0.02741364729812552  0.9528316698410747  1.0000
  C   C73       1.0  0.008384583968592024  0.8076206305618214  0.17884719279076927  1.0000
  C   C74       1.0  0.009633266293341993  0.9525799544053584  0.027889835730256628  1.0000
  C   C75       1.0  0.00545763080421579  0.17836267816072393  0.8078223977268236  1.0000
  C   C76       1.0  0.010146406818748198  0.027513466598705336  0.9528808912889842  1.0000
  C   C77       1.0  0.30397513783093894  0.5057275955726582  0.5120243626626007  1.0000
  C   C78       1.0  0.6781396714494079  0.5117855303908243  0.5060940863608394  1.0000
  C   C79       1.0  0.35313403118993136  0.43612545588921137  0.5635286282099798  1.0000
  C   C80       1.0  0.4228974140238365  0.4393936355452439  0.566018414633227  1.0000
  C   C81       1.0  0.6470026942519169  0.5634096739135757  0.43653530112619876  1.0000
  C   C82       1.0  0.5714927224353232  0.5659025646283098  0.4397730648164782  1.0000
  C   C83       1.0  0.6287192527700681  0.46341061627526864  0.5813544143292332  1.0000
  C   C84       1.0  0.552537043127259  0.46583484711445083  0.5859834761542686  1.0000
  C   C85       1.0  0.32639249506684814  0.5810584631873682  0.46375278367454337  1.0000
  C   C86       1.0  0.39548827227011435  0.5857382131364516  0.46619219868502876  1.0000
  C   C87       1.0  0.44582050658250677  0.5145566207279233  0.5162715452770427  1.0000
  C   C88       1.0  0.5232506344194332  0.5160069625649442  0.5148440956226351  1.0000
  C   C89       1.0  0.21039902764876925  0.06556618518966671  0.9127049144074988  1.0000
  C   C90       1.0  0.8115847235665611  0.912236928089527  0.06609699317213842  1.0000
  N   N1        1.0  0.35398374341047384  0.5914053018177938  0.209391931588307  1.0000
  N   N2        1.0  0.6847756045521081  0.3606210583020515  0.8321447019649996  1.0000
  N   N3        1.0  0.12223155276982571  0.8319107575377274  0.3610435044065881  1.0000
  N   N4        1.0  0.845258925288661  0.20862726628137535  0.5924660119221767  1.0000
  N   N5        1.0  0.33154016197470065  0.1921156792885129  0.3594905313349556  1.0000
  N   N6        1.0  0.7055570163206252  0.8503128039879115  0.5957644528545317  1.0000
  N   N7        1.0  0.848286637192878  0.5954382363613674  0.8507337183158155  1.0000
  N   N8        1.0  0.11624809167741293  0.35895216744918196  0.1927834453062829  1.0000
  N   N9        1.0  0.33650357507999457  0.352696941710299  0.615836428437099  1.0000
  N   N10       1.0  0.6946411932177411  0.615859287353075  0.35314142142304644  1.0000
  O   O1        1.0  0.7906004804096868  0.4438720221821555  0.7026638415283841  1.0000
  O   O2        1.0  0.06280232362603035  0.7022813597774019  0.44437421672767385  1.0000
  O   O3        1.0  0.2022165267405428  0.5631376584636029  0.29455334218427254  1.0000
  O   O4        1.0  0.9400552135079037  0.294192480353445  0.5635078939281044  1.0000
  O   O5        1.0  0.05947195583409828  0.2934001726851179  0.7039294672088727  1.0000
  O   O6        1.0  0.7925764271814727  0.565392695853646  0.44135089360088403  1.0000
  O   O7        1.0  0.9433036911148633  0.7036258943654944  0.29373705205327383  1.0000
  O   O8        1.0  0.20067572177317325  0.4409960993245221  0.5656705874424475  1.0000
  O   O9        1.0  0.9415481136155887  0.5622495495277707  0.7036598729125174  1.0000
  O   O10       1.0  0.19944554717275045  0.292545179004712  0.44565695100754965  1.0000
  O   O11       1.0  0.06229911865190729  0.4453978534821488  0.2928287893369372  1.0000
  O   O12       1.0  0.7924813647776573  0.7032764525683601  0.5625708867096721  1.0000
  O   O13       1.0  0.20048113370808818  0.29025132474918547  0.5653947026657349  1.0000
  O   O14       1.0  0.9438052639379817  0.5651416816468213  0.29056994062491254  1.0000
  O   O15       1.0  0.7914095235608583  0.7054818770911454  0.4427769289408302  1.0000
  O   O16       1.0  0.06033849609170953  0.4425773537938511  0.7057058179178667  1.0000
  O   O17       1.0  0.9407279066574502  0.2933337312570786  0.7034647070706582  1.0000
  O   O18       1.0  0.20116999427466453  0.5619207464567992  0.44641437952439844  1.0000
  O   O19       1.0  0.06253355924432903  0.7031735119143506  0.2937496547824877  1.0000
  O   O20       1.0  0.7904222990022161  0.4460992461971431  0.562238198834329  1.0000
  O   O21       1.0  0.0597221605038811  0.2939502344968403  0.4444822263241619  1.0000
  O   O22       1.0  0.7904721143542727  0.5632018217463967  0.7026355881962586  1.0000
  O   O23       1.0  0.9436147237886344  0.7022437672089482  0.5636752710818485  1.0000
  O   O24       1.0  0.20179982592089368  0.4440951176656327  0.2943380854460855  1.0000
  O   O25       1.0  0.9464609272732999  0.44964626993471074  0.44785175696860346  1.0000
  O   O26       1.0  0.15598348693746536  0.44755369665094963  0.44995983321605587  1.0000
  O   O27       1.0  0.9474260117981073  0.6584305491238993  0.4486028348733483  1.0000
  O   O28       1.0  0.9455661877582601  0.4482427896409788  0.6587385790715031  1.0000
  O   O29       1.0  0.03746417998086583  0.5384562240725684  0.5402347228930324  1.0000
  O   O30       1.0  0.8838324146753609  0.5398837796972416  0.5387749528053546  1.0000
  O   O31       1.0  0.03805447714778857  0.5397257858260787  0.38565421383187737  1.0000
  O   O32       1.0  0.03654958873658381  0.38533592757399765  0.5400302134926918  1.0000
  O   O33       1.0  0.370971232352602  0.5406575460133353  0.2765672507290375  1.0000
  O   O34       1.0  0.33696364974486676  0.6704041900768872  0.18140017890815588  1.0000
  O   O35       1.0  0.7415513994644627  0.3047119130135557  0.8637834693278776  1.0000
  O   O36       1.0  0.6568726156546418  0.35322147874285986  0.7909064395424464  1.0000
  O   O37       1.0  0.08966332075033982  0.8635665142268537  0.3051812648206819  1.0000
  O   O38       1.0  0.1988005837934922  0.7907187235190634  0.3535539315770536  1.0000
  O   O39       1.0  0.8114975632342973  0.27564939938453414  0.541867256647741  1.0000
  O   O40       1.0  0.8116035058641985  0.18061829908614163  0.671512930393277  1.0000
  O   O41       1.0  0.36131775408771466  0.2513745892224506  0.30702960405719887  1.0000
  O   O42       1.0  0.293194840325718  0.16453576372285283  0.34771944820589346  1.0000
  O   O43       1.0  0.7698052832669474  0.872719998907826  0.546426077201218  1.0000
  O   O44       1.0  0.6800072965503715  0.8257951484725083  0.6753460791992651  1.0000
  O   O45       1.0  0.8109638030282724  0.5461060748854506  0.8731445714098738  1.0000
  O   O46       1.0  0.8187495453695277  0.6750254810459425  0.8262963877947129  1.0000
  O   O47       1.0  0.07939352368188687  0.30673557853884864  0.25209590472745447  1.0000
  O   O48       1.0  0.1940175190551585  0.3468284709442456  0.16526591957028805  1.0000
  O   O49       1.0  0.3646463621590783  0.3024575454631774  0.5780597283800901  1.0000
  O   O50       1.0  0.29990436764758494  0.33790659214211166  0.6943798402348803  1.0000
  O   O51       1.0  0.7544113396402992  0.5782089635373212  0.3027497744027415  1.0000
  O   O52       1.0  0.6674826259747917  0.6943805011244706  0.33851229445748743  1.0000
