data_image0
_chemical_formula_structural       Ag4H44C32Br4N4
_chemical_formula_sum              "Ag4 H44 C32 Br4 N4"
_cell_length_a       4.242879918151033
_cell_length_b       13.590135407938002
_cell_length_c       15.556537844092523
_cell_angle_alpha    89.99964053203433
_cell_angle_beta     90.00016806725266
_cell_angle_gamma    90.52069729000813

_space_group_name_H-M_alt    "P 1"
_space_group_IT_number       1

loop_
  _space_group_symop_operation_xyz
  'x, y, z'

loop_
  _atom_site_type_symbol
  _atom_site_label
  _atom_site_symmetry_multiplicity
  _atom_site_fract_x
  _atom_site_fract_y
  _atom_site_fract_z
  _atom_site_occupancy
  Ag  Ag1       1.0  0.818530148465605  0.5756271337913648  0.5612714490741127  1.0000
  Ag  Ag2       1.0  0.18147314747153595  0.9243720699814022  0.061268240101632884  1.0000
  Ag  Ag3       1.0  0.1814716633253539  0.42437092577027624  0.4387314898892072  1.0000
  Ag  Ag4       1.0  0.8185240394126723  0.0756282022552242  0.9387289135048035  1.0000
  H   H1        1.0  0.3246053871981331  0.6742679404920795  0.4709539699348539  1.0000
  H   H2        1.0  0.6753906223041639  0.8257327631514433  0.9709479788716138  1.0000
  H   H3        1.0  0.675384640582088  0.3257301318039654  0.5290483262071604  1.0000
  H   H4        1.0  0.3246112190352477  0.1742660322823966  0.029049817557293495  1.0000
  H   H5        1.0  0.004127402164499504  0.7221180429624924  0.41342677172953296  1.0000
  H   H6        1.0  0.9958703279512523  0.7778823334156827  0.9134238708079323  1.0000
  H   H7        1.0  0.9958696368486669  0.27787855000042333  0.5865716675200401  1.0000
  H   H8        1.0  0.004126858936345502  0.22211793881864858  0.0865739256150562  1.0000
  H   H9        1.0  0.366494597020413  0.7902654277987511  0.4197546159576716  1.0000
  H   H10       1.0  0.6335055861936425  0.7097356366661175  0.9197505131988634  1.0000
  H   H11       1.0  0.6335024715852599  0.20973190100649933  0.5802470373726505  1.0000
  H   H12       1.0  0.3664963143002923  0.29026463047306816  0.08024792604258117  1.0000
  H   H13       1.0  0.33514992955222317  0.9284644640210405  0.5118524801294555  1.0000
  H   H14       1.0  0.6648410908487037  0.5715358415190296  0.0118535215290905  1.0000
  H   H15       1.0  0.6648400686185383  0.07153287244415911  0.4881433878490569  1.0000
  H   H16       1.0  0.33514669842552547  0.42846517674332313  0.9881474889708528  1.0000
  H   H17       1.0  0.4203230165836942  0.04969715558782182  0.6342285536119545  1.0000
  H   H18       1.0  0.5796787249415304  0.4502997233782936  0.13423387768375505  1.0000
  H   H19       1.0  0.5796810336590212  0.9502979580442674  0.3657653859286185  1.0000
  H   H20       1.0  0.4203184323976217  0.5496998129838317  0.865769061273653  1.0000
  H   H21       1.0  0.1638642042835414  0.046474788561738506  0.7247151744386784  1.0000
  H   H22       1.0  0.8361481552313137  0.45352732034909593  0.2247187575903311  1.0000
  H   H23       1.0  0.8361470642549733  0.9535239966910041  0.2752813363609263  1.0000
  H   H24       1.0  0.1638585771915544  0.5464758850964558  0.7752841813608455  1.0000
  H   H25       1.0  0.02735435673429981  0.08969845397998454  0.6230972753012693  1.0000
  H   H26       1.0  0.9726546039845021  0.41030511959360183  0.12310056192384167  1.0000
  H   H27       1.0  0.9726571188365655  0.9103054822472105  0.37689987830083976  1.0000
  H   H28       1.0  0.0273522171548919  0.5897002934203074  0.8769004485716676  1.0000
  H   H29       1.0  0.7956498407231009  0.9069359351424213  0.7458469473471395  1.0000
  H   H30       1.0  0.2043437950427887  0.5930663773138962  0.24584750218694745  1.0000
  H   H31       1.0  0.2043404236311375  0.09306802400487871  0.2541495634298697  1.0000
  H   H32       1.0  0.7956511533591594  0.4069368408729589  0.7541528654932746  1.0000
  H   H33       1.0  0.41739925470236017  0.6775284514527018  0.682709340666406  1.0000
  H   H34       1.0  0.5826100945620426  0.8224713510194025  0.1827063687331716  1.0000
  H   H35       1.0  0.582609686650926  0.32247107217271787  0.31729488392885224  1.0000
  H   H36       1.0  0.4173965195416116  0.1775289110223426  0.8172933561432743  1.0000
  H   H37       1.0  0.7398132878229333  0.6633621191568438  0.7529487873863658  1.0000
  H   H38       1.0  0.2601896725577575  0.8366357172525128  0.2529441941388342  1.0000
  H   H39       1.0  0.2601956239513896  0.33663666861705377  0.24705479439434436  1.0000
  H   H40       1.0  0.7398170007004197  0.16336601649457805  0.7470561735501491  1.0000
  H   H41       1.0  0.47774235833740175  0.7637014009250579  0.7686614151476261  1.0000
  H   H42       1.0  0.5222583813543551  0.7362955898808822  0.26865629628370147  1.0000
  H   H43       1.0  0.522268880669614  0.23629664844400372  0.2313434522691438  1.0000
  H   H44       1.0  0.47773877596107184  0.26370394649732287  0.7313421429578425  1.0000
  C   C1        1.0  0.08920437114701231  0.7922313965879229  0.5354068393713334  1.0000
  C   C2        1.0  0.9107916703638921  0.7077702072423764  0.0354028306820666  1.0000
  C   C3        1.0  0.910790311074841  0.20776519891452955  0.4645935283269366  1.0000
  C   C4        1.0  0.08920560525379528  0.292232272551118  0.9645956085514553  1.0000
  C   C5        1.0  0.2020473497734869  0.7430210271963561  0.4554888517819293  1.0000
  C   C6        1.0  0.7979484966640058  0.7569797869652252  0.9554859071298195  1.0000
  C   C7        1.0  0.797945005215688  0.2569763067109322  0.544510230280288  1.0000
  C   C8        1.0  0.2020510174461165  0.2430197468711556  0.0445112464795727  1.0000
  C   C9        1.0  0.17809468998112976  0.8885679630984245  0.5553802066238234  1.0000
  C   C10       1.0  0.8218920166650747  0.6114305647375321  0.05538051206941929  1.0000
  C   C11       1.0  0.8218906241690291  0.11143011430884545  0.444616946983885  1.0000
  C   C12       1.0  0.17809571345802766  0.38856898181717986  0.9446204984345312  1.0000
  C   C13       1.0  0.07689901057149483  0.9325468590575245  0.6316810844876101  1.0000
  C   C14       1.0  0.9230933917279955  0.5674555334885484  0.13168106928562648  1.0000
  C   C15       1.0  0.9230958195146357  0.06745341572322873  0.3683167119344332  1.0000
  C   C16       1.0  0.07690397264011749  0.4325491538503314  0.8683218696577342  1.0000
  C   C17       1.0  0.1770503293639365  0.035089147226742105  0.6550300399255207  1.0000
  C   C18       1.0  0.8229470657765036  0.4649112674422257  0.1550329072633616  1.0000
  C   C19       1.0  0.8229491255814949  0.9649089149111777  0.3449645424216853  1.0000
  C   C20       1.0  0.1770502690092641  0.5350926840474273  0.8449687460488987  1.0000
  C   C21       1.0  0.8805898394255537  0.8767326673412943  0.6852133929971345  1.0000
  C   C22       1.0  0.1193984137581481  0.6232693477133752  0.18521050013558238  1.0000
  C   C23       1.0  0.1193979498385076  0.12326835092794403  0.31478568905315285  1.0000
  C   C24       1.0  0.8805894642427817  0.37673387811044284  0.8147905103583426  1.0000
  C   C25       1.0  0.7967960820173233  0.7805370458314305  0.6623402819363517  1.0000
  C   C26       1.0  0.20320836842100226  0.7194636431683322  0.1623362857323585  1.0000
  C   C27       1.0  0.20320817529841412  0.21946321874754907  0.33766201420534975  1.0000
  C   C28       1.0  0.7967889367858092  0.28053957246979894  0.8376647247653608  1.0000
  C   C29       1.0  0.5948065704444332  0.7184748599486286  0.7200337995679931  1.0000
  C   C30       1.0  0.4052032019750982  0.7815254116266035  0.22002898179756866  1.0000
  C   C31       1.0  0.40520469813814225  0.2815239252742502  0.2799710678467733  1.0000
  C   C32       1.0  0.5948035008586386  0.21847705797431163  0.7799713858894108  1.0000
  Br  Br1       1.0  0.3183276070992278  0.46756462964832923  0.6152257096623401  1.0000
  Br  Br2       1.0  0.6816857771529214  0.032433844136896504  0.11522247926622238  1.0000
  Br  Br3       1.0  0.6816742342639088  0.5324341657694307  0.3847765864824239  1.0000
  Br  Br4       1.0  0.3183278777694127  0.9675656744186512  0.8847753171654273  1.0000
  N   N1        1.0  0.9015030790659183  0.7389503904832112  0.5887450137797854  1.0000
  N   N2        1.0  0.0984957634011678  0.761047886177096  0.0887413485300144  1.0000
  N   N3        1.0  0.09849390081305391  0.26104473076057394  0.41125663955655506  1.0000
  N   N4        1.0  0.901506166671723  0.23895311681361878  0.9112577335259713  1.0000
