data_image0
_chemical_formula_structural       Ba4H16C24N8O20
_chemical_formula_sum              "Ba4 H16 C24 N8 O20"
_cell_length_a       7.13236271892866
_cell_length_b       9.493087173490125
_cell_length_c       12.341264607120438
_cell_angle_alpha    90.00086201689356
_cell_angle_beta     101.59045480458056
_cell_angle_gamma    89.9990474300605

_space_group_name_H-M_alt    "P 1"
_space_group_IT_number       1

loop_
  _space_group_symop_operation_xyz
  'x, y, z'

loop_
  _atom_site_type_symbol
  _atom_site_label
  _atom_site_symmetry_multiplicity
  _atom_site_fract_x
  _atom_site_fract_y
  _atom_site_fract_z
  _atom_site_occupancy
  Ba  Ba1       1.0  0.524052608445487  0.09428471506794268  0.3636506862406391  1.0000
  Ba  Ba2       1.0  0.9759400091292745  0.5942905271030412  0.6363510121000998  1.0000
  Ba  Ba3       1.0  0.4759453800526784  0.9057150073611953  0.6363479947947254  1.0000
  Ba  Ba4       1.0  0.024059404669927193  0.4057091953348717  0.363649456690652  1.0000
  H   H1        1.0  0.657054372358381  0.07228967120256871  0.1194610604923128  1.0000
  H   H2        1.0  0.842951582508057  0.5722946126925663  0.8805306062847365  1.0000
  H   H3        1.0  0.3429464786331948  0.9277089978138592  0.8805379562766048  1.0000
  H   H4        1.0  0.15705070566597354  0.42770405630047736  0.1194669584672212  1.0000
  H   H5        1.0  0.6099276333327309  0.22555451373072805  0.15889674373755008  1.0000
  H   H6        1.0  0.8900711155701015  0.7255612438666503  0.8411023147695929  1.0000
  H   H7        1.0  0.3900703551654273  0.7744452086984098  0.8411019372978145  1.0000
  H   H8        1.0  0.10992973541155487  0.2744384785478786  0.158896702004192  1.0000
  H   H9        1.0  0.8102731335917993  0.5682915002806155  0.0951537972917933  1.0000
  H   H10       1.0  0.6897228511499449  0.06830170574352931  0.9048439469797669  1.0000
  H   H11       1.0  0.18973486766780207  0.4317071687153701  0.9048476787093519  1.0000
  H   H12       1.0  0.3102751194665387  0.9317043371224611  0.09515959374331828  1.0000
  H   H13       1.0  0.6858862286224934  0.7993479065848491  0.0016442987641056804  1.0000
  H   H14       1.0  0.8141154500184767  0.29935419186450224  0.9983486555276642  1.0000
  H   H15       1.0  0.31412034438556447  0.20064865561419515  0.9983561994150065  1.0000
  H   H16       1.0  0.18588397264215217  0.700650797539801  0.0016493834581509928  1.0000
  C   C1        1.0  0.14571710605049756  0.7910544375683061  0.3978166946663748  1.0000
  C   C2        1.0  0.35428411747591326  0.29106079952399  0.6021782162777072  1.0000
  C   C3        1.0  0.8542851731926218  0.20894633824505607  0.6021832999245689  1.0000
  C   C4        1.0  0.6457152992936486  0.7089389229058868  0.3978214425699562  1.0000
  C   C5        1.0  0.009373022894798999  0.06394816312593582  0.2770201744700884  1.0000
  C   C6        1.0  0.49060953033703203  0.5639565606247815  0.7229837217131632  1.0000
  C   C7        1.0  0.9906235284209186  0.9360515593265932  0.7229799585822433  1.0000
  C   C8        1.0  0.5093884610818549  0.43604842878682604  0.2770141494034419  1.0000
  C   C9        1.0  0.0177634830295972  0.7926099752189517  0.2834114793052009  1.0000
  C   C10       1.0  0.4822219348018208  0.2926212136250257  0.7165905088433531  1.0000
  C   C11       1.0  0.982233059375055  0.20738974725770024  0.7165910835763967  1.0000
  C   C12       1.0  0.5177774700565436  0.7073816690313137  0.28341238979125183  1.0000
  C   C13       1.0  0.955404583978371  0.9197518764014065  0.22939168578063365  1.0000
  C   C14       1.0  0.5445804804355062  0.4197559747091405  0.7706096114151961  1.0000
  C   C15       1.0  0.0445919584461336  0.08024573927903593  0.7706108770912294  1.0000
  C   C16       1.0  0.4554189393044011  0.5802437477127  0.2293892374893858  1.0000
  C   C17       1.0  0.8503024175838687  0.6701436417910787  0.13385974746454818  1.0000
  C   C18       1.0  0.6496873628608597  0.17014936862142355  0.8661360042091102  1.0000
  C   C19       1.0  0.1496984245065747  0.32985397385137116  0.866141699128768  1.0000
  C   C20       1.0  0.3503134791898787  0.8298524606134308  0.13386544240366757  1.0000
  C   C21       1.0  0.7848648431783687  0.7964185789600791  0.0816792793409249  1.0000
  C   C22       1.0  0.7151340103867625  0.2964224125179414  0.9183181717999531  1.0000
  C   C23       1.0  0.2151359989120749  0.20357903668237043  0.9183221672523986  1.0000
  C   C24       1.0  0.2848668316639759  0.703579416716913  0.08168327481282489  1.0000
  N   N1        1.0  0.9622261011629049  0.668687093325403  0.235070724602636  1.0000
  N   N2        1.0  0.5377622576541796  0.16869432479136046  0.7649297054124132  1.0000
  N   N3        1.0  0.0377718754637755  0.33131157573779285  0.7649311962002159  1.0000
  N   N4        1.0  0.46223714423383194  0.8313085578730155  0.2350740031652805  1.0000
  N   N5        1.0  0.8352347612632156  0.9209641077095438  0.13015326160521568  1.0000
  N   N6        1.0  0.6647603256860677  0.42097287929851035  0.8698419324068708  1.0000
  N   N7        1.0  0.1647632153733838  0.07903350795555752  0.8698486591927761  1.0000
  N   N8        1.0  0.3352419565274047  0.5790278965068154  0.1301572522409913  1.0000
  O   O1        1.0  0.23839996943324585  0.9033369005420581  0.4267656397879519  1.0000
  O   O2        1.0  0.2615919637712877  0.403363865174896  0.5732343287735944  1.0000
  O   O3        1.0  0.7615980220154197  0.09666492867524573  0.5732322313140585  1.0000
  O   O4        1.0  0.7384131720245364  0.5966358572418431  0.4267676214370795  1.0000
  O   O5        1.0  0.5516878077513566  0.1342471213944805  0.13231608394912084  1.0000
  O   O6        1.0  0.9483155215128388  0.6342483812056872  0.8676832767617596  1.0000
  O   O7        1.0  0.4483130462205054  0.8657504942158031  0.8676821228718409  1.0000
  O   O8        1.0  0.05168676071055961  0.3657513412015377  0.13231590788123526  1.0000
  O   O9        1.0  0.15126445659613103  0.1238779643436843  0.24794863694685887  1.0000
  O   O10       1.0  0.3487141106618806  0.6238845021381253  0.7520538572050626  1.0000
  O   O11       1.0  0.8487320977296374  0.8761175445083967  0.7520506861429295  1.0000
  O   O12       1.0  0.6512810272242858  0.3761162736715705  0.2479412483244019  1.0000
  O   O13       1.0  0.9008932770863253  0.11910644258246356  0.3342643612534673  1.0000
  O   O14       1.0  0.5990931358347281  0.6191133453557286  0.6657401346786571  1.0000
  O   O15       1.0  0.09910328310074588  0.8808974934383472  0.6657333419890676  1.0000
  O   O16       1.0  0.40090628985581833  0.38088532365192423  0.3342570943348804  1.0000
  O   O17       1.0  0.15152416640842148  0.6793779131240498  0.4548667081705062  1.0000
  O   O18       1.0  0.3484805840564745  0.17939164501010654  0.5451297688936235  1.0000
  O   O19       1.0  0.8484909999610293  0.32062180920939193  0.5451331773522837  1.0000
  O   O20       1.0  0.6515173925900584  0.8206049172568868  0.45487215189949376  1.0000
