data_image0
_chemical_formula_structural       Zn4H24C24S24N16
_chemical_formula_sum              "Zn4 H24 C24 S24 N16"
_cell_length_a       8.665186945373792
_cell_length_b       13.331501275742275
_cell_length_c       13.32308226489363
_cell_angle_alpha    83.94739014255178
_cell_angle_beta     71.04637230151205
_cell_angle_gamma    71.03114594714215

_space_group_name_H-M_alt    "P 1"
_space_group_IT_number       1

loop_
  _space_group_symop_operation_xyz
  'x, y, z'

loop_
  _atom_site_type_symbol
  _atom_site_label
  _atom_site_symmetry_multiplicity
  _atom_site_fract_x
  _atom_site_fract_y
  _atom_site_fract_z
  _atom_site_occupancy
  Zn  Zn1       1.0  0.9999451154288008  0.9999687001816541  0.9999384763825959  1.0000
  Zn  Zn2       1.0  0.4999418785127574  1.619590759819676e-05  0.9999420078272223  1.0000
  Zn  Zn3       1.0  0.2500892270311612  0.4999655012423431  0.5000032126499363  1.0000
  Zn  Zn4       1.0  0.7500058710053424  0.5000875148809386  0.5000868867659207  1.0000
  H   H1        1.0  0.9125862791028679  0.3910869684323544  0.1108371701946353  1.0000
  H   H2        1.0  0.6961199115975554  0.8892876513195561  0.3908749853221707  1.0000
  H   H3        1.0  0.4146204241201587  0.6088819853712408  0.8892191868130652  1.0000
  H   H4        1.0  0.9763717455386783  0.11100107288747559  0.6088359786027127  1.0000
  H   H5        1.0  0.8040816797026407  0.3309354911173656  0.22787711603123026  1.0000
  H   H6        1.0  0.8650542954620094  0.7723639535231257  0.3307515370459342  1.0000
  H   H7        1.0  0.3623243907614224  0.6689565123159441  0.7723032330996418  1.0000
  H   H8        1.0  0.9681610206363302  0.22797803797941918  0.6689536758500266  1.0000
  H   H9        1.0  0.7659288023576921  0.4712316505982627  0.223762213865264  1.0000
  H   H10       1.0  0.7625724138979634  0.7764289285237069  0.4710902250317304  1.0000
  H   H11       1.0  0.46059936600677537  0.5286695880958944  0.7763909555276028  1.0000
  H   H12       1.0  0.010317928737890631  0.22379252644758196  0.5285747878301876  1.0000
  H   H13       1.0  0.16834296193857742  0.8136379039730316  0.7011461407885662  1.0000
  H   H14       1.0  0.01787835027221247  0.29906690091564775  0.8138978644449041  1.0000
  H   H15       1.0  0.6828141301009225  0.1863299011481061  0.2988688370126269  1.0000
  H   H16       1.0  0.13117977372063888  0.7008825407586842  0.18584681848076912  1.0000
  H   H17       1.0  0.05319022567858416  0.9530651133878861  0.7085703324099981  1.0000
  H   H18       1.0  0.9939544350389796  0.2914093260784655  0.9533355149997008  1.0000
  H   H19       1.0  0.7145753056959377  0.04692445295559366  0.2913193185661028  1.0000
  H   H20       1.0  0.23923875966509203  0.7085406914548927  0.046440824894062906  1.0000
  H   H21       1.0  0.08626579807386046  0.8764324459365795  0.5952233313727432  1.0000
  H   H22       1.0  0.03753419752329972  0.40474193112346774  0.8768115348093489  1.0000
  H   H23       1.0  0.5576411011331928  0.1234791662732704  0.4046796805423298  1.0000
  H   H24       1.0  0.3194429189017641  0.5951692150160143  0.1230166231689722  1.0000
  C   C1        1.0  0.6955020314949039  0.1633616469593946  0.9544988556869284  1.0000
  C   C2        1.0  0.1410346206902702  0.04542571521541561  0.16340347401671101  1.0000
  C   C3        1.0  0.8133690698345151  0.8366345798089584  0.045525353288347496  1.0000
  C   C4        1.0  0.34985515360722963  0.9544800963700839  0.8364833736201547  1.0000
  C   C5        1.0  0.6711440246625955  0.30620986540259315  0.0627571918525049  1.0000
  C   C6        1.0  0.022517120088117536  0.9373059060731495  0.3063559968845411  1.0000
  C   C7        1.0  0.040042007328736334  0.693613403877997  0.9375069484340982  1.0000
  C   C8        1.0  0.2660752884513968  0.0627322258032805  0.6935759669692486  1.0000
  C   C9        1.0  0.793593959602745  0.40109924095795463  0.17679008483401054  1.0000
  C   C10       1.0  0.8051163613563334  0.8233916374739036  0.40098799661599566  1.0000
  C   C11       1.0  0.37126099678001623  0.5987885753732058  0.8234027420943663  1.0000
  C   C12       1.0  0.029589793636631456  0.17687367852161634  0.5987548453049812  1.0000
  C   C13       1.0  0.8932210416033686  0.5616544960385426  0.6595715748706751  1.0000
  C   C14       1.0  0.5453526557992915  0.34060399950735853  0.5617938177102744  1.0000
  C   C15       1.0  0.11410080542140809  0.43835997893237544  0.34051081433353403  1.0000
  C   C16       1.0  0.4474001428533541  0.6594980886412003  0.4385142972894017  1.0000
  C   C17       1.0  0.8971615877353826  0.7333178732059481  0.7021321787662558  1.0000
  C   C18       1.0  0.36964054421765274  0.2978682907939572  0.7333814804880348  1.0000
  C   C19       1.0  0.3323507449483289  0.2667356038806263  0.2977777826974446  1.0000
  C   C20       1.0  0.4008775225102283  0.7021044993265732  0.2667696732351459  1.0000
  C   C21       1.0  0.06406472806386146  0.8758615539553747  0.680969632677659  1.0000
  C   C22       1.0  0.06017249224004216  0.3190645060128717  0.8761219232087782  1.0000
  C   C23       1.0  0.6206134816111445  0.1241015059435  0.31895504708803907  1.0000
  C   C24       1.0  0.2557592647093756  0.680848471388643  0.12370993305005837  1.0000
  S   S1        1.0  0.682662827434285  0.07935320287764813  0.8708240021032907  1.0000
  S   S2        1.0  0.23780852549258918  0.1290715790570047  0.07940148136159311  1.0000
  S   S3        1.0  0.6329202908692438  0.920666297611291  0.1291299175631764  1.0000
  S   S4        1.0  0.4464258977936312  0.8708851915472026  0.9204945626813839  1.0000
  S   S5        1.0  0.5603962867024775  0.2934142380457203  0.9793642970806999  1.0000
  S   S6        1.0  0.1461160352026099  0.0206053212809607  0.2935204883057168  1.0000
  S   S7        1.0  0.8331574521376337  0.7065317827011557  0.020871317246552196  1.0000
  S   S8        1.0  0.4601093302934839  0.9793630511794831  0.7063914694287802  1.0000
  S   S9        1.0  0.6143859921447259  0.42508776953794586  0.1272405587269247  1.0000
  S   S10       1.0  0.9599933835799914  0.8730152972708823  0.4253144545260241  1.0000
  S   S11       1.0  0.16668446911604204  0.5746454441522886  0.8732938084327486  1.0000
  S   S12       1.0  0.25831488288800847  0.1272002974619824  0.5746852116348222  1.0000
  S   S13       1.0  0.8510542558090181  0.44752520395113765  0.6468184037302362  1.0000
  S   S14       1.0  0.7016346992190281  0.35332845652833106  0.44761876383008575  1.0000
  S   S15       1.0  0.9451078015764266  0.5525102564922478  0.3532465887419107  1.0000
  S   S16       1.0  0.5024162675591695  0.6467957307866572  0.5527169648350921  1.0000
  S   S17       1.0  0.7514389015006485  0.6620481715716268  0.7494674603101713  1.0000
  S   S18       1.0  0.586703852690185  0.25067463024944914  0.6621647017364297  1.0000
  S   S19       1.0  0.1625303422422847  0.3380161773566641  0.2505461296322338  1.0000
  S   S20       1.0  0.4990602640575687  0.7494694921935833  0.33820503471038416  1.0000
  S   S21       1.0  0.8606687088305024  0.8560468151845982  0.7525878546448012  1.0000
  S   S22       1.0  0.2834083785189348  0.24729128162881153  0.8560617902576625  1.0000
  S   S23       1.0  0.4690497363392439  0.1440436463167671  0.2472196672104658  1.0000
  S   S24       1.0  0.38706585275566124  0.7525798597142314  0.1439664167741483  1.0000
  N   N1        1.0  0.809142035067289  0.140143072116139  0.0075427919827575  1.0000
  N   N2        1.0  0.05067216522338224  0.9923693421034514  0.1401659489144649  1.0000
  N   N3        1.0  0.9568315046633841  0.8597948336404854  0.9924282174436244  1.0000
  N   N4        1.0  0.18319075627249493  0.007522075834394578  0.859711399022963  1.0000
  N   N5        1.0  0.7962632978151944  0.22008829208963476  0.0693361240042378  1.0000
  N   N6        1.0  0.9835821690156265  0.9306797923900448  0.2201609334820418  1.0000
  N   N7        1.0  0.08563026053879957  0.7797630591578155  0.9307776449693462  1.0000
  N   N8        1.0  0.13435416893634772  0.06931182191898701  0.7797474677940883  1.0000
  N   N9        1.0  0.03641829269879787  0.6839698254544189  0.6270842732995376  1.0000
  N   N10       1.0  0.2797109483847962  0.3729059127714294  0.6840140748489105  1.0000
  N   N11       1.0  0.34735746605698375  0.31604187517481114  0.3728207201281037  1.0000
  N   N12       1.0  0.33681592440384367  0.6269953183417272  0.3160279082632513  1.0000
  N   N13       1.0  0.03324087183775488  0.5873745862487284  0.604285126521397  1.0000
  N   N14       1.0  0.3795600199345159  0.395803137707425  0.5874589353292308  1.0000
  N   N15       1.0  0.22473349786687888  0.4126177116239589  0.3957266127640936  1.0000
  N   N16       1.0  0.3627884213026249  0.6041703069327725  0.41270647433857016  1.0000
