data_image0
_chemical_formula_structural       V2Cd2P2H36C30N6O20
_chemical_formula_sum              "V2 Cd2 P2 H36 C30 N6 O20"
_cell_length_a       10.00560767822822
_cell_length_b       11.719470294074952
_cell_length_c       12.307068028818373
_cell_angle_alpha    107.66789604176964
_cell_angle_beta     113.2214729817049
_cell_angle_gamma    101.36704108958585

_space_group_name_H-M_alt    "P 1"
_space_group_IT_number       1

loop_
  _space_group_symop_operation_xyz
  'x, y, z'

loop_
  _atom_site_type_symbol
  _atom_site_label
  _atom_site_symmetry_multiplicity
  _atom_site_fract_x
  _atom_site_fract_y
  _atom_site_fract_z
  _atom_site_occupancy
  V   V1        1.0  0.5408377401637949  0.16511338774932938  0.22029990327267515  1.0000
  V   V2        1.0  0.4591623600801569  0.8348838016079084  0.7797033321227573  1.0000
  Cd  Cd1       1.0  0.0546589604906131  0.29985044514994286  0.2482166285657428  1.0000
  Cd  Cd2       1.0  0.9453399377311412  0.7001515086502081  0.7517827084689018  1.0000
  P   P1        1.0  0.6754772006069345  0.12142930850578176  0.023579989969221136  1.0000
  P   P2        1.0  0.32451785471047145  0.8785639677026961  0.9764115944350565  1.0000
  H   H1        1.0  0.3774265816604867  0.35070459570054163  0.39677611476364666  1.0000
  H   H2        1.0  0.6225699538625379  0.6492944701961463  0.6032208385389313  1.0000
  H   H3        1.0  0.3329121233443785  0.39475602829202205  0.5097573979372142  1.0000
  H   H4        1.0  0.6670872776889566  0.6052420957953045  0.4902426321215501  1.0000
  H   H5        1.0  0.07815870643738525  0.38485970688062576  0.5080442236056585  1.0000
  H   H6        1.0  0.9218430658100941  0.6151413116349431  0.49195900731204034  1.0000
  H   H7        1.0  0.8958400763109182  0.34894113604620697  0.40160526631977683  1.0000
  H   H8        1.0  0.10416125664715992  0.6510589088678244  0.5983959229001812  1.0000
  H   H9        1.0  0.9900136905537662  0.9196085804733084  0.403061768461292  1.0000
  H   H10       1.0  0.009988469890671994  0.08039337249510939  0.5969386013929283  1.0000
  H   H11       1.0  0.9828415031436887  0.12865513286181596  0.3882757544649991  1.0000
  H   H12       1.0  0.017160665816156495  0.871346826631388  0.6117254325160887  1.0000
  H   H13       1.0  0.1222261020294511  0.05569955757434292  0.10683873197405093  1.0000
  H   H14       1.0  0.8777716917539277  0.9443023834534895  0.8931586265336688  1.0000
  H   H15       1.0  0.12500953604887133  0.8447775522294233  0.10194989268229886  1.0000
  H   H16       1.0  0.8749919507311859  0.15522535504343438  0.8980497232158556  1.0000
  H   H17       1.0  0.21076404505301125  0.8134457329073326  0.4668722011824613  1.0000
  H   H18       1.0  0.7892389513931946  0.18655813464025778  0.5331281664328955  1.0000
  H   H19       1.0  0.20695800816444887  0.5987297239899474  0.4569897679972996  1.0000
  H   H20       1.0  0.7930398111651513  0.4012722366122289  0.54301004189103  1.0000
  H   H21       1.0  0.9208516285913009  0.4212314463079068  0.05618669181242108  1.0000
  H   H22       1.0  0.07914702674007401  0.5787724288734282  0.9438131158370383  1.0000
  H   H23       1.0  0.9215960204546079  0.6328656961361501  0.0458304664336566  1.0000
  H   H24       1.0  0.0784050355514481  0.36713624405994943  0.9541679248936321  1.0000
  H   H25       1.0  0.2538281447009538  0.15111825986418378  0.9464071342410706  1.0000
  H   H26       1.0  0.7461688726885144  0.848881812257936  0.053595946393606715  1.0000
  H   H27       1.0  0.3020960388809115  0.3155943332878053  0.9744070139489056  1.0000
  H   H28       1.0  0.6979042322158335  0.6844057314778098  0.025596282378472796  1.0000
  H   H29       1.0  0.5469016432421865  0.45733824358099157  0.10582582567788977  1.0000
  H   H30       1.0  0.4530984570017651  0.542658945776246  0.8941774097175427  1.0000
  H   H31       1.0  0.6950304014129927  0.3981818676946034  0.10016481186524834  1.0000
  H   H32       1.0  0.3049703299182909  0.6018143347342927  0.8998350918518839  1.0000
  H   H33       1.0  0.5356104111305554  0.22537992698411805  0.8951751793667528  1.0000
  H   H34       1.0  0.4643868150876642  0.7746181976576876  0.10482416214562561  1.0000
  H   H35       1.0  0.40882823062499796  0.08943375767201188  0.8884029518351685  1.0000
  H   H36       1.0  0.5911674859270732  0.9105634066950683  0.11159563796002196  1.0000
  C   C1        1.0  0.020836940920098444  0.9473817006117285  0.3367108436745667  1.0000
  C   C2        1.0  0.9791667377058956  0.05262121915620809  0.6632910950237163  1.0000
  C   C3        1.0  0.016533453987541694  0.06280373783584277  0.32942402376227886  1.0000
  C   C4        1.0  0.9834702161230451  0.9371991754073146  0.6705770978091294  1.0000
  C   C5        1.0  0.091144490356335  0.022233573764346194  0.17001570600319846  1.0000
  C   C6        1.0  0.9088571843073296  0.9777722219664609  0.8299856050806511  1.0000
  C   C7        1.0  0.09414453239656247  0.9038682001512085  0.16872974085277556  1.0000
  C   C8        1.0  0.9058580332756422  0.0961347003196309  0.8312694021917012  1.0000
  C   C9        1.0  0.05981949863670617  0.8652223904606371  0.2546614834952763  1.0000
  C   C10       1.0  0.940182653292318  0.13477955598300176  0.7453380692320691  1.0000
  C   C11       1.0  0.06205038567572525  0.7401988389676999  0.2562352703034421  1.0000
  C   C12       1.0  0.9379521799964791  0.2598040615031394  0.7437638727410346  1.0000
  C   C13       1.0  0.1423278407633788  0.729848996452901  0.3729048553553582  1.0000
  C   C14       1.0  0.8576736375012642  0.2701539042951778  0.6270939434159359  1.0000
  C   C15       1.0  0.1413672309356784  0.6095109708340658  0.36829207516309037  1.0000
  C   C16       1.0  0.8586320810292493  0.3904919369932784  0.6317068521886855  1.0000
  C   C17       1.0  0.9842368850205573  0.5115573633574897  0.14382368449833655  1.0000
  C   C18       1.0  0.015763953641339836  0.48844651779414483  0.8561776288243763  1.0000
  C   C19       1.0  0.9836834625199556  0.6283190832575868  0.1390250649191173  1.0000
  C   C20       1.0  0.0163191031522487  0.37168381721325255  0.8609740781253594  1.0000
  C   C21       1.0  0.2983435422317058  0.2732175375374553  0.1325527383465541  1.0000
  C   C22       1.0  0.7016586778205962  0.7267844611044366  0.8674533513957529  1.0000
  C   C23       1.0  0.33263746458742816  0.24932143233445456  0.01908905986782366  1.0000
  C   C24       1.0  0.6673627894784957  0.7506786193816024  0.9809126022058126  1.0000
  C   C25       1.0  0.604082732090248  0.3902203430450583  0.1294084751544986  1.0000
  C   C26       1.0  0.395918438530444  0.6097768329853678  0.8705934702603814  1.0000
  C   C27       1.0  0.6929276566394548  0.43712504433850075  0.27724258459689105  1.0000
  C   C28       1.0  0.30707115128250007  0.5628692437884693  0.7227569770859219  1.0000
  C   C29       1.0  0.5143489068925432  0.17583493436823258  0.9533086653910774  1.0000
  C   C30       1.0  0.485647888551675  0.8241622231968218  0.046689451550427814  1.0000
  N   N1        1.0  0.0526813488807036  0.10048368768620011  0.24810823150441053  1.0000
  N   N2        1.0  0.9473190675226133  0.8995192329134621  0.7518926743743038  1.0000
  N   N3        1.0  0.0614522720203681  0.5019671225044035  0.25635172578913773  1.0000
  N   N4        1.0  0.9385459610524123  0.4980357921249662  0.7436476744163232  1.0000
  N   N5        1.0  0.4935371155673138  0.25684168481672026  0.05901932777062056  1.0000
  N   N6        1.0  0.5064611980584602  0.7431564395478533  0.9409803580149545  1.0000
  O   O1        1.0  0.3850185876646819  0.2524208829541904  0.22878581050655103  1.0000
  O   O2        1.0  0.6149773252864106  0.7475791763956108  0.7712152916011945  1.0000
  O   O3        1.0  0.18438536921898668  0.3072325996509021  0.1237132814781532  1.0000
  O   O4        1.0  0.8156122242510547  0.6927712953820233  0.8762886332787333  1.0000
  O   O5        1.0  0.7007152210566404  0.35059060864082875  0.32165561378688773  1.0000
  O   O6        1.0  0.2992862009698455  0.6494046525331924  0.6783466781400522  1.0000
  O   O7        1.0  0.7604528649177953  0.5557968350660545  0.3468537268416726  1.0000
  O   O8        1.0  0.2395491417046571  0.4442022555435514  0.6531482163343372  1.0000
  O   O9        1.0  0.6737914891055395  0.11405064254210369  0.1468456663533857  1.0000
  O   O10       1.0  0.3262072932701868  0.8859436260105227  0.8531514439488179  1.0000
  O   O11       1.0  0.8269860476010109  0.22030672759446893  0.05773295810705287  1.0000
  O   O12       1.0  0.1730116303363402  0.7796875281858388  0.942262173668219  1.0000
  O   O13       1.0  0.6433382942697462  0.9874153514397572  0.9242866040858643  1.0000
  O   O14       1.0  0.3566567230717083  0.012582747657411596  0.0757087803726506  1.0000
  O   O15       1.0  0.5859965850845227  0.12828733196140257  0.34272859043207404  1.0000
  O   O16       1.0  0.4140096723529679  0.8717040853412709  0.6572741373579944  1.0000
  O   O17       1.0  0.32050259509332335  0.3989428424425369  0.4284427010284945  1.0000
  O   O18       1.0  0.6794976504572005  0.6010572027487413  0.5715581439182743  1.0000
  O   O19       1.0  0.9923898504207781  0.33172822214283565  0.41613040126171796  1.0000
  O   O20       1.0  0.007607960393414723  0.6682737319345547  0.5838685914997442  1.0000
