data_image0
_chemical_formula_structural       Hg2H48C56I4N8O6
_chemical_formula_sum              "Hg2 H48 C56 I4 N8 O6"
_cell_length_a       8.747001420947836
_cell_length_b       13.130018072281825
_cell_length_c       13.076492575172477
_cell_angle_alpha    95.78257567234485
_cell_angle_beta     99.74498869277107
_cell_angle_gamma    96.40313190099909

_space_group_name_H-M_alt    "P 1"
_space_group_IT_number       1

loop_
  _space_group_symop_operation_xyz
  'x, y, z'

loop_
  _atom_site_type_symbol
  _atom_site_label
  _atom_site_symmetry_multiplicity
  _atom_site_fract_x
  _atom_site_fract_y
  _atom_site_fract_z
  _atom_site_occupancy
  Hg  Hg1       1.0  0.4462480245998108  0.36869884304562106  0.35802189532230944  1.0000
  Hg  Hg2       1.0  0.5537570709035221  0.6313006646643726  0.6419782495225234  1.0000
  H   H1        1.0  0.8135850090364158  0.4321162653054244  0.4500332915519463  1.0000
  H   H2        1.0  0.18642488314863206  0.5678840024773918  0.5499636502560817  1.0000
  H   H3        1.0  0.029960232057845804  0.42288068234104514  0.6002820920003556  1.0000
  H   H4        1.0  0.9700476199061684  0.5771265428145965  0.39971915490371396  1.0000
  H   H5        1.0  0.6885366016721265  0.2581869109341213  0.7467285579635571  1.0000
  H   H6        1.0  0.3114702922225803  0.7418156849927866  0.253269047644352  1.0000
  H   H7        1.0  0.48425271929096425  0.2779801755462046  0.5922021006292651  1.0000
  H   H8        1.0  0.5157563333050986  0.7220216417011471  0.4077941400755804  1.0000
  H   H9        1.0  0.11744960527026652  0.36134362971815653  0.7653339306077029  1.0000
  H   H10       1.0  0.8825548099693279  0.6386581949246662  0.23466943339707305  1.0000
  H   H11       1.0  0.9794253351376981  0.37724795701350905  0.8485094441740983  1.0000
  H   H12       1.0  0.02057772079621151  0.6227585155828309  0.1514888887567594  1.0000
  H   H13       1.0  0.1545898148644937  0.2563007926277407  0.6456088431119935  1.0000
  H   H14       1.0  0.8454081245968581  0.7437033718105185  0.35439555709696435  1.0000
  H   H15       1.0  0.23293903446887748  0.11680865859661788  0.5367543189624511  1.0000
  H   H16       1.0  0.7670597037365211  0.8831993676020815  0.46324980227955587  1.0000
  H   H17       1.0  0.027805904821398945  0.8932507352684949  0.7091917663216022  1.0000
  H   H18       1.0  0.9721840812386233  0.10675424010383237  0.2908041695721407  1.0000
  H   H19       1.0  0.2046440917568191  0.9307954213551922  0.47273397230834735  1.0000
  H   H20       1.0  0.7953522099416618  0.06920643736150109  0.5272646533806125  1.0000
  H   H21       1.0  0.09772298337360749  0.8393157382322867  0.5337326868501221  1.0000
  H   H22       1.0  0.9022747968439402  0.1606876596768672  0.46626702846946694  1.0000
  H   H23       1.0  0.2963481147957125  0.8835633213938932  0.5870969680752863  1.0000
  H   H24       1.0  0.7036466671314868  0.11644240465935238  0.4129034110441763  1.0000
  H   H25       1.0  0.8891140289451371  0.739369353075524  0.8563372553578006  1.0000
  H   H26       1.0  0.1108839518498712  0.2606294057729102  0.143663537163782  1.0000
  H   H27       1.0  0.6299621052089961  0.54543461380144  0.03074031385433776  1.0000
  H   H28       1.0  0.37002828249466546  0.45456108908458487  0.9692531886858899  1.0000
  H   H29       1.0  0.5401037988487402  0.6970248697904534  0.11552997924538737  1.0000
  H   H30       1.0  0.4598889067186178  0.3029708200059389  0.8844676079074034  1.0000
  H   H31       1.0  0.828964124230872  0.5442420378627302  0.8047251426203842  1.0000
  H   H32       1.0  0.17104197067542512  0.4557566934861725  0.1952750358332338  1.0000
  H   H33       1.0  0.751042231344961  0.4671088463200022  0.8927692892689548  1.0000
  H   H34       1.0  0.24896354409629132  0.5328883407004026  0.10723069492095046  1.0000
  H   H35       1.0  0.9460164793281933  0.5320285509490716  0.926123103949102  1.0000
  H   H36       1.0  0.053984777888530296  0.4679748296735937  0.0738808267236877  1.0000
  H   H37       1.0  0.5834940761669358  0.8463239379681153  0.22062013130111768  1.0000
  H   H38       1.0  0.4165059032710943  0.15367326627975328  0.7793822576905496  1.0000
  H   H39       1.0  0.4102569830139302  0.8493400597998146  0.12493828930426783  1.0000
  H   H40       1.0  0.5897431559937091  0.15065791473391948  0.8750657260717603  1.0000
  H   H41       1.0  0.6598775161219878  0.07384131319574289  0.10595064968219249  1.0000
  H   H42       1.0  0.3401229425950518  0.926158208484061  0.8940512660788043  1.0000
  H   H43       1.0  0.626308322857355  0.25108955610918565  0.18681920000095428  1.0000
  H   H44       1.0  0.373689817425813  0.7489099720859256  0.8131839835312461  1.0000
  H   H45       1.0  0.34403503009038167  0.12807875370474872  0.37997089702081144  1.0000
  H   H46       1.0  0.6559649493476485  0.87191845054312  0.6200314919708559  1.0000
  H   H47       1.0  0.37224395461262816  0.9471928348361799  0.31282485108282987  1.0000
  H   H48       1.0  0.6277596621272822  0.052805130863781385  0.6871764980101458  1.0000
  C   C1        1.0  0.7910380419023537  0.39475617843136485  0.5179000097641547  1.0000
  C   C2        1.0  0.2089708508797372  0.6052448657125495  0.4820968984350883  1.0000
  C   C3        1.0  0.910625907850381  0.3893094222819257  0.6014981497274334  1.0000
  C   C4        1.0  0.0893813054279065  0.6106947170342919  0.3985004147704457  1.0000
  C   C5        1.0  0.8758347112427458  0.33957480837375437  0.6856746331767879  1.0000
  C   C6        1.0  0.12417250203554177  0.6604293309424634  0.3143239313210913  1.0000
  C   C7        1.0  0.7203322909113795  0.29751374681032416  0.6823183513782778  1.0000
  C   C8        1.0  0.2796766019521613  0.7024872982727783  0.3176777921947077  1.0000
  C   C9        1.0  0.607346362823712  0.30735530363203617  0.5966403773431708  1.0000
  C   C10       1.0  0.3926626897723438  0.6926465136153154  0.4033558633616677  1.0000
  C   C11       1.0  0.0005846106150641838  0.33165090016038323  0.7784387291227048  1.0000
  C   C12       1.0  0.9994192847449384  0.6683540210930444  0.22156183416384312  1.0000
  C   C13       1.0  0.04467989289939571  0.15561239273159092  0.7417652219228187  1.0000
  C   C14       1.0  0.9553165682872375  0.8443902353317797  0.2582357947767662  1.0000
  C   C15       1.0  0.1272118284455885  0.17730592941988013  0.6620359206727287  1.0000
  C   C16       1.0  0.8727859514461471  0.8226974647325136  0.3379668531518688  1.0000
  C   C17       1.0  0.1727188254383591  0.09724378857682581  0.6002105862752529  1.0000
  C   C18       1.0  0.8272757967563251  0.9027611653121711  0.39978969571235706  1.0000
  C   C19       1.0  0.13817240108301124  0.9937670611381791  0.6152963355799344  1.0000
  C   C20       1.0  0.8618233804100583  0.0062378904323523  0.38470254789581293  1.0000
  C   C21       1.0  0.05700138733171656  0.9730333156351846  0.6956335078605418  1.0000
  C   C22       1.0  0.942989438480197  0.02697011215099109  0.30436159988388306  1.0000
  C   C23       1.0  0.009238103103918097  0.05154519817998698  0.7595474448360163  1.0000
  C   C24       1.0  0.9907568797265537  0.9484558925692994  0.24045095298043853  1.0000
  C   C25       1.0  0.18678372133175702  0.9074957230798473  0.5486119549907329  1.0000
  C   C26       1.0  0.8132099015414198  0.09251000810943569  0.4513875287618275  1.0000
  C   C27       1.0  0.9237891351396925  0.0238384798327758  0.8406629529813188  1.0000
  C   C28       1.0  0.07620452874132866  0.9761618420099153  0.15933598158888168  1.0000
  C   C29       1.0  0.8138424253663031  0.9185347482102056  0.9316918595694688  1.0000
  C   C30       1.0  0.18615307758812347  0.0814632487460472  0.06830704508644908  1.0000
  C   C31       1.0  0.7640835448163372  0.8183149151015812  0.9609806132544064  1.0000
  C   C32       1.0  0.23591163883595806  0.1816815394045576  0.03901656788529099  1.0000
  C   C33       1.0  0.8133043703296537  0.7298899383923613  0.9137386642668516  1.0000
  C   C34       1.0  0.18669113262477308  0.27010805856389186  0.08626024038906617  1.0000
  C   C35       1.0  0.7677555240819061  0.6312014238451055  0.9377522985491422  1.0000
  C   C36       1.0  0.23223650162897508  0.36879658758006434  0.062244684632325686  1.0000
  C   C37       1.0  0.66826253141636  0.6216563226909811  0.010572927743801577  1.0000
  C   C38       1.0  0.33172801577545385  0.3783401495417279  0.9894229658070441  1.0000
  C   C39       1.0  0.6169011800733128  0.707717779258587  0.05899242861239169  1.0000
  C   C40       1.0  0.383090366521472  0.29227791661302394  0.9410034985472391  1.0000
  C   C41       1.0  0.6649200271670992  0.8065200627488947  0.035395369030886956  1.0000
  C   C42       1.0  0.3350763155392329  0.1934763866212066  0.9646027074757126  1.0000
  C   C43       1.0  0.8259819206204568  0.5385922937629245  0.8876314680414052  1.0000
  C   C44       1.0  0.17401969739497494  0.461407225598414  0.11236904920772865  1.0000
  C   C45       1.0  0.5292836010278634  0.8888836843793514  0.15831671705411307  1.0000
  C   C46       1.0  0.4707163784101667  0.11111351986851756  0.8416856719375545  1.0000
  C   C47       1.0  0.5182552178107116  0.9968819330442571  0.20335245871410018  1.0000
  C   C48       1.0  0.48174576111173206  0.0031144957817091003  0.7966491992601019  1.0000
  C   C49       1.0  0.5911289113408955  0.08338774889125489  0.16780666457888319  1.0000
  C   C50       1.0  0.40887106817859115  0.916609456295795  0.8321949597865268  1.0000
  C   C51       1.0  0.5722138274518187  0.18110166542503237  0.2120448553879868  1.0000
  C   C52       1.0  0.4277859924980519  0.8188947694761596  0.7879551425930627  1.0000
  C   C53       1.0  0.41588214207504853  0.1125362677405093  0.3209480232580616  1.0000
  C   C54       1.0  0.5841176776304591  0.8874601643431032  0.6790542686017459  1.0000
  C   C55       1.0  0.4308545532159229  0.0123063553344096  0.28254988524602  1.0000
  C   C56       1.0  0.5691467450901087  0.9876916168808663  0.7174527316181525  1.0000
  I   I1        1.0  0.617889150149864  0.5002044415979796  0.2622376187168313  1.0000
  I   I2        1.0  0.38211754828078165  0.49978039323094947  0.7377489695652313  1.0000
  I   I3        1.0  0.16237352106345782  0.3180359490747833  0.4078491407721571  1.0000
  I   I4        1.0  0.8376375701245777  0.6819588920159416  0.5921580873616887  1.0000
  N   N1        1.0  0.8615309528114636  0.08005237569826561  0.9077813065483724  1.0000
  N   N2        1.0  0.13846570895263705  0.919945613304378  0.09222078735320585  1.0000
  N   N3        1.0  0.7912234530074473  0.012362782788748902  0.9664789253269885  1.0000
  N   N4        1.0  0.20877436789213985  0.9876352020170527  0.03352329931524169  1.0000
  N   N5        1.0  0.48533166698815944  0.19554841847786258  0.28650496189549557  1.0000
  N   N6        1.0  0.5146669937447683  0.8044480196809831  0.7134956699711593  1.0000
  N   N7        1.0  0.6424521719865623  0.3548570373229082  0.5154651720944513  1.0000
  N   N8        1.0  0.3575578800124575  0.6451440035633454  0.4845311022191793  1.0000
  O   O1        1.0  0.8982060162950204  0.9207238116927243  0.8520602716952084  1.0000
  O   O2        1.0  0.10178532947794143  0.0792765204220345  0.1479368721411873  1.0000
  O   O3        1.0  0.6226164045814286  0.894589437263505  0.07946595639432992  1.0000
  O   O4        1.0  0.37738225607004955  0.1054069999561449  0.9205354400985752  1.0000
  O   O5        1.0  0.9949896849246614  0.22852496853361964  0.8056715188486832  1.0000
  O   O6        1.0  0.005007095319747558  0.7714791991622931  0.19433351524587283  1.0000
