data_image0
_chemical_formula_structural       Mn12H24C24O48
_chemical_formula_sum              "Mn12 H24 C24 O48"
_cell_length_a       10.03887099
_cell_length_b       11.671983743327754
_cell_length_c       14.7098
_cell_angle_alpha    91.51062188091598
_cell_angle_beta     90.0
_cell_angle_gamma    90.0

_space_group_name_H-M_alt    "P 1"
_space_group_IT_number       1

loop_
  _space_group_symop_operation_xyz
  'x, y, z'

loop_
  _atom_site_type_symbol
  _atom_site_label
  _atom_site_symmetry_multiplicity
  _atom_site_fract_x
  _atom_site_fract_y
  _atom_site_fract_z
  _atom_site_occupancy
  Mn  Mn1       1.0  0.0827991515009998  0.2407274189435995  0.8685326671204907  1.0000
  Mn  Mn2       1.0  0.5884446573608173  0.254518214617967  0.6358920756664261  1.0000
  Mn  Mn3       1.0  0.9144056148489241  0.7580960907714387  0.13075950503272793  1.0000
  Mn  Mn4       1.0  0.4149809280495589  0.7416767219609498  0.3707184276704893  1.0000
  Mn  Mn5       1.0  0.9051934235485177  0.2620276889638049  0.6812231247123819  1.0000
  Mn  Mn6       1.0  0.40299950104249405  0.2373215012250043  0.8169270707913726  1.0000
  Mn  Mn7       1.0  0.0967050977113928  0.7391638506094297  0.3197596647699187  1.0000
  Mn  Mn8       1.0  0.5965820266009842  0.7626564551852937  0.18216083096034916  1.0000
  Mn  Mn9       1.0  0.9989390251144172  0.5015338112921555  0.00011298275534700109  1.0000
  Mn  Mn10      1.0  0.501809417116533  0.002243757571037  0.5005846717293636  1.0000
  Mn  Mn11      1.0  0.00021117912583430002  0.0010524577147564  0.9991348516797559  1.0000
  Mn  Mn12      1.0  0.5001767634031538  0.4971191454218769  0.5002429374326169  1.0000
  H   H1        1.0  0.2687742478898016  0.1288035118708635  0.6275709282656906  1.0000
  H   H2        1.0  0.7675404941128718  0.369195824164244  0.865297390521647  1.0000
  H   H3        1.0  0.7314687087138267  0.8707150656020417  0.37273443729253597  1.0000
  H   H4        1.0  0.23126903436777718  0.6308669802214197  0.1287289949431099  1.0000
  H   H5        1.0  0.9801719744980987  0.5285994583865943  0.720743317607685  1.0000
  H   H6        1.0  0.4780218816219701  0.982331291632761  0.7771107247165432  1.0000
  H   H7        1.0  0.021090021000461  0.4723375372605148  0.27836056643972285  1.0000
  H   H8        1.0  0.518517471255997  0.0288303135721932  0.22236067706469242  1.0000
  H   H9        1.0  0.4017702791496873  0.43760043332179793  0.9671817192166545  1.0000
  H   H10       1.0  0.8965330871335339  0.0658917378060337  0.5390151387322035  1.0000
  H   H11       1.0  0.5964196577447964  0.5643547380298131  0.030441743116277606  1.0000
  H   H12       1.0  0.0992382510934107  0.9416351172618818  0.46914309681854865  1.0000
  H   H13       1.0  0.7936221122809712  0.024103681408611504  0.7576293833206051  1.0000
  H   H14       1.0  0.2955073337385343  0.45753199408267164  0.7356553178547146  1.0000
  H   H15       1.0  0.2060082256321536  0.9754346082201906  0.24070491977792596  1.0000
  H   H16       1.0  0.707674200323595  0.5264851154042631  0.2597723606038045  1.0000
  H   H17       1.0  0.8296988783197817  0.3098322381605598  0.07850585185943972  1.0000
  H   H18       1.0  0.3383757001543088  0.1848545986338905  0.4331425145141097  1.0000
  H   H19       1.0  0.1717693156648465  0.6904019762763696  0.9224004873009974  1.0000
  H   H20       1.0  0.6717209541508424  0.8081272565340996  0.5790582303522528  1.0000
  H   H21       1.0  0.3022660618930786  0.9905906849528705  0.9942816866143644  1.0000
  H   H22       1.0  0.7859090935483763  0.4986506942299087  0.5033946633274767  1.0000
  H   H23       1.0  0.6984490593598096  0.009600676971246  0.0047080265064139  1.0000
  H   H24       1.0  0.1981736792894111  0.4893825527581157  0.4945664122886555  1.0000
  C   C1        1.0  0.1860936356150944  0.164618785032026  0.6687299079630122  1.0000
  C   C2        1.0  0.6827261757649126  0.3349832349823956  0.8253704565258602  1.0000
  C   C3        1.0  0.8140317778901931  0.8341695856224974  0.33177840497464234  1.0000
  C   C4        1.0  0.3138520261031843  0.6676078676594059  0.16958714196513824  1.0000
  C   C5        1.0  0.9991820803347125  0.4836394589905453  0.7848723885798137  1.0000
  C   C6        1.0  0.5051603915471787  0.0232663433081939  0.712743140888108  1.0000
  C   C7        1.0  0.0009084686922519999  0.5177183483324157  0.2145931240249297  1.0000
  C   C8        1.0  0.4998560102025991  0.9839254051095098  0.28657383833581923  1.0000
  C   C9        1.0  0.2937989743007918  0.4215067436087097  0.9572970145758861  1.0000
  C   C10       1.0  0.7885558055169284  0.08468513582651842  0.5427638456195041  1.0000
  C   C11       1.0  0.7045642888573482  0.5784574999974836  0.0411236979938039  1.0000
  C   C12       1.0  0.2070103303518991  0.9248832129519401  0.4590699101704487  1.0000
  C   C13       1.0  0.8669172069916229  0.050134011793424804  0.8106905760397043  1.0000
  C   C14       1.0  0.3747323781476339  0.439605930921573  0.6847684363447897  1.0000
  C   C15       1.0  0.1316144017904151  0.9498722272753284  0.18819125238498205  1.0000
  C   C16       1.0  0.6327135796771515  0.5509230464128407  0.3122142395804985  1.0000
  C   C17       1.0  0.8926910216225394  0.25712878969870456  0.0321900045269317  1.0000
  C   C18       1.0  0.3988605894017994  0.2433139966171609  0.47637273904193483  1.0000
  C   C19       1.0  0.10683372672767179  0.7435373780674084  0.9671006030830682  1.0000
  C   C20       1.0  0.6074975966993676  0.7561540148906261  0.5329486866158533  1.0000
  C   C21       1.0  0.2874875075967083  0.0632160269058204  0.9487342840472978  1.0000
  C   C22       1.0  0.7774220833970489  0.4267030393127484  0.5501683588625639  1.0000
  C   C23       1.0  0.7130811828472332  0.9364105388993806  0.049737829393961916  1.0000
  C   C24       1.0  0.2129731522727738  0.5635045441755508  0.4504990107440463  1.0000
  O   O1        1.0  0.2108563803747003  0.18913727876469721  0.7527279460411336  1.0000
  O   O2        1.0  0.7074600328139127  0.3099950777092602  0.7410186056514121  1.0000
  O   O3        1.0  0.7895768366677629  0.8100993291738803  0.24771292360105693  1.0000
  O   O4        1.0  0.289619221414064  0.6915067140567573  0.25367487089663143  1.0000
  O   O5        1.0  0.0755802122326088  0.1775242477916237  0.6297865512138472  1.0000
  O   O6        1.0  0.5730086586161036  0.3245769307702133  0.8654300073147141  1.0000
  O   O7        1.0  0.923942543861699  0.8202742298168602  0.3713040544748836  1.0000
  O   O8        1.0  0.42353965941343563  0.6818451865173145  0.1298436256027529  1.0000
  O   O9        1.0  0.0060305586216103  0.3735676375217096  0.7779083850266771  1.0000
  O   O10       1.0  0.5186818323680811  0.1334101569985577  0.7193809776685216  1.0000
  O   O11       1.0  0.99422534764539  0.6276290443530641  0.22191066207204815  1.0000
  O   O12       1.0  0.4948016569739763  0.8738672964447716  0.28007035902025024  1.0000
  O   O13       1.0  0.0119595121921208  0.5416266222825854  0.8571101246567849  1.0000
  O   O14       1.0  0.5197566544283276  0.962798259241076  0.6418580146819437  1.0000
  O   O15       1.0  0.9865023676332781  0.4599128796947128  0.14228508838203882  1.0000
  O   O16       1.0  0.48552471735668945  0.0425285478188826  0.3584430810863424  1.0000
  O   O17       1.0  0.2638623409583261  0.34463276381824676  0.8960572884353866  1.0000
  O   O18       1.0  0.7565761137448419  0.1640942702751644  0.6017574546876006  1.0000
  O   O19       1.0  0.7355189649667935  0.6535933818681343  0.10345964483547483  1.0000
  O   O20       1.0  0.2362795579665047  0.8476021342897299  0.3980963151586678  1.0000
  O   O21       1.0  0.2125717127081046  0.47804634901783066  0.004830443758095303  1.0000
  O   O22       1.0  0.7106227390616198  0.028835455873732506  0.49196540196143707  1.0000
  O   O23       1.0  0.7851659820961601  0.5213676683238049  0.9934149228095066  1.0000
  O   O24       1.0  0.2888322803319525  0.9813628248431243  0.5063165604701751  1.0000
  O   O25       1.0  0.9196482362604783  0.14976267588905762  0.8017091989946223  1.0000
  O   O26       1.0  0.4307446528904961  0.3406311961715076  0.6919157445418662  1.0000
  O   O27       1.0  0.0763352772202524  0.8517365447261939  0.19863827753010105  1.0000
  O   O28       1.0  0.5763546524069838  0.6487253364122623  0.3020777159454299  1.0000
  O   O29       1.0  0.8904905749764964  0.9820390374953548  0.8728972121876097  1.0000
  O   O30       1.0  0.40023823435945616  0.5142267255881876  0.627845896168779  1.0000
  O   O31       1.0  0.1096956023338649  0.0173921208514045  0.1252315840858458  1.0000
  O   O32       1.0  0.6111822739939399  0.4826718492511689  0.3747044914284743  1.0000
  O   O33       1.0  0.9684585059101353  0.31326386738685136  0.9780834064361841  1.0000
  O   O34       1.0  0.4772209947485351  0.1923580736279291  0.532543513797286  1.0000
  O   O35       1.0  0.029980462972361  0.6877296935771753  0.020876859421179002  1.0000
  O   O36       1.0  0.5309601055048532  0.8135069609929957  0.4800150982268648  1.0000
  O   O37       1.0  0.8851961549114405  0.1503771809228382  0.0353982418911158  1.0000
  O   O38       1.0  0.3863213307415947  0.349106566156216  0.4675930393619368  1.0000
  O   O39       1.0  0.11342709764218031  0.8500901511838138  0.962706681227431  1.0000
  O   O40       1.0  0.6144814497710769  0.649404120215266  0.5352269675855723  1.0000
  O   O41       1.0  0.1669161802825414  0.0990193013633913  0.9401493044792917  1.0000
  O   O42       1.0  0.6580301715780905  0.3873361498894141  0.560292004875727  1.0000
  O   O43       1.0  0.8338228480412013  0.9011823451637967  0.058697861806884105  1.0000
  O   O44       1.0  0.3337028639313147  0.598869008901886  0.4421557053147609  1.0000
  O   O45       1.0  0.3880834810887421  0.1032342745239561  0.9097666308359749  1.0000
  O   O46       1.0  0.8817316218942679  0.3926215788201119  0.587935230921083  1.0000
  O   O47       1.0  0.6123158676033569  0.8953381194659826  0.08767458016830433  1.0000
  O   O48       1.0  0.1123632329894093  0.6052848871206677  0.4128252022302804  1.0000
