data_image0
_chemical_formula_structural       Ag4H24C32N12O8
_chemical_formula_sum              "Ag4 H24 C32 N12 O8"
_cell_length_a       4.402180943023208
_cell_length_b       13.924867910531178
_cell_length_c       14.611799574249368
_cell_angle_alpha    109.44614618064018
_cell_angle_beta     90.00007864442443
_cell_angle_gamma    89.9996293031768

_space_group_name_H-M_alt    "P 1"
_space_group_IT_number       1

loop_
  _space_group_symop_operation_xyz
  'x, y, z'

loop_
  _atom_site_type_symbol
  _atom_site_label
  _atom_site_symmetry_multiplicity
  _atom_site_fract_x
  _atom_site_fract_y
  _atom_site_fract_z
  _atom_site_occupancy
  Ag  Ag1       1.0  0.6964647320327088  0.2163050014142271  0.3462203298789248  1.0000
  Ag  Ag2       1.0  0.196465967862153  0.2836960227669962  0.15378386572815828  1.0000
  Ag  Ag3       1.0  0.3035316511257449  0.7836956308405687  0.6537833335464995  1.0000
  Ag  Ag4       1.0  0.8035326869038784  0.7163031124980179  0.8462158915393587  1.0000
  H   H1        1.0  0.0494326324324561  0.07275149596982539  0.4553412391449713  1.0000
  H   H2        1.0  0.5494370061690858  0.42725064488696757  0.0446577813420176  1.0000
  H   H3        1.0  0.9505592075352494  0.9272468829651146  0.5446575890995291  1.0000
  H   H4        1.0  0.45055937696891135  0.5727507907670386  0.9553406667782484  1.0000
  H   H5        1.0  0.3660809346066429  0.03264981937009279  0.5822542345618444  1.0000
  H   H6        1.0  0.8660816847288543  0.4673496780877996  0.9177450790818042  1.0000
  H   H7        1.0  0.6339154485580707  0.9673493158973371  0.41774552270598514  1.0000
  H   H8        1.0  0.13391469841805298  0.5326509907706763  0.08225380542097571  1.0000
  H   H9        1.0  0.656138355471178  0.16482087348303054  0.7021540694349611  1.0000
  H   H10       1.0  0.1561346627997509  0.33517755862732196  0.7978434435410335  1.0000
  H   H11       1.0  0.3438580276902385  0.8351782722425938  0.2978443224263997  1.0000
  H   H12       1.0  0.8438571771428869  0.6648231154650971  0.20215475825914092  1.0000
  H   H13       1.0  0.6496919634085644  0.3466797994516355  0.7068634701796839  1.0000
  H   H14       1.0  0.1496942606227449  0.15331939749582088  0.7931356562845338  1.0000
  H   H15       1.0  0.35030441974724613  0.6533201026113173  0.29313585070561726  1.0000
  H   H16       1.0  0.8503066657300877  0.846681260899622  0.20686459362409676  1.0000
  H   H17       1.0  0.578371060304903  0.5001067733773041  0.6510048170058909  1.0000
  H   H18       1.0  0.07837103388605018  0.9998924601678354  0.8489931042125249  1.0000
  H   H19       1.0  0.42162532284925897  0.499893133914746  0.34899382117617955  1.0000
  H   H20       1.0  0.9216435220522212  0.00011122356240630026  0.1510108617900272  1.0000
  H   H21       1.0  0.3399931140599434  0.5457479904419954  0.574626122934113  1.0000
  H   H22       1.0  0.8399941692299677  0.9542522035704691  0.9253729021246144  1.0000
  H   H23       1.0  0.660000997492908  0.45425191685247757  0.42537251524827  1.0000
  H   H24       1.0  0.1600226583218145  0.0457507029036321  0.0746328656666222  1.0000
  C   C1        1.0  0.1635472844540686  0.23341095961899327  0.5155395243922314  1.0000
  C   C2        1.0  0.6635524755583545  0.2665897152495589  0.9844621390359124  1.0000
  C   C3        1.0  0.8364468271182445  0.7665874088553293  0.4844606692584321  1.0000
  C   C4        1.0  0.3364461791931603  0.7334109431483072  0.015538110873030945  1.0000
  C   C5        1.0  0.1751539353159401  0.13122540781964176  0.510806869239822  1.0000
  C   C6        1.0  0.6751547752774628  0.3687760143480006  0.9891936719309271  1.0000
  C   C7        1.0  0.8248424478431745  0.868774483785117  0.4891938170519481  1.0000
  C   C8        1.0  0.3248416078694376  0.6312246545104755  0.010805212571859972  1.0000
  C   C9        1.0  0.3518303795603686  0.10998412306655331  0.58022061740796  1.0000
  C   C10       1.0  0.851830458127985  0.39001540998465595  0.919778017427376  1.0000
  C   C11       1.0  0.6481660036026966  0.8900150174299737  0.4197784571566314  1.0000
  C   C12       1.0  0.14816592501727396  0.6099852641029174  0.08022018437217325  1.0000
  C   C13       1.0  0.5201236085576753  0.1867206560185224  0.6501254571442558  1.0000
  C   C14       1.0  0.02012288114868  0.31327882223114756  0.8498730220296054  1.0000
  C   C15       1.0  0.479875046199453  0.8132792460420077  0.34987386374073987  1.0000
  C   C16       1.0  0.97987123040582  0.6867210798342285  0.15012629885600848  1.0000
  C   C17       1.0  0.5157724633268757  0.28776038585544933  0.6545422612143312  1.0000
  C   C18       1.0  0.015771521761443797  0.21223909120719503  0.8454575845552412  1.0000
  C   C19       1.0  0.4842239198361896  0.7122387546410778  0.3454568133502604  1.0000
  C   C20       1.0  0.9842271329900709  0.787761567190671  0.15454266535369493  1.0000
  C   C21       1.0  0.32908734052381305  0.3095752997615335  0.5862899919289362  1.0000
  C   C22       1.0  0.8290914957069687  0.19042580487653282  0.9137091417631922  1.0000
  C   C23       1.0  0.6709090426319974  0.6904246023014197  0.41370932895637214  1.0000
  C   C24       1.0  0.17091170223826418  0.8095756203120175  0.08629067176260448  1.0000
  C   C25       1.0  0.3463859735020662  0.5011424425733039  0.6236703586501733  1.0000
  C   C26       1.0  0.8463836103632189  0.9988577378216091  0.8763286646617772  1.0000
  C   C27       1.0  0.653612681255062  0.4988574594872332  0.37632896223482243  1.0000
  C   C28       1.0  0.15363094559681656  0.0011436612093476  0.1236745623786391  1.0000
  C   C29       1.0  0.13520170570465953  0.550850527633493  0.7102630977497739  1.0000
  C   C30       1.0  0.635193145227511  0.9491523926644306  0.7897360395409194  1.0000
  C   C31       1.0  0.8647969490508131  0.4491493796561413  0.2897355404319839  1.0000
  C   C32       1.0  0.3648191391490272  0.050847472777903094  0.21026806026485903  1.0000
  N   N1        1.0  0.005100205950831998  0.2809958976355915  0.4615806450742639  1.0000
  N   N2        1.0  0.5051020187019262  0.2190055604288332  0.03842018931860738  1.0000
  N   N3        1.0  0.9948961772155371  0.7190032324027414  0.5384197948967966  1.0000
  N   N4        1.0  0.4948966360479402  0.78099510319813  0.9615793778870981  1.0000
  N   N5        1.0  0.06235498205819569  0.3793645159935011  0.4943688000276367  1.0000
  N   N6        1.0  0.5623563930556514  0.12063759210383299  0.005630899631171382  1.0000
  N   N7        1.0  0.9376414010992704  0.6206353808403546  0.5056312035609024  1.0000
  N   N8        1.0  0.4376468048912371  0.8793638278556132  0.9943695965978635  1.0000
  N   N9        1.0  0.2589507037856862  0.3976186290251746  0.5688054740257584  1.0000
  N   N10       1.0  0.7589522083294824  0.10238033512671052  0.9311936225769486  1.0000
  N   N11       1.0  0.7410456793773791  0.6023805114713524  0.43119360053883327  1.0000
  N   N12       1.0  0.24105553284674383  0.8976187844413273  0.06880818279903153  1.0000
  O   O1        1.0  0.16124241758923571  0.6487248640822614  0.7448925454990558  1.0000
  O   O2        1.0  0.6612402514371138  0.8512741824338617  0.7551067184764619  1.0000
  O   O3        1.0  0.8387562371784438  0.3512742659536556  0.25510789447169907  1.0000
  O   O4        1.0  0.33877203295227787  0.1487241651047171  0.2448962059846522  1.0000
  O   O5        1.0  0.9599003648432927  0.4976257670578762  0.7405315685769196  1.0000
  O   O6        1.0  0.45989879435990133  0.0023735252733488  0.7594684021283911  1.0000
  O   O7        1.0  0.04009374671681339  0.5023733786701713  0.25946682328475384  1.0000
  O   O8        1.0  0.5401134900294977  0.9976248222652301  0.24053452233273007  1.0000
