data_image0
_chemical_formula_structural       Cu2Mo4H8C12N2O14
_chemical_formula_sum              "Cu2 Mo4 H8 C12 N2 O14"
_cell_length_a       5.51151523477235
_cell_length_b       10.421230466465966
_cell_length_c       9.939151059008466
_cell_angle_alpha    94.10872181086313
_cell_angle_beta     106.08811624976249
_cell_angle_gamma    90.01464856694139

_space_group_name_H-M_alt    "P 1"
_space_group_IT_number       1

loop_
  _space_group_symop_operation_xyz
  'x, y, z'

loop_
  _atom_site_type_symbol
  _atom_site_label
  _atom_site_symmetry_multiplicity
  _atom_site_fract_x
  _atom_site_fract_y
  _atom_site_fract_z
  _atom_site_occupancy
  Cu  Cu1       1.0  0.9063736017365116  0.9825567109139896  0.5039319707920455  1.0000
  Cu  Cu2       1.0  0.40260261184855756  0.01710523564637609  0.4960886531035059  1.0000
  Mo  Mo1       1.0  0.1528162872866119  0.49392181679052527  0.3504897450040758  1.0000
  Mo  Mo2       1.0  0.8021818955710103  0.505991901290173  0.6492369785358179  1.0000
  Mo  Mo3       1.0  0.7483493562349609  0.636007094781867  0.311051013322782  1.0000
  Mo  Mo4       1.0  0.4368296803779187  0.364015554600634  0.6887902889455475  1.0000
  H   H1        1.0  0.9201636838448763  0.8222510652221824  0.1317302377007863  1.0000
  H   H2        1.0  0.787604953776757  0.17768529168530725  0.8674477844525512  1.0000
  H   H3        1.0  0.12242049334388132  0.33644819462711684  0.9135508766745986  1.0000
  H   H4        1.0  0.20918308886609077  0.6637843301368987  0.08737073895904501  1.0000
  H   H5        1.0  0.7751539358253368  0.9155317840980002  0.897127335164143  1.0000
  H   H6        1.0  0.8784917852244901  0.08428831181539917  0.10202715243664073  1.0000
  H   H7        1.0  0.1724980931943421  0.2332339699606578  0.13962403126218703  1.0000
  H   H8        1.0  0.03195000988130661  0.7667605917417077  0.8613367206171318  1.0000
  C   C1        1.0  0.2928645536796353  0.91141536230068  0.7271957124654875  1.0000
  C   C2        1.0  0.5677604221622161  0.08861959880496069  0.2730410999428585  1.0000
  C   C3        1.0  0.7257644163772454  0.8102977266249526  0.06709673918657445  1.0000
  C   C4        1.0  0.6585434881817633  0.1897432509500305  0.9324948271837672  1.0000
  C   C5        1.0  0.28317577816704187  0.27637335944218205  0.9566772466765772  1.0000
  C   C6        1.0  0.32642828308291877  0.7237826892205843  0.043842065993288756  1.0000
  C   C7        1.0  0.38946849388646837  0.8517733954776502  0.8637082646088958  1.0000
  C   C8        1.0  0.5272549146506549  0.14840139403828087  0.13651650108037933  1.0000
  C   C9        1.0  0.6441668650818498  0.8641567876010678  0.9391665907292579  1.0000
  C   C10       1.0  0.7056456123189108  0.13587115156102667  0.06045026772290646  1.0000
  C   C11       1.0  0.31189358301627124  0.21887474590598535  0.08180913509246322  1.0000
  C   C12       1.0  0.22930285306620143  0.7812587690400644  0.9187914908626026  1.0000
  N   N1        1.0  0.5705549292019186  0.7394557907054062  0.11832392777777302  1.0000
  N   N2        1.0  0.45211031683128766  0.26067553963139284  0.8817192452635042  1.0000
  O   O1        1.0  0.8319474956635062  0.7818206876828949  0.4060078208877372  1.0000
  O   O2        1.0  0.4246177248843851  0.21809443868779244  0.5939439425292719  1.0000
  O   O3        1.0  0.4424650510850725  0.5485446634041365  0.2829551036580895  1.0000
  O   O4        1.0  0.15937649419549163  0.45159043397796245  0.716978554525163  1.0000
  O   O5        1.0  0.7737072283718975  0.40347954692722243  0.8016362959762591  1.0000
  O   O6        1.0  0.9720698095707972  0.596416216854294  0.19803752747233014  1.0000
  O   O7        1.0  0.4554877455476145  0.9315182849558138  0.6611222681399411  1.0000
  O   O8        1.0  0.7963766476292519  0.068274595176895  0.33880704912714793  1.0000
  O   O9        1.0  0.3716178070023234  0.06345060979553807  0.3116313617094519  1.0000
  O   O10       1.0  0.05824560011906499  0.9366519672818965  0.688796211291944  1.0000
  O   O11       1.0  0.44264225504315396  0.4717748407969182  0.5253244017132843  1.0000
  O   O12       1.0  0.9173468492690517  0.5281055767962215  0.47442992949390134  1.0000
  O   O13       1.0  0.05312583478428928  0.34412468944641  0.2838985399046194  1.0000
  O   O14       1.0  0.7694326821648902  0.6558636792637386  0.7157991749330962  1.0000
