data_image0
_chemical_formula_structural       Na2Zn2H24C36N6O18
_chemical_formula_sum              "Na2 Zn2 H24 C36 N6 O18"
_cell_length_a       10.023396088166681
_cell_length_b       10.023394902866501
_cell_length_c       13.7445338768553
_cell_angle_alpha    68.61114802772538
_cell_angle_beta     68.61109617084364
_cell_angle_gamma    60.005990397310775

_space_group_name_H-M_alt    "P 1"
_space_group_IT_number       1

loop_
  _space_group_symop_operation_xyz
  'x, y, z'

loop_
  _atom_site_type_symbol
  _atom_site_label
  _atom_site_symmetry_multiplicity
  _atom_site_fract_x
  _atom_site_fract_y
  _atom_site_fract_z
  _atom_site_occupancy
  Na  Na1       1.0  0.464031138224321  0.4640709295656292  0.6078471412538846  1.0000
  Na  Na2       1.0  0.9640665044278549  0.9640353635630061  0.10784669175181698  1.0000
  Zn  Zn1       1.0  0.05193563236009173  0.05199391836588769  0.8440080599704914  1.0000
  Zn  Zn2       1.0  0.5519934111856131  0.5519358873575441  0.34400778318580894  1.0000
  H   H1        1.0  0.320169473460176  0.8491494941137173  0.1011283153656137  1.0000
  H   H2        1.0  0.8490698836048195  0.7296568554886206  0.10117437222172744  1.0000
  H   H3        1.0  0.7295449391647111  0.3202024341708451  0.10118805727194773  1.0000
  H   H4        1.0  0.229656777340665  0.34907060183089555  0.6011740440144139  1.0000
  H   H5        1.0  0.8201991116680529  0.22954819470434973  0.6011866482552721  1.0000
  H   H6        1.0  0.34914840762172616  0.8201707081090814  0.6011285241301253  1.0000
  H   H7        1.0  0.5402419758343767  0.8572945969802176  0.11818799000052853  1.0000
  H   H8        1.0  0.857075053705117  0.4843408815806212  0.11831266665783609  1.0000
  H   H9        1.0  0.48428188161506136  0.5402694959526712  0.11825459845849208  1.0000
  H   H10       1.0  0.9843418716398415  0.357071310023798  0.6183127107352675  1.0000
  H   H11       1.0  0.04026810184036155  0.9842844497590941  0.6182525951934184  1.0000
  H   H12       1.0  0.35729315014241775  0.040243624320638084  0.6181871473173929  1.0000
  H   H13       1.0  0.541103357854048  0.1819796688238213  0.8060934653295676  1.0000
  H   H14       1.0  0.18184081296185886  0.4708450964719759  0.8062453053237919  1.0000
  H   H15       1.0  0.47094043619952003  0.5410491519604149  0.8061709640498479  1.0000
  H   H16       1.0  0.9708436986739599  0.681839514056925  0.30624688304153846  1.0000
  H   H17       1.0  0.04104520120918653  0.9709426335536266  0.3061704371880509  1.0000
  H   H18       1.0  0.6819784543855717  0.0411041363917377  0.3060929000453497  1.0000
  H   H19       1.0  0.6649444416191557  0.028943946691860796  0.9669686887841495  1.0000
  H   H20       1.0  0.028763744865493508  0.3391844177509923  0.9670791302245834  1.0000
  H   H21       1.0  0.3392238639335262  0.6649084027972235  0.9670124254054643  1.0000
  H   H22       1.0  0.839183599675124  0.5287627458353439  0.4670799722736377  1.0000
  H   H23       1.0  0.16490480580350222  0.8392252685936085  0.46701235645576133  1.0000
  H   H24       1.0  0.5289442127130002  0.16494406597922756  0.46696837331035823  1.0000
  C   C1        1.0  0.30057820554820575  0.18669559129899935  0.7659424169957706  1.0000
  C   C2        1.0  0.18672208716711944  0.7466536230531845  0.766009916822462  1.0000
  C   C3        1.0  0.7466218198313824  0.3006046902626095  0.7660325221283983  1.0000
  C   C4        1.0  0.24665233902809552  0.6867224691208661  0.2660099145871726  1.0000
  C   C5        1.0  0.8006040411739122  0.24662435665629792  0.2660311506089101  1.0000
  C   C6        1.0  0.6866937075584121  0.800580431328633  0.26594080536136744  1.0000
  C   C7        1.0  0.30475095874464125  0.9892868076644846  0.9497822288091555  1.0000
  C   C8        1.0  0.9892179545004749  0.7561842285763374  0.9498351814582622  1.0000
  C   C9        1.0  0.7562281449086895  0.30477426756813486  0.9498348534528631  1.0000
  C   C10       1.0  0.25618337185671436  0.4892175166775059  0.4498356363943544  1.0000
  C   C11       1.0  0.8047721011562814  0.2562304255254516  0.4498340174902467  1.0000
  C   C12       1.0  0.4892841526214725  0.8047538081969774  0.44978077622222673  1.0000
  C   C13       1.0  0.3677020544835656  0.09171838183037549  0.8637729177026615  1.0000
  C   C14       1.0  0.0916600783468341  0.6767809101000065  0.8638711229790134  1.0000
  C   C15       1.0  0.6768534934310324  0.36768243160415176  0.8638508110632445  1.0000
  C   C16       1.0  0.1767801275800592  0.5916595727945688  0.3638704213481035  1.0000
  C   C17       1.0  0.8676810849630242  0.17685691157062416  0.3638490715696107  1.0000
  C   C18       1.0  0.5917164390558369  0.8677048038989381  0.3637723205115934  1.0000
  C   C19       1.0  0.4979472957335819  0.9270982769907617  0.04474993415043131  1.0000
  C   C20       1.0  0.9268809734981572  0.5302744277224817  0.0448537403567214  1.0000
  C   C21       1.0  0.5302588661208889  0.49796714213645993  0.04481380425368543  1.0000
  C   C22       1.0  0.030275357787630255  0.4268795155613105  0.5448539747689126  1.0000
  C   C23       1.0  0.9979645228854395  0.0302606004285977  0.5448126708577234  1.0000
  C   C24       1.0  0.4270962007704996  0.9979497097295178  0.544749856574697  1.0000
  C   C25       1.0  0.49504186820231405  0.10402306731752727  0.8724511596290798  1.0000
  C   C26       1.0  0.10387937238483134  0.5284926859648564  0.872580852404852  1.0000
  C   C27       1.0  0.528558776844797  0.49502969753604004  0.8725361927990889  1.0000
  C   C28       1.0  0.028492748780415415  0.6038779262715225  0.372581690463754  1.0000
  C   C29       1.0  0.9950265056410288  0.028560543517315292  0.3725356879505385  1.0000
  C   C30       1.0  0.604021035551931  0.9950436775156886  0.372450594096641  1.0000
  C   C31       1.0  0.5632817503706988  0.02106837185445439  0.9619885445197909  1.0000
  C   C32       1.0  0.020847052077776686  0.4537177861267096  0.9621042265803581  1.0000
  C   C33       1.0  0.4537487117999601  0.5632900318451773  0.9620467303513537  1.0000
  C   C34       1.0  0.9537173947669614  0.5208461633302192  0.46210456002179967  1.0000
  C   C35       1.0  0.06328820885069346  0.9537482530904949  0.46204694275814984  1.0000
  C   C36       1.0  0.5210671596682203  0.0632824972818469  0.4619889835776548  1.0000
  N   N1        1.0  0.37381770238435064  0.9155625362560752  0.037230994701808164  1.0000
  N   N2        1.0  0.915409244489453  0.6734558554152343  0.0372878181496716  1.0000
  N   N3        1.0  0.6734291792870833  0.3738595241836505  0.037290253098738874  1.0000
  N   N4        1.0  0.1734552732235881  0.415409411941603  0.5372880356245204  1.0000
  N   N5        1.0  0.8738575412463092  0.17343259933031155  0.5372889937779846  1.0000
  N   N6        1.0  0.41556152333791374  0.8738189908083315  0.5372298619386556  1.0000
  O   O1        1.0  0.18454051287402956  0.17748801203208583  0.7539852870199512  1.0000
  O   O2        1.0  0.17758261267593406  0.8838525901578717  0.7539723672170953  1.0000
  O   O3        1.0  0.8838344405817508  0.18461475924249265  0.7539512716367369  1.0000
  O   O4        1.0  0.3838496291017038  0.677585442976948  0.25397370838018674  1.0000
  O   O5        1.0  0.684613702214975  0.3838368624816154  0.2539490128817263  1.0000
  O   O6        1.0  0.6774860536599192  0.6845418775764144  0.25398501474401763  1.0000
  O   O7        1.0  0.361369303076067  0.2767913143106425  0.6954534031983146  1.0000
  O   O8        1.0  0.276791474597104  0.6661575069163278  0.6955997570003092  1.0000
  O   O9        1.0  0.6660233269922459  0.3613688564930015  0.6956871686440778  1.0000
  O   O10       1.0  0.16615654066134783  0.7767912701978829  0.19559974043878736  1.0000
  O   O11       1.0  0.8613698914646833  0.1660243556315706  0.1956856000142936  1.0000
  O   O12       1.0  0.7767878145896249  0.8613737221087872  0.19545127265151768  1.0000
  O   O13       1.0  0.19381642918125389  0.9578391869629997  0.9556599146089513  1.0000
  O   O14       1.0  0.9578214746104406  0.8926923856060043  0.9556784986108656  1.0000
  O   O15       1.0  0.8927283644484665  0.19386775322251276  0.9556850155576131  1.0000
  O   O16       1.0  0.39269107403417536  0.4578222498107962  0.45567844416977016  1.0000
  O   O17       1.0  0.6938654408078336  0.3927304165730945  0.45568523597894034  1.0000
  O   O18       1.0  0.45783807636791346  0.6938172926799381  0.45565970233009523  1.0000
