data_image0
_chemical_formula_structural       Ag2H46C38N8O4
_chemical_formula_sum              "Ag2 H46 C38 N8 O4"
_cell_length_a       8.956528734804019
_cell_length_b       10.402127021726224
_cell_length_c       10.548223609840058
_cell_angle_alpha    68.53971596572194
_cell_angle_beta     77.61282967051284
_cell_angle_gamma    82.81305190215849

_space_group_name_H-M_alt    "P 1"
_space_group_IT_number       1

loop_
  _space_group_symop_operation_xyz
  'x, y, z'

loop_
  _atom_site_type_symbol
  _atom_site_label
  _atom_site_symmetry_multiplicity
  _atom_site_fract_x
  _atom_site_fract_y
  _atom_site_fract_z
  _atom_site_occupancy
  Ag  Ag1       1.0  0.3127565217437933  0.3673567868561704  0.013589694298701695  1.0000
  Ag  Ag2       1.0  0.6872422957753911  0.6326411556621634  0.9864127457900125  1.0000
  H   H1        1.0  0.37916984086238154  0.5312012254880896  0.20781775039835534  1.0000
  H   H2        1.0  0.6208310640682129  0.46879983310744655  0.792183194923105  1.0000
  H   H3        1.0  0.9652831788951347  0.7747324344883069  0.15719351775292983  1.0000
  H   H4        1.0  0.0347188027442087  0.22526966500350906  0.8428068585699081  1.0000
  H   H5        1.0  0.9817767908421546  0.5841836830998798  0.031212195455246776  1.0000
  H   H6        1.0  0.018223982076271694  0.41581944406492255  0.9687880363261812  1.0000
  H   H7        1.0  0.3023282806313432  0.8416969471498346  0.19368877270832024  1.0000
  H   H8        1.0  0.6976725559383395  0.1583051504814108  0.8063108665425673  1.0000
  H   H9        1.0  0.30516140138686143  0.692187705316293  0.3429986690671569  1.0000
  H   H10       1.0  0.6948383584740725  0.30781335141867316  0.6570015391823391  1.0000
  H   H11       1.0  0.8479377379756627  0.7197905369976708  0.6582240026073337  1.0000
  H   H12       1.0  0.15206202188527843  0.2802105197372881  0.3417762056421623  1.0000
  H   H13       1.0  0.17060663709104057  0.11714781172711498  0.14310218883128561  1.0000
  H   H14       1.0  0.8293920413514897  0.8828522136137166  0.8568966898157131  1.0000
  H   H15       1.0  0.006543351668753399  0.10105157011062718  0.0839634612489917  1.0000
  H   H16       1.0  0.9934564694886062  0.8989484618418612  0.9160352051694076  1.0000
  H   H17       1.0  0.16470479196734536  0.9832628226647981  0.07926932059709205  1.0000
  H   H18       1.0  0.8352949608291026  0.016738248323399298  0.9207280397507277  1.0000
  H   H19       1.0  0.033731083265571705  0.5418455443242749  0.6558577788671585  1.0000
  H   H20       1.0  0.9662686082344577  0.45815655144640033  0.3441411233117647  1.0000
  H   H21       1.0  0.21725649500836397  0.6048953275837686  0.5766038783769502  1.0000
  H   H22       1.0  0.7827442755552383  0.3951078043321131  0.42339540410392124  1.0000
  H   H23       1.0  0.12282690213771019  0.5290710463021567  0.49329645506903563  1.0000
  H   H24       1.0  0.8771739320771417  0.4709310560801682  0.5067022348812814  1.0000
  H   H25       1.0  0.6362902511477986  0.8778327716396956  0.6601674939882471  1.0000
  H   H26       1.0  0.36371071743405997  0.12216725742228352  0.33983285880267294  1.0000
  H   H27       1.0  0.6030739689510723  0.012872653428850396  0.5049453574916286  1.0000
  H   H28       1.0  0.3969258569159493  0.987127369021479  0.49505520752789084  1.0000
  H   H29       1.0  0.7136919909101634  0.041183263310678286  0.6111300414941924  1.0000
  H   H30       1.0  0.2863066262359411  0.9588177868126376  0.388870378983903  1.0000
  H   H31       1.0  0.7807134129445572  0.18626609643590797  0.37907785264375343  1.0000
  H   H32       1.0  0.21928634220672194  0.8137349698012099  0.6209204570046297  1.0000
  H   H33       1.0  0.9194197926502881  0.21285482857587812  0.2267289792684082  1.0000
  H   H34       1.0  0.08057996250099107  0.7871462376612398  0.7732693303799749  1.0000
  H   H35       1.0  0.6056256335277651  0.35286978904204597  0.207965929174577  1.0000
  H   H36       1.0  0.3943743125772841  0.6471281885944078  0.7920306028821785  1.0000
  H   H37       1.0  0.5048511328085042  0.06710512601517139  0.04338553886426406  1.0000
  H   H38       1.0  0.49515050054384346  0.9328845506983113  0.9566202802279448  1.0000
  H   H39       1.0  0.7433966785609485  0.9539112483846136  0.18731243109387197  1.0000
  H   H40       1.0  0.25660684418456736  0.04608464725997408  0.8126908229210271  1.0000
  H   H41       1.0  0.4513284017354238  0.21044592499313808  0.6282485439886614  1.0000
  H   H42       1.0  0.5486702837715995  0.789554086094462  0.3717531825600203  1.0000
  H   H43       1.0  0.4431296496540184  0.3896732166208635  0.5207197854845802  1.0000
  H   H44       1.0  0.5568667480685078  0.6103267859945232  0.4792814162207436  1.0000
  H   H45       1.0  0.2730960705918902  0.29539614756961896  0.5976115526002275  1.0000
  H   H46       1.0  0.726901538206377  0.7046028226216945  0.40239074294706967  1.0000
  C   C1        1.0  0.26883137116473677  0.5670673873535533  0.17607560781179643  1.0000
  C   C2        1.0  0.7311683863413734  0.4329336741324922  0.8239236511371432  1.0000
  C   C3        1.0  0.0553968844954582  0.6983009680342886  0.14517805569761327  1.0000
  C   C4        1.0  0.9446039520742248  0.30170112959695666  0.8548215835532744  1.0000
  C   C5        1.0  0.06508002794524259  0.600768720674985  0.08401633656423252  1.0000
  C   C6        1.0  0.9349207426183597  0.39923441124089  0.9159829459166318  1.0000
  C   C7        1.0  0.2315406835901115  0.7599006292003522  0.27207187043025977  1.0000
  C   C8        1.0  0.7684613593456645  0.24010044550898602  0.7279269640614812  1.0000
  C   C9        1.0  0.0942850177489873  0.8176485056391057  0.3488254980991385  1.0000
  C   C10       1.0  0.9057148081180344  0.18235151681122366  0.6511750669203806  1.0000
  C   C11       1.0  0.030957625857190887  0.7347335559474928  0.4846773719377565  1.0000
  C   C12       1.0  0.9690432767185791  0.2652675073991233  0.5153226240831401  1.0000
  C   C13       1.0  0.8989605160504653  0.7846297689983286  0.5537825820742838  1.0000
  C   C14       1.0  0.1010391754495643  0.21537232677234636  0.44621632010463935  1.0000
  C   C15       1.0  0.8305377135873397  0.9152131635461981  0.4932551325784331  1.0000
  C   C16       1.0  0.16946318663359958  0.08478790455149718  0.5067439141419072  1.0000
  C   C17       1.0  0.8977096269925015  0.9992480555521506  0.3598140068497101  1.0000
  C   C18       1.0  0.10229133923451879  0.0007519782609079996  0.6401853966406463  1.0000
  C   C19       1.0  0.028349181015805427  0.9503024765950695  0.28560109947343904  1.0000
  C   C20       1.0  0.9716493677693804  0.049699612563955484  0.7143980149340906  1.0000
  C   C21       1.0  0.095716607164853  0.04124017465962739  0.1414304009701297  1.0000
  C   C22       1.0  0.9042831479864262  0.9587608915774906  0.8585679086782532  1.0000
  C   C23       1.0  0.10430314296467462  0.5959608992586067  0.5557462997417986  1.0000
  C   C24       1.0  0.8956965485353479  0.40404119651206827  0.4442526024371318  1.0000
  C   C25       1.0  0.6881772116755158  0.9638850658315758  0.571370559988395  1.0000
  C   C26       1.0  0.3118225458305872  0.0361159956544697  0.42862869896054423  1.0000
  C   C27       1.0  0.8304981098668378  0.14360255490250748  0.2975531820449717  1.0000
  C   C28       1.0  0.16950279035410892  0.8563985131951808  0.7024458646753687  1.0000
  C   C29       1.0  0.6076484295553115  0.260742016812891  0.18143868492676066  1.0000
  C   C30       1.0  0.392352663974222  0.7392559579330534  0.8185595335025154  1.0000
  C   C31       1.0  0.5625252136659995  0.11000574190390472  0.09804589961353831  1.0000
  C   C32       1.0  0.4374761509523566  0.8899880814502693  0.901956593797486  1.0000
  C   C33       1.0  0.6811409772569162  0.053283638493780885  0.16873797093521148  1.0000
  C   C34       1.0  0.3188613957092771  0.9467122647923883  0.8312626474066106  1.0000
  C   C35       1.0  0.36854215506732396  0.34748983741489065  0.7427593757228338  1.0000
  C   C36       1.0  0.6314553877248557  0.6525101670610663  0.2572425630544473  1.0000
  C   C37       1.0  0.38617777936557457  0.3101036320180056  0.6135224885158622  1.0000
  C   C38       1.0  0.613820972147522  0.6898953447849577  0.38647959480283595  1.0000
  N   N1        1.0  0.19835450884865216  0.5191320897733788  0.1040285456663383  1.0000
  N   N2        1.0  0.8016462617149429  0.48087104214249626  0.8959707368145259  1.0000
  N   N3        1.0  0.18523410463290446  0.6756919333346828  0.2025979002050916  1.0000
  N   N4        1.0  0.8147667319367783  0.32431016429656256  0.7974017390457961  1.0000
  N   N5        1.0  0.7082236038779257  0.15023673371801743  0.22116010825381946  1.0000
  N   N6        1.0  0.2917786323664373  0.8497612476395769  0.7788378979468575  1.0000
  N   N7        1.0  0.5177961254816452  0.23889720632585207  0.10638817875675952  1.0000
  N   N8        1.0  0.4822029466425591  0.7610966180582536  0.8936118912097868  1.0000
  O   O1        1.0  0.3067855283571674  0.25880479207483376  0.8576429966493181  1.0000
  O   O2        1.0  0.6932131547950249  0.7411952237638388  0.14235778059880033  1.0000
  O   O3        1.0  0.4149625184016442  0.46218500516513916  0.7318819116003824  1.0000
  O   O4        1.0  0.5850350220357114  0.5378150040618904  0.2681190778763423  1.0000
