data_image0
_chemical_formula_structural       Al2H16C22N4O12
_chemical_formula_sum              "Al2 H16 C22 N4 O12"
_cell_length_a       6.72682108449024
_cell_length_b       11.233163996733458
_cell_length_c       16.776583623738198
_cell_angle_alpha    79.74834576970805
_cell_angle_beta     84.6476161045362
_cell_angle_gamma    71.59889007596152

_space_group_name_H-M_alt    "P 1"
_space_group_IT_number       1

loop_
  _space_group_symop_operation_xyz
  'x, y, z'

loop_
  _atom_site_type_symbol
  _atom_site_label
  _atom_site_symmetry_multiplicity
  _atom_site_fract_x
  _atom_site_fract_y
  _atom_site_fract_z
  _atom_site_occupancy
  Al  Al1       1.0  0.49631367927684517  0.5035966724085129  0.5001438430031442  1.0000
  Al  Al2       1.0  0.9952686122332327  0.5045689748477358  0.5007482287555973  1.0000
  H   H1        1.0  0.20565543990583995  0.6216730535863491  0.411895651297506  1.0000
  H   H2        1.0  0.80385078844013  0.35749223417977294  0.569262680836644  1.0000
  H   H3        1.0  0.8573575359762345  0.5675411099521456  0.7250111267442065  1.0000
  H   H4        1.0  0.7822649013109172  0.5701341787533281  0.8746378780351874  1.0000
  H   H5        1.0  0.44508679547760027  0.4561322636172632  0.9097955883214013  1.0000
  H   H6        1.0  0.6078536336716809  0.4517337961147306  0.09995146306506798  1.0000
  H   H7        1.0  0.1551197293914798  0.5658799709742368  0.11308164239773077  1.0000
  H   H8        1.0  0.07695171777820063  0.5687505639122747  0.2619332659020657  1.0000
  H   H9        1.0  0.23225578593790172  0.8940862622552076  0.48881719030407567  1.0000
  H   H10       1.0  0.7587043788786261  0.11227964257841451  0.5109285696629656  1.0000
  H   H11       1.0  0.594413488764964  0.4601629524388926  0.6951354380976227  1.0000
  H   H12       1.0  0.6820470473391822  0.43094188090759633  0.7938496258203784  1.0000
  H   H13       1.0  0.462593381267709  0.44374380342060255  0.3155409094805322  1.0000
  H   H14       1.0  0.4038135149584575  0.41615687501875  0.2216541304415074  1.0000
  H   H15       1.0  0.060642590408839715  0.22625017003917955  0.48251961338829835  1.0000
  H   H16       1.0  0.933404214339845  0.7811906805450733  0.5154521556233647  1.0000
  C   C1        1.0  0.6254697848303152  0.7325149026881377  0.5011498089721015  1.0000
  C   C2        1.0  0.7737968863775961  0.5119143531767206  0.3540499484255051  1.0000
  C   C3        1.0  0.3655068337331714  0.27387082485965647  0.4998906733441117  1.0000
  C   C4        1.0  0.21814566142241174  0.49978714817996933  0.6457134099304938  1.0000
  C   C5        1.0  0.1907848219311249  0.5054151525330469  0.7331243814104553  1.0000
  C   C6        1.0  0.9843785345406244  0.5399010010277009  0.7669044441013924  1.0000
  C   C7        1.0  0.9415570065077927  0.5414257188823655  0.8488128019753134  1.0000
  C   C8        1.0  0.11265452723601771  0.5075861298469064  0.9000444060209674  1.0000
  C   C9        1.0  0.31792785550544533  0.4785159866648031  0.8682706690331513  1.0000
  C   C10       1.0  0.36335909747802486  0.4761429624437101  0.7843520824817316  1.0000
  C   C11       1.0  0.7108947530159925  0.47540120455688856  0.13695488055564198  1.0000
  C   C12       1.0  0.8863354155518266  0.5049923529533302  0.09948554347516848  1.0000
  C   C13       1.0  0.022674916642955643  0.5389987594610092  0.14416281289179267  1.0000
  C   C14       1.0  0.9777916366125727  0.5407077941853231  0.22588205260927197  1.0000
  C   C15       1.0  0.803726229697567  0.5085208106504666  0.2664563211402893  1.0000
  C   C16       1.0  0.665612472312411  0.47456043433928846  0.22116116824586374  1.0000
  C   C17       1.0  0.4303731016565919  0.1356442635835577  0.4989295253628683  1.0000
  C   C18       1.0  0.560186329252005  0.8709801246876056  0.5011781223546521  1.0000
  C   C19       1.0  0.2810343659170583  0.07245632016393702  0.4915805795443903  1.0000
  C   C20       1.0  0.7099681132589173  0.9342122140672444  0.5079423534598462  1.0000
  C   C21       1.0  0.3483484382021301  0.9413157194647682  0.49327070535030504  1.0000
  C   C22       1.0  0.6422482361138507  0.06528759952519182  0.5066211368269506  1.0000
  N   N1        1.0  0.09066786476867611  0.5043187666451061  0.9850591419513108  1.0000
  N   N2        1.0  0.9117198486892305  0.5020208482898453  0.015061734521530925  1.0000
  N   N3        1.0  0.566284562316099  0.44272449576291  0.7559921693815355  1.0000
  N   N4        1.0  0.4962068560432941  0.44128194938635096  0.2555154971831897  1.0000
  O   O1        1.0  0.4907581174024997  0.6775533881016998  0.4944551461057074  1.0000
  O   O2        1.0  0.9226999544123943  0.5251092114402313  0.3905248433485013  1.0000
  O   O3        1.0  0.16619647131913245  0.33330163372951915  0.495141620745926  1.0000
  O   O4        1.0  0.3952375902542828  0.5011927937418292  0.6100317727839053  1.0000
  O   O5        1.0  0.5019946440283719  0.32797422339318427  0.5058705077855592  1.0000
  O   O6        1.0  0.06398397956551355  0.49202799846693074  0.6099492547327685  1.0000
  O   O7        1.0  0.8239723578374268  0.6736064507500146  0.5073696303158357  1.0000
  O   O8        1.0  0.5997461943237711  0.5025168214691361  0.3896586896824275  1.0000
  O   O9        1.0  0.2229988638265112  0.5643314752310218  0.46299900832852364  1.0000
  O   O10       1.0  0.7698796267482494  0.44184759743745883  0.5376047186285859  1.0000
  O   O11       1.0  0.07399783140316168  0.1352715327525189  0.4824402672104639  1.0000
  O   O12       1.0  0.9173202660220243  0.8724253979865183  0.5159909905422995  1.0000
