data_image0
_chemical_formula_structural       Cu4H38C24I6N4O4
_chemical_formula_sum              "Cu4 H38 C24 I6 N4 O4"
_cell_length_a       8.463993061406551
_cell_length_b       8.693398617397092
_cell_length_c       12.954523469262872
_cell_angle_alpha    107.82242318106638
_cell_angle_beta     91.75131857492298
_cell_angle_gamma    96.85668000970634

_space_group_name_H-M_alt    "P 1"
_space_group_IT_number       1

loop_
  _space_group_symop_operation_xyz
  'x, y, z'

loop_
  _atom_site_type_symbol
  _atom_site_label
  _atom_site_symmetry_multiplicity
  _atom_site_fract_x
  _atom_site_fract_y
  _atom_site_fract_z
  _atom_site_occupancy
  Cu  Cu1       1.0  0.4760696433594589  0.7823967026851333  0.6665110590339081  1.0000
  Cu  Cu2       1.0  0.5239289674892903  0.21760351967942168  0.33349122664981207  1.0000
  Cu  Cu3       1.0  0.40630772198567655  0.9745649015338954  0.5750013554234525  1.0000
  Cu  Cu4       1.0  0.5936949937093061  0.025430459846845093  0.4249969285004126  1.0000
  H   H1        1.0  0.5186489729106114  0.8278693637173616  0.8971245991645131  1.0000
  H   H2        1.0  0.48133954701776815  0.17212594533238956  0.10287956149421966  1.0000
  H   H3        1.0  0.6545305997274581  0.4970992256165728  0.6191175122594712  1.0000
  H   H4        1.0  0.34546777122439914  0.5029083083616042  0.38088472478678154  1.0000
  H   H5        1.0  0.9563928754584978  0.35021569319026474  0.8405350812468197  1.0000
  H   H6        1.0  0.04360944286496956  0.6497857606734241  0.1594636726525848  1.0000
  H   H7        1.0  0.7861145339696022  0.27055939632678155  0.6245308700137142  1.0000
  H   H8        1.0  0.2138855760437934  0.7294432678266958  0.3754680873972233  1.0000
  H   H9        1.0  0.7103687007248637  0.1880806085777706  0.726148684589951  1.0000
  H   H10       1.0  0.2896314087593126  0.8119220559328538  0.2738510448147905  1.0000
  H   H11       1.0  0.748923148817198  0.4288910058926304  0.9317806187182567  1.0000
  H   H12       1.0  0.251081533174073  0.5711104582405184  0.06822050103178867  1.0000
  H   H13       1.0  0.12747841669281  0.1453240069405055  0.7527832357595726  1.0000
  H   H14       1.0  0.8725227184737036  0.8546774426813144  0.24721626519900028  1.0000
  H   H15       1.0  0.9644314435154087  0.059721276227357095  0.6524632926909886  1.0000
  H   H16       1.0  0.03557087427883938  0.9402801779934717  0.34753623320221266  1.0000
  H   H17       1.0  0.7846971423355669  0.0238606311445935  0.7944256873039208  1.0000
  H   H18       1.0  0.21530383641476186  0.976139598632258  0.20557278828005804  1.0000
  H   H19       1.0  0.9632161713651755  0.9399506216841046  0.8089240154832279  1.0000
  H   H20       1.0  0.0367846514981949  0.06004838789062459  0.19107266273236684  1.0000
  H   H21       1.0  0.0029341423487422853  0.5005109687434128  0.6982612496707359  1.0000
  H   H22       1.0  0.9970692016570621  0.4994892702314644  0.3017372757825  1.0000
  H   H23       1.0  0.1029124853647545  0.33198840103139565  0.6357395361740997  1.0000
  H   H24       1.0  0.8970884933855815  0.6680118287454562  0.36425893940987913  1.0000
  H   H25       1.0  0.2736329219416689  0.3896365954342755  0.8120018358464305  1.0000
  H   H26       1.0  0.7263692399656206  0.610363638584438  0.18799589267837985  1.0000
  H   H27       1.0  0.29143169003164354  0.5539941765619572  0.7560036826346914  1.0000
  H   H28       1.0  0.7085696010218215  0.4460084932619777  0.24399761569227238  1.0000
  H   H29       1.0  0.8605500952149541  0.0159787045135644  0.009707022258289996  1.0000
  H   H30       1.0  0.13944804744370742  0.9840178576017921  0.9902906433140614  1.0000
  H   H31       1.0  0.7176962215086319  0.127507779798556  0.9706666993814677  1.0000
  H   H32       1.0  0.28230176526307826  0.8724875621146921  0.02932916882249254  1.0000
  H   H33       1.0  0.9895273486359172  0.7178078970455815  0.8690913220713198  1.0000
  H   H34       1.0  0.010469767811180499  0.2821898803157339  0.13090734394099704  1.0000
  H   H35       1.0  0.18342043675535538  0.7755937715683672  0.8304438810764762  1.0000
  H   H36       1.0  0.8165753406478302  0.22440278134897076  0.16955373462662485  1.0000
  H   H37       1.0  0.6260581860234494  0.6813127408713908  0.016112931776966332  1.0000
  H   H38       1.0  0.3739372737843851  0.3186813755703284  0.9838895811211397  1.0000
  C   C1        1.0  0.5744919691406521  0.7181232352611461  0.8630299201616578  1.0000
  C   C2        1.0  0.4254951250877639  0.2818793829460944  0.13697879888776746  1.0000
  C   C3        1.0  0.6501464775201312  0.5340944167413966  0.7074028659880083  1.0000
  C   C4        1.0  0.34984628995007233  0.465915536074526  0.2926059290970854  1.0000
  C   C5        1.0  0.7826924461680774  0.29268073430087327  0.712455790756614  1.0000
  C   C6        1.0  0.21730726382769205  0.7073280241212885  0.28754749659885437  1.0000
  C   C7        1.0  0.7138015317088031  0.44500257174517793  0.7678302751573366  1.0000
  C   C8        1.0  0.2862033077570914  0.5550001115186445  0.23217032597970888  1.0000
  C   C9        1.0  0.7040151565015051  0.49588945536234524  0.8807419301130677  1.0000
  C   C10       1.0  0.2959838379981719  0.5041229594242863  0.11926749640674213  1.0000
  C   C11       1.0  0.9973856195872839  0.131876057578566  0.7375868461029852  1.0000
  C   C12       1.0  0.002615516108448884  0.8681253916861066  0.2624118828617909  1.0000
  C   C13       1.0  0.9146215758412808  0.05440078465691299  0.8149694216431199  1.0000
  C   C14       1.0  0.08537940343826725  0.9455994447627915  0.18502828194706908  1.0000
  C   C15       1.0  0.06665486092600048  0.40641385859171203  0.7140134576507574  1.0000
  C   C16       1.0  0.9333449357258203  0.5935863662289761  0.2859842210048028  1.0000
  C   C17       1.0  0.20978738179466205  0.4827072914579417  0.7942039460170914  1.0000
  C   C18       1.0  0.7902159616819162  0.5172929478740755  0.20579535142994124  1.0000
  C   C19       1.0  0.8434000104015879  0.13476198254137017  0.999557396105956  1.0000
  C   C20       1.0  0.15659947183021217  0.8652358036608232  0.0004405477818138081  1.0000
  C   C21       1.0  0.11868549887383749  0.7346062217822505  0.8920818305189753  1.0000
  C   C22       1.0  0.8813117750478908  0.26539277470974537  0.10791631688034183  1.0000
  C   C23       1.0  0.6351067682307557  0.6357483050818685  0.9285407584567903  1.0000
  C   C24       1.0  0.36490233986747705  0.36423245642383517  0.07145851940894227  1.0000
  I   I1        1.0  0.18354279647230234  0.7142599512470297  0.5760622530588717  1.0000
  I   I2        1.0  0.8164578683872321  0.2857378395541801  0.4239357157635266  1.0000
  I   I3        1.0  0.6744193079323891  0.8214360169246218  0.5137231334102379  1.0000
  I   I4        1.0  0.32558418878504375  0.1785654443952467  0.48628182137417736  1.0000
  I   I5        1.0  0.43771993108914836  0.081789905729039  0.8012781694401807  1.0000
  I   I6        1.0  0.5622789957672935  0.9182127541825691  0.19872153502993214  1.0000
  N   N1        1.0  0.5796632743456058  0.667951345638201  0.7536411659897265  1.0000
  N   N2        1.0  0.420334952322996  0.3320366846614249  0.24635475085170092  1.0000
  N   N3        1.0  0.9510224335160727  0.29947359617636243  0.7565370092418886  1.0000
  N   N4        1.0  0.048977363664967286  0.7005266282871786  0.24345989741987475  1.0000
  O   O1        1.0  0.9467654515357111  0.170203771534389  0.9214774954556402  1.0000
  O   O2        1.0  0.05323639542233848  0.8297940242229769  0.07852127029518383  1.0000
  O   O3        1.0  0.16651680337271554  0.5831068661961251  0.8966332634420763  1.0000
  O   O4        1.0  0.8334803125451626  0.4168909115223371  0.10336617456404434  1.0000
