data_image0
_chemical_formula_structural       Ni2H28C42S4N8O10
_chemical_formula_sum              "Ni2 H28 C42 S4 N8 O10"
_cell_length_a       9.055863143736149
_cell_length_b       9.474724838428624
_cell_length_c       13.3631019679195
_cell_angle_alpha    90.21775789944392
_cell_angle_beta     104.25568887146366
_cell_angle_gamma    107.0471879658161

_space_group_name_H-M_alt    "P 1"
_space_group_IT_number       1

loop_
  _space_group_symop_operation_xyz
  'x, y, z'

loop_
  _atom_site_type_symbol
  _atom_site_label
  _atom_site_symmetry_multiplicity
  _atom_site_fract_x
  _atom_site_fract_y
  _atom_site_fract_z
  _atom_site_occupancy
  Ni  Ni1       1.0  0.5000005157131537  0.500000822088232  1.4892238197084451e-07  1.0000
  Ni  Ni2       1.0  3.6401113589999985e-07  1.1076533112999995e-06  5.923395459999999e-08  1.0000
  H   H1        1.0  0.2685652672736794  0.2727544970918387  0.6885019316101335  1.0000
  H   H2        1.0  0.7314297064284286  0.7272392264138572  0.31149791202244603  1.0000
  H   H3        1.0  0.3445322286721363  0.08980096850524426  0.80733223279136  1.0000
  H   H4        1.0  0.6554710144621366  0.9101971714477413  0.19266816862202055  1.0000
  H   H5        1.0  0.46922365886020856  0.9116033220744911  0.7498038815311998  1.0000
  H   H6        1.0  0.5307813928709634  0.08839701201949877  0.2501945626114477  1.0000
  H   H7        1.0  0.3233786093639636  0.2818207591272568  0.5137394803830232  1.0000
  H   H8        1.0  0.6766144233929764  0.7181774053931134  0.4862608155063413  1.0000
  H   H9        1.0  0.5306634961730621  0.6262451647107735  0.7930658536382893  1.0000
  H   H10       1.0  0.4693374614131399  0.37375631524049874  0.2069356922847945  1.0000
  H   H11       1.0  0.6376272935429056  0.5766707662281334  0.6472606162917814  1.0000
  H   H12       1.0  0.36237173104758813  0.42333181724919905  0.3527398799344326  1.0000
  H   H13       1.0  0.8124108205157794  0.2510674083569312  0.824828263521006  1.0000
  H   H14       1.0  0.18758741782776406  0.7489329399029996  0.17516985977666616  1.0000
  H   H15       1.0  0.694260117450149  0.3129811385153473  0.9635342940093851  1.0000
  H   H16       1.0  0.3057397092861933  0.6870170052021507  0.0364655712380753  1.0000
  H   H17       1.0  0.10352861172820832  0.9524746598760527  0.229908676861811  1.0000
  H   H18       1.0  0.8964760680423677  0.04752790405324699  0.7700912100005226  1.0000
  H   H19       1.0  0.061253494629092076  0.04064393937181168  0.39497236541959774  1.0000
  H   H20       1.0  0.9387467155266193  0.9593553186359145  0.6050283105486968  1.0000
  H   H21       1.0  0.8903183170224407  0.3735068661448011  0.2252411976581925  1.0000
  H   H22       1.0  0.10968075433395799  0.6264923931177719  0.7747592995881262  1.0000
  H   H23       1.0  0.9393254209729136  0.27177186778666845  0.06853759498279292  1.0000
  H   H24       1.0  0.060675133785700525  0.7282284912374449  0.9314623887325836  1.0000
  H   H25       1.0  0.9029342382820005  0.24628616498701203  0.5879350523720176  1.0000
  H   H26       1.0  0.09707273054597468  0.7537197405581537  0.412067445374788  1.0000
  H   H27       1.0  0.829228458695297  0.3943177134262186  0.4658763715356216  1.0000
  H   H28       1.0  0.17076610422977004  0.6056782266409328  0.5341234118429057  1.0000
  C   C1        1.0  0.32359825749792737  0.19548236317449852  0.663482590520026  1.0000
  C   C2        1.0  0.6763986218422103  0.8045135876568352  0.3365190532761986  1.0000
  C   C3        1.0  0.36585284881786606  0.09228297136944258  0.7303684412567647  1.0000
  C   C4        1.0  0.6341466333155736  0.907714071331668  0.2696321162436135  1.0000
  C   C5        1.0  0.4355471910567914  0.9926325879509078  0.6988411949007088  1.0000
  C   C6        1.0  0.5644564160886176  0.007366659655389199  0.3011592657466267  1.0000
  C   C7        1.0  0.46580109149302723  0.996427684391463  0.6008537468013273  1.0000
  C   C8        1.0  0.534196841064059  0.003571576125942499  0.39914657172302265  1.0000
  C   C9        1.0  0.42570283910221457  0.10231011621882398  0.5338780656918373  1.0000
  C   C10       1.0  0.5742965574488608  0.8976902374231984  0.4661209878146906  1.0000
  C   C11       1.0  0.5403513917166974  0.8889364390607565  0.5695213449048424  1.0000
  C   C12       1.0  0.4596457740016646  0.11106059287617846  0.4304773521778387  1.0000
  C   C13       1.0  0.3539154496500955  0.20072315674035923  0.5659785851906278  1.0000
  C   C14       1.0  0.6460813908735901  0.7992727808171196  0.4340215556318441  1.0000
  C   C15       1.0  0.6113270771593802  0.8329097609607317  0.9607419456037859  1.0000
  C   C16       1.0  0.38867829181701546  0.16709500500132887  0.03925655675271858  1.0000
  C   C17       1.0  0.8661444364877087  0.7023326973874903  0.0904972331712059  1.0000
  C   C18       1.0  0.13385615708735796  0.29766767491047824  0.9095042535179232  1.0000
  C   C19       1.0  0.5932599208174949  0.5435423555382853  0.7971762510316792  1.0000
  C   C20       1.0  0.40674024257230457  0.4564602266842072  0.20282442391651048  1.0000
  C   C21       1.0  0.6535120812485217  0.5154117624606512  0.7157241053521516  1.0000
  C   C22       1.0  0.34648659873906246  0.484589720000301  0.28427708312698025  1.0000
  C   C23       1.0  0.7330665807059018  0.40817636509079586  0.7242709584530544  1.0000
  C   C24       1.0  0.26693285466163263  0.5918240018250814  0.2757295980272261  1.0000
  C   C25       1.0  0.7509384890192478  0.3347918557277651  0.8148092571926921  1.0000
  C   C26       1.0  0.24906052411246543  0.665207383624022  0.1851889855930011  1.0000
  C   C27       1.0  0.6868382473733732  0.369526277145482  0.8925580700424903  1.0000
  C   C28       1.0  0.31316265198814347  0.6304751828950186  0.10744122141996827  1.0000
  C   C29       1.0  0.7937156304250124  0.37236060449465913  0.6368461340362259  1.0000
  C   C30       1.0  0.20628375817660327  0.6276430866359846  0.36315442142394966  1.0000
  C   C31       1.0  0.0568585669320854  0.045537104528420996  0.2325782694726328  1.0000
  C   C32       1.0  0.9431423518376576  0.954464362149004  0.7674217734766982  1.0000
  C   C33       1.0  0.034117654366738685  0.09513446098908669  0.32415396756089615  1.0000
  C   C34       1.0  0.965883264403011  0.9048670056883381  0.6758460753884349  1.0000
  C   C35       1.0  0.9700834184391168  0.212816853572022  0.322317679634665  1.0000
  C   C36       1.0  0.029915633509055826  0.78718239905362  0.677682066124774  1.0000
  C   C37       1.0  0.9379328828192398  0.28008120882986987  0.2299586867529442  1.0000
  C   C38       1.0  0.062065413748982154  0.7199191593408399  0.7700416910053606  1.0000
  C   C39       1.0  0.9640076062679482  0.2234885469563679  0.1422772950689648  1.0000
  C   C40       1.0  0.03599296789889183  0.7765118187046693  0.8577234401332846  1.0000
  C   C41       1.0  0.9300901716752961  0.26178652431595134  0.4153406074448469  1.0000
  C   C42       1.0  0.06991117727972092  0.7382127324369491  0.5846602472454236  1.0000
  S   S1        1.0  0.7149184974674581  0.9993482375172957  0.9451658593099879  1.0000
  S   S2        1.0  0.28508274649696824  0.0006543235395852997  0.054832739899552486  1.0000
  S   S3        1.0  0.7583877596661635  0.5594915898438015  0.13424528939265906  1.0000
  S   S4        1.0  0.24161470073048005  0.4405109965059494  0.8657564944863552  1.0000
  N   N1        1.0  0.5351130225445289  0.7115922800274957  0.9713772687300802  1.0000
  N   N2        1.0  0.464888373176393  0.2884036525106453  0.02862358698028797  1.0000
  N   N3        1.0  0.9459954777841728  0.8059950549040875  0.058997832341020684  1.0000
  N   N4        1.0  0.054004302186264376  0.19400641302817687  0.9410020318863345  1.0000
  N   N5        1.0  0.6083228401521836  0.47111266191737383  0.8839016043912266  1.0000
  N   N6        1.0  0.39167771460643047  0.5288876971067394  0.11609837932414276  1.0000
  N   N7        1.0  0.01862516152808519  0.10581871614948568  0.14250776188379177  1.0000
  N   N8        1.0  0.9813768572245177  0.8941827359992444  0.8574909568137699  1.0000
  O   O1        1.0  0.572630838338469  0.7947391740463344  0.6279268561475887  1.0000
  O   O2        1.0  0.42736626120575477  0.2052611754684363  0.3720710884281145  1.0000
  O   O3        1.0  0.8622339398568498  0.2665198091307204  0.6515887144241361  1.0000
  O   O4        1.0  0.13777142117009325  0.7334882943199473  0.34841128988601605  1.0000
  O   O5        1.0  0.7776981419647341  0.4392741228677436  0.55641193528578  1.0000
  O   O6        1.0  0.22229977118412578  0.5607251310127308  0.44358763175168997  1.0000
  O   O7        1.0  0.9590917091589403  0.20395036023487015  0.49895917100459286  1.0000
  O   O8        1.0  0.04091678983716203  0.7960533208570835  0.5010428142313755  1.0000
  O   O9        1.0  0.8602254440891312  0.3664493728649133  0.4000836113007793  1.0000
  O   O10       1.0  0.1397683908136641  0.6335443518956223  0.5999160536098315  1.0000
