data_image0
_chemical_formula_structural       Cu8H24C24S24Br8N24
_chemical_formula_sum              "Cu8 H24 C24 S24 Br8 N24"
_cell_length_a       11.774910492000549
_cell_length_b       11.774942379001315
_cell_length_c       11.774938285001038
_cell_angle_alpha    89.99995513145755
_cell_angle_beta     90.0000175708245
_cell_angle_gamma    90.00003026112266

_space_group_name_H-M_alt    "P 1"
_space_group_IT_number       1

loop_
  _space_group_symop_operation_xyz
  'x, y, z'

loop_
  _atom_site_type_symbol
  _atom_site_label
  _atom_site_symmetry_multiplicity
  _atom_site_fract_x
  _atom_site_fract_y
  _atom_site_fract_z
  _atom_site_occupancy
  Cu  Cu1       1.0  0.8894991268121686  0.6105015837576033  0.38949832944793883  1.0000
  Cu  Cu2       1.0  0.3895005291286395  0.8895006074142913  0.6104988770275456  1.0000
  Cu  Cu3       1.0  0.6105025443710943  0.3894981098425345  0.8895001445559031  1.0000
  Cu  Cu4       1.0  0.11049770134219732  0.11049819120952982  0.1104973680922541  1.0000
  Cu  Cu5       1.0  0.11050039938357509  0.3894980869841333  0.6105007286363531  1.0000
  Cu  Cu6       1.0  0.6104981478037815  0.11049821406549395  0.3895018795796545  1.0000
  Cu  Cu7       1.0  0.38950037887820343  0.6105015608997632  0.11049976279026201  1.0000
  Cu  Cu8       1.0  0.8894984277997652  0.8895006302705754  0.8895008407304985  1.0000
  H   H1        1.0  0.16582662339159532  0.8354264095217941  0.5820579504767309  1.0000
  H   H2        1.0  0.5820623457527033  0.16582908841289876  0.8354260590702794  1.0000
  H   H3        1.0  0.8354239393905871  0.5820624520079818  0.1658258223992348  1.0000
  H   H4        1.0  0.33417159837021876  0.16457410987842275  0.08205901563562182  1.0000
  H   H5        1.0  0.8341738737540751  0.33542485707070563  0.9179411134838132  1.0000
  H   H6        1.0  0.6658261076125028  0.6645739650116552  0.4179417350949919  1.0000
  H   H7        1.0  0.0820567881740359  0.33417569023077937  0.16457229410200822  1.0000
  H   H8        1.0  0.9179418566618479  0.8341748938067112  0.3354240774057616  1.0000
  H   H9        1.0  0.4179406095951563  0.665826463121192  0.6645782333723105  1.0000
  H   H10       1.0  0.16457287374113602  0.08205891298930369  0.33417074669007013  1.0000
  H   H11       1.0  0.3354254252289407  0.9179414091298739  0.8341730659922105  1.0000
  H   H12       1.0  0.6645734169794153  0.4179442107049097  0.6658284810835582  1.0000
  H   H13       1.0  0.8341729028041842  0.16457241195821837  0.41794280613059703  1.0000
  H   H14       1.0  0.4179439745510792  0.8341731301124683  0.1645763960594593  1.0000
  H   H15       1.0  0.1645738882799819  0.41794401282241  0.8341715371594346  1.0000
  H   H16       1.0  0.6658313248790434  0.8354264101255993  0.9179391931875074  1.0000
  H   H17       1.0  0.16582735096837814  0.6645748136714785  0.08205794460074152  1.0000
  H   H18       1.0  0.3341742678464072  0.3354240072075213  0.5820590215127979  1.0000
  H   H19       1.0  0.9179410394961777  0.6658299253388902  0.8354242161956407  1.0000
  H   H20       1.0  0.0820610665881247  0.16582732471874806  0.6645758299394018  1.0000
  H   H21       1.0  0.5820580673382382  0.33417405687937657  0.3354259202796257  1.0000
  H   H22       1.0  0.8354241046641491  0.9179407577527524  0.6658257636097745  1.0000
  H   H23       1.0  0.664574100967549  0.08205911087158309  0.1658293891371514  1.0000
  H   H24       1.0  0.3354269584811007  0.5820588570799429  0.3341739740449441  1.0000
  C   C1        1.0  0.0331521328305726  0.821267539060514  0.4673082896426095  1.0000
  C   C2        1.0  0.4673055975767327  0.0331549536854183  0.8212782485858767  1.0000
  C   C3        1.0  0.8212641208343213  0.46731374332681247  0.033150010574338806  1.0000
  C   C4        1.0  0.4668428098597346  0.1787343773969781  0.9673146256639954  1.0000
  C   C5        1.0  0.9668465051857424  0.321264659612268  0.0326855441980243  1.0000
  C   C6        1.0  0.5331499611454332  0.67873106688792  0.5326939029702089  1.0000
  C   C7        1.0  0.9673094145291472  0.46684748060847875  0.17873211255316335  1.0000
  C   C8        1.0  0.032688451125629604  0.9668462277896096  0.3212616071959502  1.0000
  C   C9        1.0  0.5326870965296706  0.5331566242207871  0.6787371882275296  1.0000
  C   C10       1.0  0.17872949874967503  0.9673133029721014  0.4668403117629866  1.0000
  C   C11       1.0  0.3212739364298471  0.0326886138564575  0.9668399234449155  1.0000
  C   C12       1.0  0.6787331949033303  0.5326862291160239  0.5331568299880374  1.0000
  C   C13       1.0  0.9668431470473634  0.17872873463620206  0.53268991918101  1.0000
  C   C14       1.0  0.5326896823049266  0.966845566309935  0.1787369454631076  1.0000
  C   C15       1.0  0.1787345560983695  0.532691022983684  0.9668422534170135  1.0000
  C   C16       1.0  0.5331558670744201  0.8212695396481492  0.0326886787252647  1.0000
  C   C17       1.0  0.033154719535744406  0.6787333126091326  0.9673101168417946  1.0000
  C   C18       1.0  0.46684362020709347  0.32126520680503023  0.467312798466665  1.0000
  C   C19       1.0  0.0326918101945566  0.5331564364386522  0.8212677947910763  1.0000
  C   C20       1.0  0.9673042809604695  0.0331517444341998  0.6787221641836397  1.0000
  C   C21       1.0  0.4673166759834615  0.4668438957821194  0.3212644176411317  1.0000
  C   C22       1.0  0.8212640826024256  0.0326838199835606  0.5331621433667949  1.0000
  C   C23       1.0  0.678730685345414  0.9673102076265605  0.033156586856435404  1.0000
  C   C24       1.0  0.32127397466187796  0.46730919532144805  0.4668447758831463  1.0000
  S   S1        1.0  0.9750819907423888  0.7094030965990682  0.5308425690625498  1.0000
  S   S2        1.0  0.5308451657262693  0.9750772456152604  0.7093995958690231  1.0000
  S   S3        1.0  0.7094035589201796  0.5308440170795948  0.975078472208516  1.0000
  S   S4        1.0  0.524917022814428  0.29059687765214187  0.0308434404873807  1.0000
  S   S5        1.0  0.0249201383595121  0.20940362451179334  0.969154895138992  1.0000
  S   S6        1.0  0.4750790512121554  0.7905965919809572  0.4691580607405471  1.0000
  S   S7        1.0  0.0308420311716446  0.5249179620734451  0.29059495268436564  1.0000
  S   S8        1.0  0.9691539025116781  0.02492089039254349  0.2093974148795539  1.0000
  S   S9        1.0  0.4691562544535088  0.47507984635953443  0.7906010571686083  1.0000
  S   S10       1.0  0.2905993251214767  0.0308407866034557  0.5249174334083763  1.0000
  S   S11       1.0  0.2093971806129815  0.9691512848973285  0.0249220760078117  1.0000
  S   S12       1.0  0.7905955906834022  0.4691607051173605  0.47508438085111493  1.0000
  S   S13       1.0  0.0249175354537456  0.2905965741416664  0.46915903680579873  1.0000
  S   S14       1.0  0.46915520973215763  0.024919877343528192  0.2905994622163989  1.0000
  S   S15       1.0  0.2906002135924339  0.4691565029246475  0.024919736614748403  1.0000
  S   S16       1.0  0.47508080485473414  0.7094027930888058  0.9691564668580029  1.0000
  S   S17       1.0  0.9750819356265765  0.7905985940147744  0.030841615160639404  1.0000
  S   S18       1.0  0.5249230227735068  0.20940053097694997  0.5308443943905345  1.0000
  S   S19       1.0  0.9691566457601866  0.4750825579311097  0.7093990098313513  1.0000
  S   S20       1.0  0.030848171472783296  0.9750736847835242  0.7906016432071257  1.0000
  S   S21       1.0  0.5308432717423415  0.52491727659703  0.20940309648479172  1.0000
  S   S22       1.0  0.7093968040191072  0.9691537885720437  0.4750790768933372  1.0000
  S   S23       1.0  0.7906006470558395  0.03084413953634879  0.975082926907341  1.0000
  S   S24       1.0  0.2094013877243057  0.5308432119266512  0.5249206220605771  1.0000
  Br  Br1       1.0  0.7655729331461459  0.7344266220866941  0.2655723469476712  1.0000
  Br  Br2       1.0  0.26557176016126494  0.7655721065975455  0.7344273692559753  1.0000
  Br  Br3       1.0  0.7344287000854947  0.26557401774830675  0.7655725987092551  1.0000
  Br  Br4       1.0  0.2344307545803588  0.23443084135621456  0.2344291983002051  1.0000
  Br  Br5       1.0  0.2344282915766627  0.2655738979162123  0.7344275603978971  1.0000
  Br  Br6       1.0  0.7344303138253495  0.23443011192770064  0.2655725380890601  1.0000
  Br  Br7       1.0  0.26557337390089936  0.7344273515158759  0.23442730863611422  1.0000
  Br  Br8       1.0  0.7655730179333206  0.7655722264302015  0.7655715583061138  1.0000
  N   N1        1.0  0.9892477220086137  0.8714735946305509  0.37203742911852805  1.0000
  N   N2        1.0  0.37204059010326773  0.9892538550798307  0.871479396312786  1.0000
  N   N3        1.0  0.8714769379885964  0.3720390309308782  0.9892493342305642  1.0000
  N   N4        1.0  0.5107420541363153  0.12851167519239942  0.8720377195988646  1.0000
  N   N5        1.0  0.010748394742847701  0.3714820253968937  0.1279648579843951  1.0000
  N   N6        1.0  0.4892523888685858  0.6285227043874357  0.6279640542986158  1.0000
  N   N7        1.0  0.8720390551675337  0.5107432313062786  0.1285161062801592  1.0000
  N   N8        1.0  0.1279679114528065  0.010747287108877398  0.37148136796183456  1.0000
  N   N9        1.0  0.6279693301976436  0.48925326947173886  0.6285195470945055  1.0000
  N   N10       1.0  0.12851933218039593  0.8720406194842097  0.5107429069440386  1.0000
  N   N11       1.0  0.37148226479698826  0.12796590054794876  0.010746560036452  1.0000
  N   N12       1.0  0.6285162711108967  0.6279639816533019  0.4892559179074781  1.0000
  N   N13       1.0  0.010742462287609599  0.12851673423742943  0.6279607797066405  1.0000
  N   N14       1.0  0.6279665794620614  0.010744966403862601  0.1285171139889556  1.0000
  N   N15       1.0  0.1285183418898725  0.6279631875958883  0.0107420804999165  1.0000
  N   N16       1.0  0.4892506779498333  0.8714761058917586  0.1279638862730934  1.0000
  N   N17       1.0  0.9892536792442143  0.6285218916504575  0.8720350493599724  1.0000
  N   N18       1.0  0.5107496851183057  0.3714820619219735  0.37203330526136824  1.0000
  N   N19       1.0  0.1279647173434029  0.4892538916557285  0.8714770069763277  1.0000
  N   N20       1.0  0.8720401073772521  0.9892498358482766  0.6285270319996246  1.0000
  N   N21       1.0  0.37203699010522223  0.5107430042245723  0.3714871543443223  1.0000
  N   N22       1.0  0.8714810432805535  0.12796754386930329  0.4892536033530065  1.0000
  N   N23       1.0  0.6285189599286553  0.8720414135407423  0.989260141397267  1.0000
  N   N24       1.0  0.3714773102421701  0.37203483982314384  0.5107499342670394  1.0000
