data_image0
_chemical_formula_structural       Al2H12C22O10F2
_chemical_formula_sum              "Al2 H12 C22 O10 F2"
_cell_length_a       6.657460559057481
_cell_length_b       11.159290681804567
_cell_length_c       11.237031632704218
_cell_angle_alpha    79.74520576779287
_cell_angle_beta     72.7163455553232
_cell_angle_gamma    72.0314424334309

_space_group_name_H-M_alt    "P 1"
_space_group_IT_number       1

loop_
  _space_group_symop_operation_xyz
  'x, y, z'

loop_
  _atom_site_type_symbol
  _atom_site_label
  _atom_site_symmetry_multiplicity
  _atom_site_fract_x
  _atom_site_fract_y
  _atom_site_fract_z
  _atom_site_occupancy
  Al  Al1       1.0  0.49233309538503506  0.48522329078532783  0.5072870474788189  1.0000
  Al  Al2       1.0  0.9928232676735004  0.485283468810522  0.5056604902470028  1.0000
  H   H1        1.0  0.21298209411100547  0.39725643809866545  0.6515107927839168  1.0000
  H   H2        1.0  0.6972239695908016  0.6402463812335667  0.44317188959883685  1.0000
  H   H3        1.0  0.01248323599589446  0.7087924216371062  0.10065490298850932  1.0000
  H   H4        1.0  0.9270228220748322  0.5686405619149467  0.11706482853551851  1.0000
  H   H5        1.0  0.046576151026499805  0.5662547704791192  0.8808812403177342  1.0000
  H   H6        1.0  0.1301138778453676  0.7064283609892927  0.8675709151689971  1.0000
  H   H7        1.0  0.2688391955599911  0.2303614808286341  0.3378826797851602  1.0000
  H   H8        1.0  0.637009408727316  0.119398996523401  0.2203133103499084  1.0000
  H   H9        1.0  0.4817732577357318  0.7626811844158041  0.3326549676290896  1.0000
  H   H10       1.0  0.7422483956472372  0.884506040117245  0.21640995461385873  1.0000
  H   H11       1.0  0.7375614205461716  0.867159658464452  0.5804985429915845  1.0000
  H   H12       1.0  0.6239127976305453  0.10333722263175821  0.5724567484963359  1.0000
  C   C1        1.0  0.8652063327639183  0.26094387850969275  0.48789423370139656  1.0000
  C   C2        1.0  0.6360533489526787  0.4769645129650328  0.7340839386593387  1.0000
  C   C3        1.0  0.12985012285434278  0.7155176002458674  0.49816314868171224  1.0000
  C   C4        1.0  0.3555913466607663  0.4837347444785252  0.28189928380977847  1.0000
  C   C5        1.0  0.42767625690177613  0.47762713488089037  0.1438829119670544  1.0000
  C   C6        1.0  0.5659714907809031  0.47475438521311736  0.8730812696346246  1.0000
  C   C7        1.0  0.28696377315770866  0.5349571566366506  0.06706823805257761  1.0000
  C   C8        1.0  0.7086207142111219  0.4150705618321098  0.9498996409370404  1.0000
  C   C9        1.0  0.35295969236932473  0.5335797920528763  0.9373825071920976  1.0000
  C   C10       1.0  0.6418839946629259  0.41609147958351395  0.08039215729146326  1.0000
  C   C11       1.0  0.0565574073151254  0.6147567154771919  0.06765264535360418  1.0000
  C   C12       1.0  0.13144336300496204  0.6133319835684858  0.9201564494578278  1.0000
  C   C13       1.0  0.9424044216876052  0.1223541977961915  0.4733798642456648  1.0000
  C   C14       1.0  0.16149723436914337  0.06057289748009251  0.408874621677505  1.0000
  C   C15       1.0  0.7916566332672444  0.053344456626334094  0.5287558711288155  1.0000
  C   C16       1.0  0.3157388526488205  0.1279873707311339  0.33896630597562444  1.0000
  C   C17       1.0  0.5212308436191151  0.06572599233532371  0.2727562280997304  1.0000
  C   C18       1.0  0.0688359732184338  0.8565542618009373  0.4786025977933051  1.0000
  C   C19       1.0  0.8549696115873218  0.9209549358565711  0.5323144616731526  1.0000
  C   C20       1.0  0.22476537991718698  0.924723179444591  0.4098577649862635  1.0000
  C   C21       1.0  0.4361949562374647  0.8644143324430331  0.337539586808866  1.0000
  C   C22       1.0  0.5811841369087103  0.9330663807747257  0.27116298808557093  1.0000
  O   O1        1.0  0.664906493637247  0.3151832000510523  0.4924052230591869  1.0000
  O   O2        1.0  0.8306717443685087  0.4822667115106611  0.6802021022504119  1.0000
  O   O3        1.0  0.9856664434118299  0.6612007246842637  0.5002383950727493  1.0000
  O   O4        1.0  0.49222692891967057  0.49369756261993564  0.3352162266895887  1.0000
  O   O5        1.0  0.3200306554188189  0.659467540556392  0.5134112428481713  1.0000
  O   O6        1.0  0.15861409978946028  0.48228620081820844  0.3339007545777193  1.0000
  O   O7        1.0  0.00025395374439094137  0.31444585290970645  0.5002820069895719  1.0000
  O   O8        1.0  0.49160137108900415  0.4752824601867116  0.6817069868006627  1.0000
  O   O9        1.0  0.2428605200648163  0.4284835873490778  0.5635390364800088  1.0000
  O   O10       1.0  0.7357649049821404  0.5483890630470754  0.45485682744288874  1.0000
  F   F1        1.0  0.9178844904487986  0.34937929097628023  0.9001554798929164  1.0000
  F   F2        1.0  0.7917212810831343  0.3507192758561715  0.14448017528260954  1.0000
