data_image0
_chemical_formula_structural       Li2H42C26S2N2
_chemical_formula_sum              "Li2 H42 C26 S2 N2"
_cell_length_a       7.569185338449248
_cell_length_b       9.268580094648739
_cell_length_c       10.542364323686195
_cell_angle_alpha    85.44782784502378
_cell_angle_beta     72.99734083344518
_cell_angle_gamma    69.73262329886309

_space_group_name_H-M_alt    "P 1"
_space_group_IT_number       1

loop_
  _space_group_symop_operation_xyz
  'x, y, z'

loop_
  _atom_site_type_symbol
  _atom_site_label
  _atom_site_symmetry_multiplicity
  _atom_site_fract_x
  _atom_site_fract_y
  _atom_site_fract_z
  _atom_site_occupancy
  Li  Li1       1.0  0.39965150436106  0.9208375604336612  0.010674077606957221  1.0000
  Li  Li2       1.0  0.6003424466256747  0.07916532142792218  0.9893284426060518  1.0000
  H   H1        1.0  0.0706899287929801  0.09609438422034339  0.47239536449477265  1.0000
  H   H2        1.0  0.9293118652702079  0.9038935342100273  0.5276074295027514  1.0000
  H   H3        1.0  0.989100999541783  0.379061022361519  0.47133298298125953  1.0000
  H   H4        1.0  0.010892555344440875  0.6209268508314877  0.5286791479400108  1.0000
  H   H5        1.0  0.10347445512790884  0.5063992032775247  0.2600203043807952  1.0000
  H   H6        1.0  0.8965087142265488  0.49359672865980986  0.7399934951976165  1.0000
  H   H7        1.0  0.301133712558304  0.3518850984051554  0.05664842816266002  1.0000
  H   H8        1.0  0.6988532539506668  0.6481212068048875  0.9433600887522574  1.0000
  H   H9        1.0  0.7126048824585707  0.7538454223071228  0.14997755765706006  1.0000
  H   H10       1.0  0.28740245995477653  0.2461551875347538  0.8500165841374995  1.0000
  H   H11       1.0  0.639951333495432  0.9201781435537911  0.2516444081135631  1.0000
  H   H12       1.0  0.3600531638627729  0.0798258927643687  0.7483539047222437  1.0000
  H   H13       1.0  0.7904879700205852  0.7403930107635618  0.2962428357787061  1.0000
  H   H14       1.0  0.2095180234383279  0.2596075677165999  0.7037563367046218  1.0000
  H   H15       1.0  0.40075891179569095  0.9372559575839077  0.48861272672202477  1.0000
  H   H16       1.0  0.5992462970149361  0.06274002785122687  0.5113859662639015  1.0000
  H   H17       1.0  0.30070561340215113  0.7872605636941968  0.5391135241216461  1.0000
  H   H18       1.0  0.6992976904551752  0.2127365992988004  0.46088170046704857  1.0000
  H   H19       1.0  0.5539411745866901  0.7530859714094689  0.521664161701338  1.0000
  H   H20       1.0  0.44606075387068234  0.24691118620961564  0.47833230317451136  1.0000
  H   H21       1.0  0.549185566493101  0.554844874013632  0.22155896521562107  1.0000
  H   H22       1.0  0.45081764310899786  0.4451557262034669  0.7784379498400043  1.0000
  H   H23       1.0  0.6330813229075858  0.5220086389377626  0.36541076488646956  1.0000
  H   H24       1.0  0.366921504287447  0.47798965501139895  0.6345873318210594  1.0000
  H   H25       1.0  0.3788605066830826  0.5677331870697484  0.38157400899761745  1.0000
  H   H26       1.0  0.6211417099261354  0.4322697140413823  0.6184229646932593  1.0000
  H   H27       1.0  0.9996038293348802  0.8994024851318231  0.12304738080102591  1.0000
  H   H28       1.0  0.0003961131367305016  0.1005992742753321  0.876949201345333  1.0000
  H   H29       1.0  0.9140703380146037  0.8746704211075594  0.9883776362665133  1.0000
  H   H30       1.0  0.08593652112506328  0.12533132618743542  0.0116184300464823  1.0000
  H   H31       1.0  0.2268827364121932  0.9257581366903692  0.7627469279506585  1.0000
  H   H32       1.0  0.7731225588170645  0.07425047967892338  0.2372537595833536  1.0000
  H   H33       1.0  0.41198394163617286  0.7442531965427435  0.7591337140510533  1.0000
  H   H34       1.0  0.5880232122667124  0.2557542877473437  0.24086380867736068  1.0000
  H   H35       1.0  0.16337922574675198  0.7559346278955843  0.7796492465802843  1.0000
  H   H36       1.0  0.8366274052141733  0.24407403282933163  0.22034451506414846  1.0000
  H   H37       1.0  0.4094520023222827  0.5917311333561415  0.9506559530993428  1.0000
  H   H38       1.0  0.590547557742255  0.408268319783069  0.04934181069891256  1.0000
  H   H39       1.0  0.2362988954266213  0.6643965022476978  0.106586350371856  1.0000
  H   H40       1.0  0.7636992694038156  0.335602965008455  0.8934098109123525  1.0000
  H   H41       1.0  0.1579895116628691  0.610642184019177  0.9777921886988568  1.0000
  H   H42       1.0  0.8420067680484138  0.38935844130399033  0.022203346989328975  1.0000
  C   C1        1.0  0.24219833247901332  0.06416771364472142  0.2642527395740757  1.0000
  C   C2        1.0  0.757795712762949  0.9358317309927527  0.7357480901720025  1.0000
  C   C3        1.0  0.12637154143889265  0.15115847285094466  0.38145705167308114  1.0000
  C   C4        1.0  0.8736167074400213  0.8488352132957928  0.6185472828061979  1.0000
  C   C5        1.0  0.07897489526386181  0.31073688330690885  0.3807919928948138  1.0000
  C   C6        1.0  0.9210098313896254  0.6892521860530749  0.619216237862183  1.0000
  C   C7        1.0  0.14320584466487665  0.38126956084912683  0.2624071857464614  1.0000
  C   C8        1.0  0.8567814905577292  0.6187263482282288  0.7376085785729034  1.0000
  C   C9        1.0  0.2565191668400288  0.29101858882854964  0.14740160777146372  1.0000
  C   C10       1.0  0.7434730461738184  0.7089819619003279  0.8526061771818193  1.0000
  C   C11       1.0  0.31507110453752313  0.1281379481013118  0.1418064016540441  1.0000
  C   C12       1.0  0.6849252214534262  0.8718626317431911  0.8581957672369571  1.0000
  C   C13       1.0  0.48508555224712074  0.7623137704069193  0.33545984230713094  1.0000
  C   C14       1.0  0.5149218298345062  0.23768680045324686  0.6645399850898457  1.0000
  C   C15       1.0  0.6678798232013106  0.7958941003500756  0.25295756459155433  1.0000
  C   C16       1.0  0.33212702932697624  0.20410765344186635  0.7470375541210358  1.0000
  C   C17       1.0  0.43109987027012414  0.8132370362101253  0.47977882639759173  1.0000
  C   C18       1.0  0.5689029503135289  0.18676126423599024  0.5202183227095389  1.0000
  C   C19       1.0  0.5122257985433836  0.5919184094283165  0.3251647272210577  1.0000
  C   C20       1.0  0.4877787864586693  0.4080821961626953  0.6748309475474132  1.0000
  C   C21       1.0  0.019736326808448654  0.9153676243111163  0.016015971328926123  1.0000
  C   C22       1.0  0.9802652456873843  0.08462720105222128  0.9839854656004478  1.0000
  C   C23       1.0  0.2574035171921026  0.811058158151681  0.8049775823418557  1.0000
  C   C24       1.0  0.7426008660767353  0.1889493348814426  0.19501957815966622  1.0000
  C   C25       1.0  0.25770844792854314  0.6629921083155422  0.9991925472214408  1.0000
  C   C26       1.0  0.7422881133232052  0.33701426699662557  0.0008025496813602192  1.0000
  S   S1        1.0  0.27700108469939977  0.8622029520513266  0.2644213790594421  1.0000
  S   S2        1.0  0.7230036143920273  0.1377941968247214  0.7355754480433064  1.0000
  N   N1        1.0  0.22296202143508032  0.8197392322813285  0.9493096111365206  1.0000
  N   N2        1.0  0.7770345728735748  0.18026711054608313  0.05069022376829929  1.0000
