data_image0
_chemical_formula_structural       Ag4H32C24S12O16F12
_chemical_formula_sum              "Ag4 H32 C24 S12 O16 F12"
_cell_length_a       9.644291974535125
_cell_length_b       11.534122507452196
_cell_length_c       13.1086915440268
_cell_angle_alpha    65.99486598116312
_cell_angle_beta     68.39050698397885
_cell_angle_gamma    65.25982271745951

_space_group_name_H-M_alt    "P 1"
_space_group_IT_number       1

loop_
  _space_group_symop_operation_xyz
  'x, y, z'

loop_
  _atom_site_type_symbol
  _atom_site_label
  _atom_site_symmetry_multiplicity
  _atom_site_fract_x
  _atom_site_fract_y
  _atom_site_fract_z
  _atom_site_occupancy
  Ag  Ag1       1.0  0.9630761100911371  0.8678108601426829  0.7820040229876356  1.0000
  Ag  Ag2       1.0  0.3871152507686376  0.3676353514467863  0.28181539408576844  1.0000
  Ag  Ag3       1.0  0.036922121871690215  0.13218566990234137  0.21799443591135062  1.0000
  Ag  Ag4       1.0  0.6128848726764458  0.6323651603570112  0.7181853758160418  1.0000
  H   H1        1.0  0.9271181818961625  0.6051758237735569  0.04874096609966482  1.0000
  H   H2        1.0  0.41912234218512606  0.10457405133548998  0.5485493499918661  1.0000
  H   H3        1.0  0.07287985309909562  0.39482168799392536  0.9512604325631886  1.0000
  H   H4        1.0  0.5808783410782328  0.8954224730394243  0.4514500059128468  1.0000
  H   H5        1.0  0.11995870463107385  0.5851079748266984  0.9560002761422768  1.0000
  H   H6        1.0  0.3390733122746282  0.0847103683654353  0.45577436758013334  1.0000
  H   H7        1.0  0.8800385830001431  0.41489153784315386  0.044000615612134183  1.0000
  H   H8        1.0  0.6609269384018929  0.9152871627035709  0.5442236704643336  1.0000
  H   H9        1.0  0.09922708184273434  0.45381433875831334  0.17101808770402735  1.0000
  H   H10       1.0  0.2757892720954087  0.9534673608670019  0.6708924191831543  1.0000
  H   H11       1.0  0.9007729129614006  0.5461841802760645  0.8289818256982787  1.0000
  H   H12       1.0  0.7242102203857499  0.046530165849134206  0.32910638426542965  1.0000
  H   H13       1.0  0.04495570396944976  0.6064116685046415  0.19991507045166665  1.0000
  H   H14       1.0  0.1487881963911944  0.10618014881071502  0.6997275888406379  1.0000
  H   H15       1.0  0.9550454816168847  0.39358584818850767  0.8000853954067682  1.0000
  H   H16       1.0  0.8512133039723369  0.8938163736741556  0.3002720660659862  1.0000
  H   H17       1.0  0.31825336187022657  0.6678953881176569  0.1985819487988678  1.0000
  H   H18       1.0  0.8150703275046283  0.16816824775943218  0.6985758355678727  1.0000
  H   H19       1.0  0.6817499804925545  0.33210215411993  0.8014140920351597  1.0000
  H   H20       1.0  0.18493011071765877  0.831831269836087  0.3014241233821268  1.0000
  H   H21       1.0  0.440794922023109  0.6909457269330304  0.05400433324495428  1.0000
  H   H22       1.0  0.8139244818732863  0.19126927463801016  0.55405706450631  1.0000
  H   H23       1.0  0.5592049549713919  0.30905280458716083  0.9459934513452952  1.0000
  H   H24       1.0  0.18607526788977669  0.8087322376169725  0.4459434519412824  1.0000
  H   H25       1.0  0.26285486508608374  0.7716095144308637  0.9004492812000607  1.0000
  H   H26       1.0  0.06508249209623058  0.2716515184309856  0.40039157504554623  1.0000
  H   H27       1.0  0.7371435544225093  0.2283890021406734  0.09955109860445803  1.0000
  H   H28       1.0  0.9349163119257042  0.7283480029446068  0.5996077859006308  1.0000
  H   H29       1.0  0.14560128471488543  0.9390443866181715  0.9074954527091422  1.0000
  H   H30       1.0  0.00815509645686773  0.43906218853007317  0.407428033654135  1.0000
  H   H31       1.0  0.8543971347937143  0.060954129953365986  0.09250492709536924  1.0000
  H   H32       1.0  0.9918450161569016  0.5609363180184842  0.5925740085602272  1.0000
  C   C1        1.0  0.03867267006521062  0.6239833229307549  0.027645204683402428  1.0000
  C   C2        1.0  0.30982227287257297  0.12353564950146283  0.5274344409783113  1.0000
  C   C3        1.0  0.9613269402255823  0.37601419129956787  0.9723557275772452  1.0000
  C   C4        1.0  0.6901779778039485  0.8764618815675431  0.47256359706615597  1.0000
  C   C5        1.0  0.10761972748532862  0.5555390347227133  0.13318177957211932  1.0000
  C   C6        1.0  0.20360116467322342  0.05525372155743469  0.6330269019064333  1.0000
  C   C7        1.0  0.8923814581009989  0.44445848197044296  0.8668186862863152  1.0000
  C   C8        1.0  0.7964004054264464  0.9447447999397696  0.3669725450936668  1.0000
  C   C9        1.0  0.32580171995417834  0.6806678184806716  0.10958077745547001  1.0000
  C   C10       1.0  0.8837304814983185  0.18088638719962094  0.6095628907066911  1.0000
  C   C11       1.0  0.674196325872401  0.31933169854205096  0.8904193488948239  1.0000
  C   C12       1.0  0.11627001562878554  0.8191131241529916  0.39043813264933663  1.0000
  C   C13       1.0  0.19692398573999997  0.8050228657804653  0.06768608913015586  1.0000
  C   C14       1.0  0.9302500290074747  0.3051749870264899  0.567602567291445  1.0000
  C   C15       1.0  0.8030763935774767  0.19497665805796063  0.9323128054138156  1.0000
  C   C16       1.0  0.069752417097192  0.694823526337771  0.43239824311659464  1.0000
  C   C17       1.0  0.16734421829651297  0.8319617108070717  0.9533021743309648  1.0000
  C   C18       1.0  0.047445304932857445  0.33198447056923186  0.45324241487294614  1.0000
  C   C19       1.0  0.8326533949432289  0.16803881290974942  0.04669663415908332  1.0000
  C   C20       1.0  0.9525533718576471  0.6680180315411518  0.5467596779305739  1.0000
  C   C21       1.0  0.36580376119344743  0.457891628576327  0.6829082757195906  1.0000
  C   C22       1.0  0.4936335466852028  0.9580770461609234  0.18286621269849954  1.0000
  C   C23       1.0  0.6342023378252648  0.5421078820318357  0.31709271183775917  1.0000
  C   C24       1.0  0.506361931440736  0.04192746252194011  0.8171344761908444  1.0000
  S   S1        1.0  0.9824212760464873  0.8052966973961021  0.9784322340145765  1.0000
  S   S2        1.0  0.23413077981067693  0.30487121118530075  0.47835177292630965  1.0000
  S   S3        1.0  0.017577143462112674  0.19470181917543525  0.021568145789935017  1.0000
  S   S4        1.0  0.7658704057756511  0.6951263055078485  0.5216486929321321  1.0000
  S   S5        1.0  0.31781094688425787  0.5309853771954637  0.09834403708920555  1.0000
  S   S6        1.0  0.052510475435745725  0.03100349177498879  0.5983320423111778  1.0000
  S   S7        1.0  0.6821902495333916  0.46901414475292574  0.9016551564566772  1.0000
  S   S8        1.0  0.9474880138089865  0.9689970238088819  0.4016681295868098  1.0000
  S   S9        1.0  0.2785472626898129  0.6318541868845244  0.6935423981907435  1.0000
  S   S10       1.0  0.3964016805253792  0.132034810214364  0.19338476604878005  1.0000
  S   S11       1.0  0.7214598395653268  0.36814233485590364  0.30645722091720984  1.0000
  S   S12       1.0  0.6035929913317024  0.8679717056137832  0.8066143515260936  1.0000
  O   O1        1.0  0.11593310618702912  0.8811454753695358  0.12664561430848656  1.0000
  O   O2        1.0  0.8760313522137367  0.3814094823624927  0.6264643076915066  1.0000
  O   O3        1.0  0.8840684639126408  0.11885304612766837  0.8733538326916133  1.0000
  O   O4        1.0  0.12397391887347467  0.6185880248804664  0.37353765317649135  1.0000
  O   O5        1.0  0.1100539421669852  0.6474619833209232  0.7337659660409771  1.0000
  O   O6        1.0  0.5091657185445727  0.14742390000615294  0.23360704604050408  1.0000
  O   O7        1.0  0.8899481302556608  0.3525375304945157  0.2662345909128447  1.0000
  O   O8        1.0  0.4908256260069877  0.852582629625047  0.7663898111207034  1.0000
  O   O9        1.0  0.32850410208018865  0.7165270660878847  0.5788487599436253  1.0000
  O   O10       1.0  0.37665110712219263  0.2166908539968873  0.07864660430831091  1.0000
  O   O11       1.0  0.6715004216429818  0.2834724420574446  0.4211526940159304  1.0000
  O   O12       1.0  0.6233456517752031  0.7833136883633571  0.9213482961486862  1.0000
  O   O13       1.0  0.3455231919837375  0.623995136520179  0.7814381094943316  1.0000
  O   O14       1.0  0.249203490034816  0.12442132408652638  0.2812263677515078  1.0000
  O   O15       1.0  0.6544771190071188  0.3760073618101245  0.21856458131300377  1.0000
  O   O16       1.0  0.7507907119932539  0.8755902151891064  0.7187678229319874  1.0000
  F   F1        1.0  0.32813375388009536  0.3701753496980871  0.7876475451620949  1.0000
  F   F2        1.0  0.5142789865022976  0.8704017925906059  0.28760324531099013  1.0000
  F   F3        1.0  0.6718685060883163  0.6298261506438649  0.21235493269725955  1.0000
  F   F4        1.0  0.4857079855915529  0.129604692194647  0.7124013974930039  1.0000
  F   F5        1.0  0.310123722596103  0.44600635359019947  0.6079898880682323  1.0000
  F   F6        1.0  0.6361876551911438  0.9461074441825517  0.1078831229147568  1.0000
  F   F7        1.0  0.6898812553765482  0.5539961583715184  0.3920103391264577  1.0000
  F   F8        1.0  0.36381050985459495  0.05389703385856139  0.8921227206044408  1.0000
  F   F9        1.0  0.5247695288705431  0.42315171686146863  0.6472467428139269  1.0000
  F   F10       1.0  0.4049662305157186  0.9234157449802608  0.1472941573596601  1.0000
  F   F11       1.0  0.47523776093036246  0.5768467914054726  0.35275479719955183  1.0000
  F   F12       1.0  0.5950358744008921  0.07658978460090539  0.8527025826564911  1.0000
