data_image0
_chemical_formula_structural       Cd2H24C36N20
_chemical_formula_sum              "Cd2 H24 C36 N20"
_cell_length_a       7.799130029546832
_cell_length_b       8.679641437008211
_cell_length_c       13.639190826204855
_cell_angle_alpha    89.99992768560396
_cell_angle_beta     90.75011233075391
_cell_angle_gamma    89.99986169044053

_space_group_name_H-M_alt    "P 1"
_space_group_IT_number       1

loop_
  _space_group_symop_operation_xyz
  'x, y, z'

loop_
  _atom_site_type_symbol
  _atom_site_label
  _atom_site_symmetry_multiplicity
  _atom_site_fract_x
  _atom_site_fract_y
  _atom_site_fract_z
  _atom_site_occupancy
  Cd  Cd1       1.0  0.5000037618395154  0.4999982250940178  1.4283575708994484e-06  1.0000
  Cd  Cd2       1.0  4.575890173399364e-06  2.9631323528000003e-06  0.5000035885922713  1.0000
  H   H1        1.0  0.524663737648858  0.649531845599235  0.18221068958666825  1.0000
  H   H2        1.0  0.9753350904392236  0.14952669942479702  0.317792984975256  1.0000
  H   H3        1.0  0.4753374780619807  0.350468226637041  0.8177897354452884  1.0000
  H   H4        1.0  0.024661035018830504  0.8504630037200018  0.682212546886568  1.0000
  H   H5        1.0  0.5249123692898792  0.7901633128202054  0.09898621732603631  1.0000
  H   H6        1.0  0.9750834899276484  0.2901626114813995  0.4010143951206261  1.0000
  H   H7        1.0  0.4750862873956264  0.20983560729679615  0.9010149280790788  1.0000
  H   H8        1.0  0.024912602173579008  0.70983630863838  0.5989867374411306  1.0000
  H   H9        1.0  0.2621746070624624  0.9098494762785169  0.03814943396392321  1.0000
  H   H10       1.0  0.23782102659052376  0.4098514716464693  0.4618485869984284  1.0000
  H   H11       1.0  0.7378214683697452  0.09014713960080203  0.9618494989506632  1.0000
  H   H12       1.0  0.7621750488354238  0.5901497527181621  0.5381503459142467  1.0000
  H   H13       1.0  0.9540409330439913  0.9604245136594687  0.07602791340689663  1.0000
  H   H14       1.0  0.5459544413913378  0.46042930243169183  0.42396962524179577  1.0000
  H   H15       1.0  0.04595643024399718  0.0395674937324273  0.9239717591473211  1.0000
  H   H16       1.0  0.4540416229182753  0.5395730740557172  0.5760278412383288  1.0000
  H   H17       1.0  0.8075005415660712  0.8103699608007208  0.20315626318765825  1.0000
  H   H18       1.0  0.6924952238489722  0.3103735317370068  0.2968392000191501  1.0000
  H   H19       1.0  0.19249681616140893  0.18962435083455634  0.7968426761495667  1.0000
  H   H20       1.0  0.3074995470584271  0.6896253883892741  0.7031567936086347  1.0000
  H   H21       1.0  0.2734325185359054  0.5528517811240478  0.2579864565441811  1.0000
  H   H22       1.0  0.22656794296085542  0.05285077815292991  0.24201334561681886  1.0000
  H   H23       1.0  0.7265686971749333  0.4471482911122281  0.7420139684877757  1.0000
  H   H24       1.0  0.7734255734428929  0.9471469898497705  0.7579863076699741  1.0000
  C   C1        1.0  0.2873143116009302  0.7285469223691835  0.14605480675900406  1.0000
  C   C2        1.0  0.2126843791785689  0.22854803279973618  0.3539433771179432  1.0000
  C   C3        1.0  0.7126843228581734  0.27144969350808174  0.8539434057829002  1.0000
  C   C4        1.0  0.7873129841015967  0.771449735198786  0.6460562954338871  1.0000
  C   C5        1.0  0.19693617583804013  0.843276464665195  0.09441314787532923  1.0000
  C   C6        1.0  0.30306219770101717  0.34327727799696117  0.4055842078197927  1.0000
  C   C7        1.0  0.8030624586210564  0.15672015121207045  0.905585064666575  1.0000
  C   C8        1.0  0.6969325787622083  0.6567227942499161  0.5944125190235638  1.0000
  C   C9        1.0  0.0247278867830616  0.870740898506  0.11500087723953813  1.0000
  C   C10       1.0  0.4752678475522671  0.37074714109525087  0.3849964428766414  1.0000
  C   C11       1.0  0.9752694765049271  0.12925110888589592  0.8849987953146796  1.0000
  C   C12       1.0  0.5247269344652068  0.6292552353935437  0.615001017181797  1.0000
  C   C13       1.0  0.940590825144291  0.7862766722795346  0.18654960393458  1.0000
  C   C14       1.0  0.559405022394742  0.28628165004633405  0.3134480788626846  1.0000
  C   C15       1.0  0.0594078204342736  0.21371648723229703  0.8134500750408336  1.0000
  C   C16       1.0  0.4405884773290296  0.7137218785651885  0.6865493747736056  1.0000
  C   C17       1.0  0.03177161233556091  0.6718500650890892  0.23800216050030096  1.0000
  C   C18       1.0  0.4682272380259178  0.1718531091921208  0.2619968035219885  1.0000
  C   C19       1.0  0.9682283099793311  0.3281419423007535  0.7619967916812274  1.0000
  C   C20       1.0  0.5317662672614958  0.8281458109333644  0.7380013833322469  1.0000
  C   C21       1.0  0.9510831362103218  0.5863039892927945  0.31352517481671793  1.0000
  C   C22       1.0  0.5489158191775516  0.08630693598593103  0.18647268634958186  1.0000
  C   C23       1.0  0.04891551492406171  0.41369032233963315  0.6864752373742676  1.0000
  C   C24       1.0  0.45108024513362477  0.913694288380157  0.8135247801310189  1.0000
  C   C25       1.0  0.20433070399477773  0.6419742408372857  0.21751296976998458  1.0000
  C   C26       1.0  0.2956669341255278  0.14197531300456495  0.28248454612869284  1.0000
  C   C27       1.0  0.7956692294301817  0.3580212229150775  0.7824874488421972  1.0000
  C   C28       1.0  0.7043278478982131  0.8580224549989313  0.717512913931657  1.0000
  C   C29       1.0  0.8593938718727473  0.3550124765780965  0.10998395549608384  1.0000
  C   C30       1.0  0.6406197688012513  0.8550238750491704  0.39001742638705406  1.0000
  C   C31       1.0  0.14061376085773963  0.6449864435291702  0.8900172348607857  1.0000
  C   C32       1.0  0.3593865982826401  0.14499463111983607  0.6099859571881582  1.0000
  C   C33       1.0  0.1506656462503173  0.3216893001612746  0.09438693152496573  1.0000
  C   C34       1.0  0.34934692448923244  0.8216921521601609  0.40561491197252764  1.0000
  C   C35       1.0  0.8493406930732591  0.6783096199488412  0.9056127859781429  1.0000
  C   C36       1.0  0.6506594426087489  0.17831598491691383  0.5943884716069691  1.0000
  N   N1        1.0  0.45966158445936134  0.6951248709408376  0.12350209825406475  1.0000
  N   N2        1.0  0.040338496082561896  0.1951251570218915  0.3764983193577081  1.0000
  N   N3        1.0  0.5403383489609013  0.3048740491755027  0.8764983203566887  1.0000
  N   N4        1.0  0.959660166161889  0.8048726109730567  0.6235035592639238  1.0000
  N   N5        1.0  0.8864640075852321  0.5144058667393239  0.3753678886849984  1.0000
  N   N6        1.0  0.6135364365322004  0.014409947982564102  0.12463150484734344  1.0000
  N   N7        1.0  0.11353464910027361  0.48559305337767716  0.6246332567201167  1.0000
  N   N8        1.0  0.3864609211843232  0.9855924285019957  0.8753674344865348  1.0000
  N   N9        1.0  0.7212164905909335  0.4086807509452726  0.10031625555823352  1.0000
  N   N10       1.0  0.7787957108817596  0.9086883755193471  0.3996836090494754  1.0000
  N   N11       1.0  0.2787898654000998  0.5913216255266321  0.8996856615915693  1.0000
  N   N12       1.0  0.2212106506478833  0.0913278264077348  0.6003190413106483  1.0000
  N   N13       1.0  0.0027680377756312004  0.28662576422901515  0.13010259657763612  1.0000
  N   N14       1.0  0.4972458827149353  0.7866364320840804  0.36989561628148954  1.0000
  N   N15       1.0  0.9972382848773621  0.7133720037619541  0.8698949212778263  1.0000
  N   N16       1.0  0.5027617444315666  0.21338207408645363  0.6301048408512319  1.0000
  N   N17       1.0  0.29235174354168697  0.3406576989137451  0.06776102730871972  1.0000
  N   N18       1.0  0.20766335136392663  0.8406619565412969  0.4322422797627824  1.0000
  N   N19       1.0  0.7076545791097428  0.6593412211985523  0.9322364905462595  1.0000
  N   N20       1.0  0.7923443147046  0.15934157204689112  0.5677633098884274  1.0000
