data_image0
_chemical_formula_structural       Cu6H36C18S6N12Cl6
_chemical_formula_sum              "Cu6 H36 C18 S6 N12 Cl6"
_cell_length_a       7.455008348567522
_cell_length_b       11.72795502845505
_cell_length_c       11.919426166708833
_cell_angle_alpha    66.119681597278
_cell_angle_beta     75.93783277791142
_cell_angle_gamma    87.38354420084102

_space_group_name_H-M_alt    "P 1"
_space_group_IT_number       1

loop_
  _space_group_symop_operation_xyz
  'x, y, z'

loop_
  _atom_site_type_symbol
  _atom_site_label
  _atom_site_symmetry_multiplicity
  _atom_site_fract_x
  _atom_site_fract_y
  _atom_site_fract_z
  _atom_site_occupancy
  Cu  Cu1       1.0  0.04269359951584309  0.007464960301547297  0.09769415276019801  1.0000
  Cu  Cu2       1.0  0.9573010066123472  0.9925358998953799  0.9023088392418469  1.0000
  Cu  Cu3       1.0  0.8633097332759547  0.7916158528048883  0.26799352158177214  1.0000
  Cu  Cu4       1.0  0.1366860832948618  0.2083831366536729  0.7320100166228726  1.0000
  Cu  Cu5       1.0  0.04101273753310148  0.38376923430622867  0.9547228733895707  1.0000
  Cu  Cu6       1.0  0.9589845420469983  0.6162307092131911  0.0452775508046771  1.0000
  H   H1        1.0  0.8370800432155932  0.9987863905808535  0.3630345097415885  1.0000
  H   H2        1.0  0.16291352273253779  0.0012182160630729015  0.6369663375513781  1.0000
  H   H3        1.0  0.9609982769800709  0.37297287144333774  0.2139288454782716  1.0000
  H   H4        1.0  0.039007560130471575  0.6270298442978371  0.7860708626704423  1.0000
  H   H5        1.0  0.5308538056843872  0.660671770671122  0.40483933208383155  1.0000
  H   H6        1.0  0.4691419172736032  0.339326314641866  0.5951612180142121  1.0000
  H   H7        1.0  0.593293482842128  0.49705640651167465  0.15622334823786596  1.0000
  H   H8        1.0  0.4067105394252835  0.5029416486963497  0.8437776211210775  1.0000
  H   H9        1.0  0.6479658991229655  0.15291863255489346  0.9301634402976545  1.0000
  H   H10       1.0  0.35203707165565845  0.8470832140451208  0.06983033453908406  1.0000
  H   H11       1.0  0.5356899661812732  0.9582562230114177  0.3114287422691505  1.0000
  H   H12       1.0  0.4642992666560772  0.04174657541216929  0.688567602451201  1.0000
  H   H13       1.0  0.6540256469581037  0.10620176971038116  0.49702834013857006  1.0000
  H   H14       1.0  0.34597795083848126  0.8938065182711766  0.5029737269115842  1.0000
  H   H15       1.0  0.8594278111149123  0.0540466202919561  0.5525533226026411  1.0000
  H   H16       1.0  0.14057630099574678  0.9459523540433139  0.4474489515918594  1.0000
  H   H17       1.0  0.010065260164751089  0.25966287177119796  0.4411816463663385  1.0000
  H   H18       1.0  0.9899512914860934  0.7403360948607869  0.5588170485419113  1.0000
  H   H19       1.0  0.7777891272229025  0.30855395317863105  0.4506714303058318  1.0000
  H   H20       1.0  0.22223201575975077  0.6914496240004269  0.5493306318685995  1.0000
  H   H21       1.0  0.20371793495165486  0.6272044935514955  0.38282650705249205  1.0000
  H   H22       1.0  0.7962805437623428  0.3727936241745482  0.6171694135312366  1.0000
  H   H23       1.0  0.2668150891051723  0.47540751574548057  0.4781849750456787  1.0000
  H   H24       1.0  0.7331834851064443  0.5245914986353098  0.5218147752801698  1.0000
  H   H25       1.0  0.25522642878434  0.42603944621551193  0.3038284733246286  1.0000
  H   H26       1.0  0.744780012483524  0.5739548750066205  0.6961727468039954  1.0000
  H   H27       1.0  0.2752925128654766  0.5864465286713311  0.19664519592511454  1.0000
  H   H28       1.0  0.7247096889044259  0.41354688847604143  0.8033545097374956  1.0000
  H   H29       1.0  0.5609723727280168  0.3012718778260108  0.048014952214636315  1.0000
  H   H30       1.0  0.43903182357152554  0.698728038108996  0.9519861019088725  1.0000
  H   H31       1.0  0.3545653791085073  0.2474822275091029  0.0277841505773537  1.0000
  H   H32       1.0  0.6454395001260806  0.7525251837696485  0.9722113511557567  1.0000
  H   H33       1.0  0.428765151573458  0.18698382040639666  0.2714680105818559  1.0000
  H   H34       1.0  0.5712238268124352  0.8130161607088057  0.7285311527159734  1.0000
  H   H35       1.0  0.2666710696222552  0.10113705305914779  0.2414068451385774  1.0000
  H   H36       1.0  0.7333249825521406  0.8988648286161123  0.7585854581333891  1.0000
  C   C1        1.0  0.9137376985562823  0.18689780189490088  0.2539722686623946  1.0000
  C   C2        1.0  0.086262524005484  0.8131039823287337  0.7460295022307406  1.0000
  C   C3        1.0  0.8067171190082545  0.11377078969263009  0.47105800416844085  1.0000
  C   C4        1.0  0.1932916573143757  0.8862337817344252  0.528941367408116  1.0000
  C   C5        1.0  0.8785641821008454  0.25104938301465296  0.41772832687060196  1.0000
  C   C6        1.0  0.1214484052361584  0.7489514144518098  0.5822752929848817  1.0000
  C   C7        1.0  0.6150449824089393  0.5743685460805706  0.2808257600157376  1.0000
  C   C8        1.0  0.3849535899178845  0.4256304757910526  0.7191731486745923  1.0000
  C   C9        1.0  0.30502952719692894  0.5559755643581922  0.3860453511942907  1.0000
  C   C10       1.0  0.6949689571714329  0.44402253089536003  0.6139530942960008  1.0000
  C   C11       1.0  0.3262240008939372  0.5167622573256808  0.2751215298136672  1.0000
  C   C12       1.0  0.673778374908103  0.483233020548667  0.7248782606135081  1.0000
  C   C13       1.0  0.6181098830182632  0.032014185558409694  0.11691102859512628  1.0000
  C   C14       1.0  0.3818893515109423  0.9679924140561056  0.8830730697140936  1.0000
  C   C15       1.0  0.4734858532048633  0.21830700347523896  0.06986808987909404  1.0000
  C   C16       1.0  0.5265158304814008  0.7816957423000729  0.9301297253681328  1.0000
  C   C17       1.0  0.4115974455744862  0.13716046441906118  0.2138460444436703  1.0000
  C   C18       1.0  0.5883946366317048  0.8628432705631679  0.7861486588689744  1.0000
  S   S1        1.0  0.960625881753259  0.19137414927102003  0.1055158091603801  1.0000
  S   S2        1.0  0.0393658731213051  0.8086257818580974  0.8944879826138604  1.0000
  S   S3        1.0  0.8504709290386289  0.6059904665872722  0.2428677902576624  1.0000
  S   S4        1.0  0.14952790527879498  0.3940113426294118  0.757131666397278  1.0000
  S   S5        1.0  0.7511380902889184  0.9148528164707558  0.09691072305682275  1.0000
  S   S6        1.0  0.24885634180714084  0.08514618299918908  0.9030921841806644  1.0000
  N   N1        1.0  0.8773682039832096  0.0817214131638195  0.36175024266390204  1.0000
  N   N2        1.0  0.12263046007165455  0.9182785203442164  0.6382508124975105  1.0000
  N   N3        1.0  0.9059412326413607  0.28758536326476036  0.28136704168237264  1.0000
  N   N4        1.0  0.0940657307229174  0.7124145401383188  0.7186344327399395  1.0000
  N   N5        1.0  0.49249494148626377  0.6073921792704409  0.36340863681557084  1.0000
  N   N6        1.0  0.5075009536190791  0.3926077742603553  0.6365911564115123  1.0000
  N   N7        1.0  0.5278411397716667  0.5108667041803655  0.23577277278238293  1.0000
  N   N8        1.0  0.472161415716883  0.48913041194847295  0.7642296273159133  1.0000
  N   N9        1.0  0.5815577806480833  0.1323418216069001  0.022736751767659758  1.0000
  N   N10       1.0  0.4184359817064375  0.867649630083477  0.9772775993088486  1.0000
  N   N11       1.0  0.5350079957842696  0.0335918560854296  0.2290441191325598  1.0000
  N   N12       1.0  0.4649819536710921  0.9664033770563729  0.7709651420295106  1.0000
  Cl  Cl1       1.0  0.16921412925617565  0.8533044074781626  0.24831801159599837  1.0000
  Cl  Cl2       1.0  0.8307817677339526  0.14669553856180073  0.7516826232666106  1.0000
  Cl  Cl3       1.0  0.6746759256932078  0.7967600807031658  0.4548142626709506  1.0000
  Cl  Cl4       1.0  0.32531850451805866  0.20323892625760462  0.545187802931018  1.0000
  Cl  Cl5       1.0  0.7768466154496848  0.5087603603308465  0.9747062776690002  1.0000
  Cl  Cl6       1.0  0.2231493581901843  0.491240557272178  0.025289770580521082  1.0000
