data_image0
_chemical_formula_structural       Ag2H16C32S2N4O8F6
_chemical_formula_sum              "Ag2 H16 C32 S2 N4 O8 F6"
_cell_length_a       8.65084018449956
_cell_length_b       10.317559616851565
_cell_length_c       10.844064026539298
_cell_angle_alpha    82.0241325933593
_cell_angle_beta     69.26345093944249
_cell_angle_gamma    67.51494647441653

_space_group_name_H-M_alt    "P 1"
_space_group_IT_number       1

loop_
  _space_group_symop_operation_xyz
  'x, y, z'

loop_
  _atom_site_type_symbol
  _atom_site_label
  _atom_site_symmetry_multiplicity
  _atom_site_fract_x
  _atom_site_fract_y
  _atom_site_fract_z
  _atom_site_occupancy
  Ag  Ag1       1.0  0.4696446796190373  0.3256800178330081  0.5294936969336206  1.0000
  Ag  Ag2       1.0  0.5303518960436481  0.6743173273637451  0.4705092901303657  1.0000
  H   H1        1.0  0.3415117603242662  0.19601068391128246  0.24935348115152323  1.0000
  H   H2        1.0  0.6584910204678496  0.8039867106510739  0.7506494994483363  1.0000
  H   H3        1.0  0.3075262759858362  0.26723439432359436  0.031555443108942365  1.0000
  H   H4        1.0  0.6924743298526863  0.7327703498753093  0.9684481126927623  1.0000
  H   H5        1.0  0.8637259370529621  0.020928219090933495  0.8445417604483225  1.0000
  H   H6        1.0  0.1362742603067418  0.9790744411100218  0.15545666441563802  1.0000
  H   H7        1.0  0.8935861796013356  0.9498066403160906  0.06352181172832173  1.0000
  H   H8        1.0  0.10641472192590133  0.0501918169483417  0.9364760496994647  1.0000
  H   H9        1.0  0.7804084594016772  0.7754842362172523  0.19191957982153707  1.0000
  H   H10       1.0  0.21958905353822183  0.2245162872633628  0.8080808542290683  1.0000
  H   H11       1.0  0.008513554038408762  0.5634929116012514  0.24384522930145644  1.0000
  H   H12       1.0  0.9914803732310133  0.43650756027589205  0.7561599669868002  1.0000
  H   H13       1.0  0.04762326613889913  0.8041806868682142  0.5202444044607191  1.0000
  H   H14       1.0  0.9523762799022039  0.1958261678138484  0.4797564139775615  1.0000
  H   H15       1.0  0.8058237203616089  0.013623294364627699  0.4753152369933105  1.0000
  H   H16       1.0  0.19417078855514103  0.9863782633430059  0.5246841054819598  1.0000
  C   C1        1.0  0.6350101108090982  0.035690043023549785  0.3062773941952842  1.0000
  C   C2        1.0  0.3649913866779997  0.964307348430026  0.6937241235868825  1.0000
  C   C3        1.0  0.619336283556443  0.06787197940317208  0.17150335357896299  1.0000
  C   C4        1.0  0.38066595412473725  0.9321264725146177  0.8284978008046409  1.0000
  C   C5        1.0  0.4550836685908166  0.1576139082052492  0.1606025081543692  1.0000
  C   C6        1.0  0.5449188718713388  0.8423866446213422  0.8394001168907083  1.0000
  C   C7        1.0  0.43616830189635886  0.19862543903715846  0.03774288658909344  1.0000
  C   C8        1.0  0.5638300305110064  0.801376132224533  0.9622599292701679  1.0000
  C   C9        1.0  0.5848486460046729  0.15155243741710217  0.9233095873284896  1.0000
  C   C10       1.0  0.4151543414726791  0.8484523425933543  0.07669048862510408  1.0000
  C   C11       1.0  0.7498886922874207  0.06074364829110829  0.9327527561822888  1.0000
  C   C12       1.0  0.25011319936594856  0.9392579788017625  0.06724438237025501  1.0000
  C   C13       1.0  0.7653644369542931  0.019014743108293396  0.056655704718693266  1.0000
  C   C14       1.0  0.23463600073537796  0.9809847588284413  0.9433430757000493  1.0000
  C   C15       1.0  0.568799719829272  0.19555783605122198  0.7967535181044879  1.0000
  C   C16       1.0  0.4312069733289263  0.8044448270105065  0.20325496605511972  1.0000
  C   C17       1.0  0.7802366995964575  0.9088750528494741  0.3292789185007336  1.0000
  C   C18       1.0  0.219760339903786  0.09112124767497679  0.6707231495722965  1.0000
  C   C19       1.0  0.8378882889394534  0.7822926788758053  0.2640342173571709  1.0000
  C   C20       1.0  0.1621104280320935  0.21770786039672163  0.7359649343039152  1.0000
  C   C21       1.0  0.967621269129424  0.6631848366633404  0.29122229417830425  1.0000
  C   C22       1.0  0.0323743788581297  0.33681459787800344  0.7087825308676017  1.0000
  C   C23       1.0  0.044146282837431286  0.6723732279804081  0.3825639190517762  1.0000
  C   C24       1.0  0.955845656959447  0.3276314437244777  0.6174403778549761  1.0000
  C   C25       1.0  0.98709117731341  0.7989877412550043  0.44947602092846484  1.0000
  C   C26       1.0  0.012907191120504502  0.20101909340742447  0.5505269949684077  1.0000
  C   C27       1.0  0.8536995953019401  0.9151745357800818  0.42399821835660123  1.0000
  C   C28       1.0  0.14629693711390962  0.084828085500547  0.5760022235377917  1.0000
  C   C29       1.0  0.17896401240435716  0.5508949000946757  0.4075731855996878  1.0000
  C   C30       1.0  0.8210367640928453  0.449111966151591  0.5924272655181397  1.0000
  C   C31       1.0  0.7882250131712143  0.39970669548073084  0.11156568436724258  1.0000
  C   C32       1.0  0.21178440307118512  0.6002813201593824  0.8884282906730618  1.0000
  S   S1        1.0  0.870648163429216  0.3129675199743218  0.2503180472908682  1.0000
  S   S2        1.0  0.1293518536697108  0.6870277505508253  0.749684197288431  1.0000
  N   N1        1.0  0.5540606122681382  0.2324733527562515  0.6934463641843608  1.0000
  N   N2        1.0  0.4459353337899544  0.7675356019636863  0.3065497063241835  1.0000
  N   N3        1.0  0.2882091826875594  0.4500727110163537  0.428024803831164  1.0000
  N   N4        1.0  0.7117763380743726  0.5499350653594417  0.5719800590540061  1.0000
  O   O1        1.0  0.526098600821598  0.11427974224454121  0.3990743222052373  1.0000
  O   O2        1.0  0.47389836900735827  0.8857218385915073  0.6009242856291196  1.0000
  O   O3        1.0  0.723714525003068  0.38600538241337284  0.3657323982248498  1.0000
  O   O4        1.0  0.2762824087993395  0.6139909350219311  0.6342660095718955  1.0000
  O   O5        1.0  0.03121330790008872  0.3428774169492996  0.222408203328861  1.0000
  O   O6        1.0  0.9687847217262942  0.6571220534035972  0.7775931418689266  1.0000
  O   O7        1.0  0.8969391070604972  0.16612060931613826  0.24088599568408853  1.0000
  O   O8        1.0  0.10306333241426566  0.8338725411514928  0.7591231942835323  1.0000
  F   F1        1.0  0.7838523689313914  0.5343504096791349  0.09636168937746713  1.0000
  F   F2        1.0  0.21618559064118867  0.4656315934586813  0.903616312780329  1.0000
  F   F3        1.0  0.8971389533239319  0.3310534901553908  0.9965421213925365  1.0000
  F   F4        1.0  0.1028518979972404  0.6689185618194032  0.0034567633417240044  1.0000
  F   F5        1.0  0.6228908389724594  0.40333732763349417  0.13152747984621269  1.0000
  F   F6        1.0  0.37710907481045564  0.5966737669155721  0.8684680442933724  1.0000
