data_image0
_chemical_formula_structural       Cd4H48C40N16O20
_chemical_formula_sum              "Cd4 H48 C40 N16 O20"
_cell_length_a       8.080509500447643
_cell_length_b       12.321798735
_cell_length_c       12.8795
_cell_angle_alpha    90.0
_cell_angle_beta     95.10138666947722
_cell_angle_gamma    90.0

_space_group_name_H-M_alt    "P 1"
_space_group_IT_number       1

loop_
  _space_group_symop_operation_xyz
  'x, y, z'

loop_
  _atom_site_type_symbol
  _atom_site_label
  _atom_site_symmetry_multiplicity
  _atom_site_fract_x
  _atom_site_fract_y
  _atom_site_fract_z
  _atom_site_occupancy
  Cd  Cd1       1.0  0.8722045522085295  0.4154742428520919  0.8228630151783207  1.0000
  Cd  Cd2       1.0  0.6277926078219664  0.9154742941838805  0.6771375251737837  1.0000
  Cd  Cd3       1.0  0.12779645356870625  0.584525048241666  0.17713673035970603  1.0000
  Cd  Cd4       1.0  0.3722059130207782  0.08452580847969669  0.3228628581653723  1.0000
  H   H1        1.0  0.8600619198089134  0.647602689478596  0.662580041908008  1.0000
  H   H2        1.0  0.6399364826888247  0.1476026381468074  0.8374197913296939  1.0000
  H   H3        1.0  0.1399378435010732  0.3523974131849812  0.3374188578890909  1.0000
  H   H4        1.0  0.3600657655556603  0.8523974645167769  0.16258157637690118  1.0000
  H   H5        1.0  0.24594763390318525  0.5371163855485577  0.8803916961563161  1.0000
  H   H6        1.0  0.2540497628173171  0.0371171457865884  0.6196083915433661  1.0000
  H   H7        1.0  0.7540496444723175  0.462884528684846  0.11960939429723538  1.0000
  H   H8        1.0  0.7459524854271609  0.9628829568769958  0.3803914233079198  1.0000
  H   H9        1.0  0.9805278166235356  0.7971303712420195  0.5793808082154541  1.0000
  H   H10       1.0  0.5194705858742026  0.2971295083404044  0.9206198014499094  1.0000
  H   H11       1.0  0.0194707042192093  0.2028697314215648  0.42061957512370185  1.0000
  H   H12       1.0  0.4805291774357841  0.7028705943231728  0.0793798747748511  1.0000
  H   H13       1.0  0.1975348976450277  0.7784042091805858  0.5638867975594835  1.0000
  H   H14       1.0  0.3024649840099657  0.2784049694186166  0.9361134287667241  1.0000
  H   H15       1.0  0.8024648656649591  0.2215958934829985  0.4361128786652769  1.0000
  H   H16       1.0  0.6975360217672701  0.7215951332449677  0.06388631677129551  1.0000
  H   H17       1.0  0.1365061489663617  0.8703079989075988  0.6589394376388215  1.0000
  H   H18       1.0  0.3634949751558736  0.3703079475758031  0.8410616344283072  1.0000
  H   H19       1.0  0.8634948568108742  0.1296921037559855  0.34106108432686  1.0000
  H   H20       1.0  0.636504788154113  0.6296921550877741  0.15893881822411518  1.0000
  H   H21       1.0  0.4915747112567743  0.5261090640594688  0.7133040397132078  1.0000
  H   H22       1.0  0.008425170398219  0.026107389588034397  0.7866969630406544  1.0000
  H   H23       1.0  0.5084262945204614  0.4738918501739349  0.2866964822524736  1.0000
  H   H24       1.0  0.9915745929117747  0.9738927130755499  0.2133034896117607  1.0000
  H   H25       1.0  0.7544211421790052  0.2474752319511921  0.6330071910541903  1.0000
  H   H26       1.0  0.7455797452532238  0.7474736601433349  0.866992780810037  1.0000
  H   H27       1.0  0.24557986359823056  0.7525248707123922  0.3669925544838293  1.0000
  H   H28       1.0  0.2544200180567628  0.2525256309504229  0.1330068954147237  1.0000
  H   H29       1.0  0.23350929429891215  0.5147771146417739  0.6033043075437377  1.0000
  H   H30       1.0  0.2664918298233303  0.0147770633099853  0.8966967645233909  1.0000
  H   H31       1.0  0.7664917114783236  0.4852229880218033  0.3966962144219437  1.0000
  H   H32       1.0  0.7335091759539056  0.9852230393535989  0.10330375744229063  1.0000
  H   H33       1.0  0.17006891669487356  0.3833125423956218  0.5576711469434983  1.0000
  H   H34       1.0  0.3299322074273618  0.8833125937274104  0.9423291486959755  1.0000
  H   H35       1.0  0.8299320890823623  0.6166883718377818  0.44232859859452833  1.0000
  H   H36       1.0  0.6700687983498739  0.1166875089361668  0.057670596842051204  1.0000
  H   H37       1.0  0.2690873439011768  0.4734138355490671  0.47343537180147166  1.0000
  H   H38       1.0  0.23091253775381665  0.9734130753110363  0.026564854524735903  1.0000
  H   H39       1.0  0.730913661876059  0.5265862671145172  0.5265651501642097  1.0000
  H   H40       1.0  0.76908722555617  0.0265862157827215  0.9734355981276792  1.0000
  H   H41       1.0  0.6345528721099285  0.5675729778100447  0.8960782674737544  1.0000
  H   H42       1.0  0.8654467728550517  0.0675737380480754  0.6039224115048683  1.0000
  H   H43       1.0  0.36544813366730733  0.4324271248535396  0.10392147806427231  1.0000
  H   H44       1.0  0.13455423292218435  0.9324271761853282  0.3960788868884677  1.0000
  H   H45       1.0  0.8068781093243729  0.5738951067195757  0.9639890339545973  1.0000
  H   H46       1.0  0.6931227781078564  0.0738950553877871  0.5360109379096372  1.0000
  H   H47       1.0  0.1931228964528628  0.4261049959440015  0.0360114880110842  1.0000
  H   H48       1.0  0.3068782276693796  0.9261042357059707  0.4639903604836988  1.0000
  C   C1        1.0  0.9794294755776676  0.6382753175200264  0.7076847668604671  1.0000
  C   C2        1.0  0.5205676844528286  0.1382752661882378  0.7923149970639757  1.0000
  C   C3        1.0  0.020567802797828  0.3617247851435578  0.292314770737768  1.0000
  C   C4        1.0  0.4794333213244144  0.8617240249055271  0.2076855249017058  1.0000
  C   C5        1.0  0.24136168729651086  0.6715829545644638  0.7652882348299741  1.0000
  C   C6        1.0  0.2586357094239916  0.17158290323267517  0.7347118528697081  1.0000
  C   C7        1.0  0.758636833546227  0.3284171480991134  0.23471292493683651  1.0000
  C   C8        1.0  0.7413652963532442  0.8284163878610826  0.2652878926683186  1.0000
  C   C9        1.0  0.1822649751860865  0.5832955199620855  0.817132534513064  1.0000
  C   C10       1.0  0.3177324215344157  0.0832962802001163  0.6828683296142728  1.0000
  C   C11       1.0  0.8177335456566581  0.4167045827014988  0.18286862525373954  1.0000
  C   C12       1.0  0.68226858424282  0.9167030108936416  0.3171314159237538  1.0000
  C   C13       1.0  0.4084225907877226  0.7228352119322281  0.7802689609081527  1.0000
  C   C14       1.0  0.0915748059327797  0.22283921844954344  0.7197311267915296  1.0000
  C   C15       1.0  0.5915734451205312  0.277162456021891  0.219731283804478  1.0000
  C   C16       1.0  0.908427442311698  0.7771584495045687  0.28026635877678535  1.0000
  C   C17       1.0  0.1055041062328002  0.7934028310518428  0.6196781966188851  1.0000
  C   C18       1.0  0.3944957754221932  0.2934035912898736  0.8803220297073224  1.0000
  C   C19       1.0  0.8944956570771936  0.2065972716117415  0.38032225603353714  1.0000
  C   C20       1.0  0.6055052303550426  0.7065965113737107  0.11967771583069718  1.0000
  C   C21       1.0  0.5233905700367742  0.45196810301576557  0.673499690586965  1.0000
  C   C22       1.0  0.976610317395455  0.9519673427777348  0.8265002812772622  1.0000
  C   C23       1.0  0.4766104357404615  0.5480319996478187  0.3265008313787163  1.0000
  C   C24       1.0  0.023389445914531806  0.0480327598858494  0.17349939494749833  1.0000
  C   C25       1.0  0.5074124412473537  0.3110649737454878  0.5658650478287868  1.0000
  C   C26       1.0  0.9925884461848824  0.811061778797999  0.9341333711801311  1.0000
  C   C27       1.0  0.4925885645298892  0.688938375197381  0.4341339212815782  1.0000
  C   C28       1.0  0.0074113171251113  0.1889383238655853  0.0658663050446293  1.0000
  C   C29       1.0  0.654540442703663  0.3069925163811718  0.6293490613242129  1.0000
  C   C30       1.0  0.8454616871958083  0.8069893214336759  0.8706509798532807  1.0000
  C   C31       1.0  0.3454618055408148  0.6930092094220512  0.3706515299547277  1.0000
  C   C32       1.0  0.1545380761141786  0.193009969660082  0.12934947279913442  1.0000
  C   C33       1.0  0.4462619307785332  0.23419064554295227  0.48377746611560474  1.0000
  C   C34       1.0  0.053736708409218216  0.7341882621652829  0.016221914469682  1.0000
  C   C35       1.0  0.5537403174659519  0.7658102686904513  0.5162231251633358  1.0000
  C   C36       1.0  0.9462605699662847  0.2658110289284821  0.9837768467008985  1.0000
  C   C37       1.0  0.2644690931460971  0.44650461497738547  0.5542018424814685  1.0000
  C   C38       1.0  0.2355307885088962  0.9465038547393547  0.9457983838447461  1.0000
  C   C39       1.0  0.7355319126311386  0.5534962992560182  0.4457979030565582  1.0000
  C   C40       1.0  0.7644677323338487  0.0534962479242296  0.054201223066755205  1.0000
  N   N1        1.0  0.0201987900256313  0.5638779004127272  0.7810321015432393  1.0000
  N   N2        1.0  0.479798606694871  0.0638770375111122  0.7189687625840975  1.0000
  N   N3        1.0  0.9797997308171136  0.4361222022508571  0.21896828179591674  1.0000
  N   N4        1.0  0.5202036415496141  0.9361222535826456  0.281031828694843  1.0000
  N   N5        1.0  0.1089072240208395  0.7056291201464758  0.6960519037153858  1.0000
  N   N6        1.0  0.3910914151669048  0.2056298803845067  0.8039482532975627  1.0000
  N   N7        1.0  0.8910925392891471  0.294370170947289  0.3039493253646839  1.0000
  N   N8        1.0  0.608910833077573  0.7943694107092583  0.1960515615537304  1.0000
  N   N9        1.0  0.662858760918688  0.3945178869211574  0.6953474899547843  1.0000
  N   N10       1.0  0.837140884046299  0.894515503543488  0.8046524125961839  1.0000
  N   N11       1.0  0.3371397599240566  0.6054830273122462  0.3046528933843717  1.0000
  N   N12       1.0  0.1628588792636947  0.105483787550277  0.1953472636285767  1.0000
  N   N13       1.0  0.42612153671348113  0.40476557905731886  0.595390417396473  1.0000
  N   N14       1.0  0.0738795874087543  0.9047631956796423  0.9046091018153462  1.0000
  N   N15       1.0  0.5738794690637548  0.5952361467459042  0.40461010456920843  1.0000
  N   N16       1.0  0.9261201759012323  0.09523609541411558  0.09539057440941431  1.0000
  O   O1        1.0  0.5269316016891707  0.6628877954968502  0.8175405502855924  1.0000
  O   O2        1.0  0.9730643158740764  0.16288855573488087  0.6824599207532458  1.0000
  O   O3        1.0  0.4730644342190758  0.3371123071667341  0.1824596944270382  1.0000
  O   O4        1.0  0.0269404173048997  0.837110735358884  0.3175392562969109  1.0000
  O   O5        1.0  0.4182331121657371  0.8224148290310466  0.7551561008183327  1.0000
  O   O6        1.0  0.0817642845547653  0.3224155892690774  0.7448432104536878  1.0000
  O   O7        1.0  0.5817654086770077  0.1775836504928918  0.2448435060931615  1.0000
  O   O8        1.0  0.9182354787552214  0.6775828902548611  0.2551549129157564  1.0000
  O   O9        1.0  0.3173074977361239  0.2555779450491116  0.4238889196761022  1.0000
  O   O10       1.0  0.1826948688533605  0.7555771848110808  0.0761129981319399  1.0000
  O   O11       1.0  0.682694750508354  0.7444229691842991  0.5761116716028383  1.0000
  O   O12       1.0  0.8173073793911243  0.2444229178525035  0.9238868167193459  1.0000
  O   O13       1.0  0.5312566301740844  0.1469533822896025  0.47500377159981616  1.0000
  O   O14       1.0  0.9687442572581446  0.6469534336213911  0.024996200264411107  1.0000
  O   O15       1.0  0.4687431331359022  0.8530467203739818  0.524996681052599  1.0000
  O   O16       1.0  0.0312567485190911  0.3530474806120125  0.9750035452736088  1.0000
  O   O17       1.0  0.7197426388631742  0.5220130711703277  0.9354454291299348  1.0000
  O   O18       1.0  0.780258248569055  0.0220130198385391  0.5645545427342924  1.0000
  O   O19       1.0  0.2802583669140617  0.4779870314932566  0.0645543164080848  1.0000
  O   O20       1.0  0.2197427572081807  0.9779862712552259  0.4354467556590436  1.0000
