data_image0
_chemical_formula_structural       Bi4H40C20S8I8N4
_chemical_formula_sum              "Bi4 H40 C20 S8 I8 N4"
_cell_length_a       8.136685193914557
_cell_length_b       10.380792234055786
_cell_length_c       14.75442244504927
_cell_angle_alpha    90.0000534630821
_cell_angle_beta     90.0002922798156
_cell_angle_gamma    90.95541109349439

_space_group_name_H-M_alt    "P 1"
_space_group_IT_number       1

loop_
  _space_group_symop_operation_xyz
  'x, y, z'

loop_
  _atom_site_type_symbol
  _atom_site_label
  _atom_site_symmetry_multiplicity
  _atom_site_fract_x
  _atom_site_fract_y
  _atom_site_fract_z
  _atom_site_occupancy
  Bi  Bi1       1.0  0.7779534905033358  0.2190689396094498  0.21091420774418174  1.0000
  Bi  Bi2       1.0  0.7220517876854232  0.7809274494995863  0.7109149109009606  1.0000
  Bi  Bi3       1.0  0.2220425556181382  0.7809279478777212  0.7890866973337509  1.0000
  Bi  Bi4       1.0  0.277956548566884  0.21906944373027665  0.2890846386685837  1.0000
  H   H1        1.0  0.1868039474405734  0.317628218272489  0.026868924519966697  1.0000
  H   H2        1.0  0.313197752763223  0.6823736190288372  0.5268698199141255  1.0000
  H   H3        1.0  0.8132020098390811  0.6823725276146675  0.9731313028103801  1.0000
  H   H4        1.0  0.686802257076998  0.3176367585003632  0.47313040741101997  1.0000
  H   H5        1.0  0.19247944925371738  0.36577952070887676  0.9112675110485283  1.0000
  H   H6        1.0  0.3075208017822533  0.634219008554865  0.4112685239767302  1.0000
  H   H7        1.0  0.807523990712916  0.6342183336758751  0.08873339404019022  1.0000
  H   H8        1.0  0.6924815672739584  0.3657865528666094  0.58873238111304  1.0000
  H   H9        1.0  0.0674668729047241  0.2320560480715272  0.9453743514768007  1.0000
  H   H10       1.0  0.4325313335343282  0.7679473459279221  0.4453737741086242  1.0000
  H   H11       1.0  0.9325342078584241  0.767946622422876  0.0546285868988576  1.0000
  H   H12       1.0  0.5674662182784758  0.23206303045254364  0.5546264532130465  1.0000
  H   H13       1.0  0.7627918137364206  0.2268604068780178  0.8470719263375059  1.0000
  H   H14       1.0  0.7372111915086988  0.7731438822473037  0.3470701218695069  1.0000
  H   H15       1.0  0.2372142621207018  0.7731461197174595  0.15292830099494384  1.0000
  H   H16       1.0  0.2627873323937209  0.22685396983853676  0.6529287499235821  1.0000
  H   H17       1.0  0.5836103943333626  0.17730965118700937  0.7858615341120441  1.0000
  H   H18       1.0  0.9163931171902959  0.8226868436312597  0.2858623030968204  1.0000
  H   H19       1.0  0.4163992895038647  0.8226930233245684  0.214136659935555  1.0000
  H   H20       1.0  0.08360411840656208  0.17730811752556966  0.714135890930585  1.0000
  H   H21       1.0  0.6861377583578445  0.324721803993377  0.7579948293598946  1.0000
  H   H22       1.0  0.8138656541945153  0.6752823587021624  0.2579924988104239  1.0000
  H   H23       1.0  0.313863361928  0.675282793403312  0.24200743125356888  1.0000
  H   H24       1.0  0.186135307972414  0.32471453108102105  0.7420063729857915  1.0000
  H   H25       1.0  0.3241057222228391  0.15184219911524366  0.8711061081501369  1.0000
  H   H26       1.0  0.17588918297844464  0.8481533802332352  0.3711035024051625  1.0000
  H   H27       1.0  0.6758915133927769  0.8481527620444852  0.1288961524546153  1.0000
  H   H28       1.0  0.8241069619357049  0.15184832450749036  0.62889265833428  1.0000
  H   H29       1.0  0.3151411548851968  0.10591080428970659  0.9864674239313018  1.0000
  H   H30       1.0  0.18485241574725106  0.8940878287438351  0.4864655519523922  1.0000
  H   H31       1.0  0.684856140019157  0.8940870472241826  0.013534836674495  1.0000
  H   H32       1.0  0.8151401607063561  0.1059196549825927  0.5135312865468222  1.0000
  H   H33       1.0  0.43561590309059983  0.3729503157919538  0.8469312151472721  1.0000
  H   H34       1.0  0.064379929087842  0.6270413758604717  0.34693289068503924  1.0000
  H   H35       1.0  0.564381332512511  0.6270446453658493  0.1530683344059227  1.0000
  H   H36       1.0  0.9356197645520651  0.37295358644750104  0.6530686921602964  1.0000
  H   H37       1.0  0.6125537896808522  0.4179178928275887  0.9091311364893357  1.0000
  H   H38       1.0  0.8874361700772225  0.5820816612058551  0.4091303075483808  1.0000
  H   H39       1.0  0.3874398577050684  0.5820818838654914  0.09087044634905792  1.0000
  H   H40       1.0  0.1125587063255296  0.41791811606207585  0.5908719530546378  1.0000
  C   C1        1.0  0.5736610604663923  0.23880386746975543  0.0305544425113737  1.0000
  C   C2        1.0  0.9263376181535534  0.7611912987386448  0.5305557106857179  1.0000
  C   C3        1.0  0.42633982264889875  0.761189168507883  0.9694444292834418  1.0000
  C   C4        1.0  0.07366588108305899  0.23880944599736145  0.4694411278266983  1.0000
  C   C5        1.0  0.32512864527075186  0.1891125229069033  0.9408641897398624  1.0000
  C   C6        1.0  0.1748681719755396  0.8108850833798514  0.4408642672984798  1.0000
  C   C7        1.0  0.6748710681289367  0.810883402851978  0.05913671534293739  1.0000
  C   C8        1.0  0.8251255544463872  0.18911854711635806  0.559133926726858  1.0000
  C   C9        1.0  0.18547577673643187  0.2820888044589438  0.9568266947114381  1.0000
  C   C10       1.0  0.3145236853129774  0.7179107526384741  0.45682710551269423  1.0000
  C   C11       1.0  0.8145276632302085  0.717909049925808  0.043174210377273405  1.0000
  C   C12       1.0  0.6854762257126906  0.2820948076337899  0.5431731218107032  1.0000
  C   C13       1.0  0.5446207564602686  0.33500505039285133  0.8806514160616885  1.0000
  C   C14       1.0  0.9553762356206761  0.6649906126767461  0.380652190215514  1.0000
  C   C15       1.0  0.45537899646524943  0.6649928022687986  0.1193494890218076  1.0000
  C   C16       1.0  0.0446247463154137  0.33500724055878817  0.6193480371068318  1.0000
  C   C17       1.0  0.6505149820344158  0.26083283522151396  0.8142124783387175  1.0000
  C   C18       1.0  0.849485143503152  0.7391656251987725  0.3142136800255599  1.0000
  C   C19       1.0  0.34949101477106126  0.7391698375684187  0.1857877489923325  1.0000
  C   C20       1.0  0.15051086308937303  0.2608293353851466  0.6857865472887781  1.0000
  S   S1        1.0  0.5126211191733815  0.13194122828856078  0.1154766551194015  1.0000
  S   S2        1.0  0.987375904553666  0.8680550213015507  0.6154768117900531  1.0000
  S   S3        1.0  0.4873810324814372  0.8680537351662139  0.8845222166778584  1.0000
  S   S4        1.0  0.0126215286754245  0.131949574369628  0.3845220600037393  1.0000
  S   S5        1.0  0.7544396500472742  0.3253659675396534  0.04637100200271501  1.0000
  S   S6        1.0  0.7455580245100251  0.6746330744503553  0.5463717008070718  1.0000
  S   S7        1.0  0.24555883433558276  0.6746299576443773  0.9536292253154527  1.0000
  S   S8        1.0  0.2544369902205972  0.32537344697534815  0.4536278487468266  1.0000
  I   I1        1.0  0.06969111607800471  0.4341221716276635  0.2017329788446318  1.0000
  I   I2        1.0  0.430309699631465  0.5658779869388865  0.7017341279979804  1.0000
  I   I3        1.0  0.9303111343851143  0.5658776090830813  0.7982645374285937  1.0000
  I   I4        1.0  0.5696913218179489  0.43412179319749106  0.2982633882735044  1.0000
  I   I5        1.0  0.0439888746059083  0.030004910724834098  0.14971653918019  1.0000
  I   I6        1.0  0.4560127100395093  0.9699961377025942  0.6497159973021454  1.0000
  I   I7        1.0  0.9560133561099278  0.969993906536935  0.850284365907136  1.0000
  I   I8        1.0  0.54398837071426  0.030006532790359603  0.3502849077848325  1.0000
  N   N1        1.0  0.4860120802405419  0.2526043729629065  0.9553882195528871  1.0000
  N   N2        1.0  0.013989787034084598  0.7473932563284507  0.4553871216792018  1.0000
  N   N3        1.0  0.513990091180311  0.7473915539437357  0.044611330007605  1.0000
  N   N4        1.0  0.9860051881800871  0.2526113381959334  0.5446144611626734  1.0000
