data_image0
_chemical_formula_structural       H12Ru2C38N4O10F16
_chemical_formula_sum              "H12 Ru2 C38 N4 O10 F16"
_cell_length_a       10.56763206553602
_cell_length_b       10.748208319668093
_cell_length_c       15.264569503570277
_cell_angle_alpha    89.85227383864319
_cell_angle_beta     67.55118057930797
_cell_angle_gamma    91.0672069154126

_space_group_name_H-M_alt    "P 1"
_space_group_IT_number       1

loop_
  _space_group_symop_operation_xyz
  'x, y, z'

loop_
  _atom_site_type_symbol
  _atom_site_label
  _atom_site_symmetry_multiplicity
  _atom_site_fract_x
  _atom_site_fract_y
  _atom_site_fract_z
  _atom_site_occupancy
  H   H1        1.0  0.577002508793342  0.9360358610636157  0.3306327478743896  1.0000
  H   H2        1.0  0.4230144162090284  0.0639156101604286  0.6693637018478639  1.0000
  H   H3        1.0  0.6653690949963433  0.7095868437929623  0.8133137720679215  1.0000
  H   H4        1.0  0.3346532977543005  0.290431659048032  0.1866785668529545  1.0000
  H   H5        1.0  0.7356475892772778  0.22251042767006618  0.0954617230144663  1.0000
  H   H6        1.0  0.2643329956108147  0.7775157013083176  0.9045376013645807  1.0000
  H   H7        1.0  0.20613056582549666  0.31400773402828713  0.6588529165482057  1.0000
  H   H8        1.0  0.7938682410053842  0.685893965601089  0.34118661968033603  1.0000
  H   H9        1.0  0.3575426920286233  0.2676319938743177  0.6760020038606172  1.0000
  H   H10       1.0  0.642465642914587  0.7322622482130329  0.32402674084121935  1.0000
  H   H11       1.0  0.2145995514011361  0.1603691900530748  0.7024430205212157  1.0000
  H   H12       1.0  0.785420983219474  0.8395210578676641  0.29755915614547485  1.0000
  Ru  Ru1       1.0  0.49071547724194187  0.031986072627660206  0.07487635988812257  1.0000
  Ru  Ru2       1.0  0.5092877099832052  0.9680338600245548  0.9251148192386581  1.0000
  C   C1        1.0  0.5752070098264638  0.2284444573131665  0.9321596063980309  1.0000
  C   C2        1.0  0.42479294752021707  0.7715689761106362  0.06783572615423586  1.0000
  C   C3        1.0  0.24644813305921084  0.0679994876940029  0.033905931217972786  1.0000
  C   C4        1.0  0.7535439581254623  0.9320481470949389  0.9660863579292709  1.0000
  C   C5        1.0  0.4364288961569898  0.10798633702858498  0.2922966455345275  1.0000
  C   C6        1.0  0.5636003093308091  0.8919839796312488  0.7076985072049595  1.0000
  C   C7        1.0  0.6030721518221966  0.35947810128106983  0.8978632126173594  1.0000
  C   C8        1.0  0.39692355535650853  0.640536271823585  0.10213709365137189  1.0000
  C   C9        1.0  0.1060509839014472  0.10965003072296042  0.050936065038584395  1.0000
  C   C10       1.0  0.8939491470318826  0.8903735733539545  0.9490558275748812  1.0000
  C   C11       1.0  0.6660341964174634  0.44573342743955624  0.938299617269486  1.0000
  C   C12       1.0  0.33395148852937245  0.5542881331051036  0.06169849812942368  1.0000
  C   C13       1.0  0.562692519360219  0.40434107620620824  0.8259501728503055  1.0000
  C   C14       1.0  0.4372859463368002  0.5956803929367994  0.17405104203992747  1.0000
  C   C15       1.0  0.0010975526474936968  0.103089019727193  0.14155910475616204  1.0000
  C   C16       1.0  0.9989139005987654  0.8969235527461951  0.8584274927836121  1.0000
  C   C17       1.0  0.0734425386473276  0.15899564657622986  0.9770338915712247  1.0000
  C   C18       1.0  0.9265451290604858  0.8410362320179274  0.022966232736330035  1.0000
  C   C19       1.0  0.4548430063708864  0.0634740926573869  0.43626504512409536  1.0000
  C   C20       1.0  0.5451772423734909  0.9365006116843374  0.5637263751429274  1.0000
  C   C21       1.0  0.6903318623675716  0.5685853212677046  0.9063679606367144  1.0000
  C   C22       1.0  0.3096728726797409  0.4314423410800217  0.0936358519780356  1.0000
  C   C23       1.0  0.5851523503599552  0.5286952001588858  0.7964083050277607  1.0000
  C   C24       1.0  0.41483886429354294  0.4713258215255963  0.20360352159606526  1.0000
  C   C25       1.0  0.870220574742156  0.14456757505735138  0.15683778466153336  1.0000
  C   C26       1.0  0.1297916714101035  0.8554469888636334  0.8431544916203109  1.0000
  C   C27       1.0  0.9419146390959058  0.19940364117316994  0.9935396025193342  1.0000
  C   C28       1.0  0.0580897711195547  0.8006460418062175  0.0064489566514040995  1.0000
  C   C29       1.0  0.5444901385912786  0.9620510987472813  0.4047610242776756  1.0000
  C   C30       1.0  0.4555251455325333  0.0379118369530573  0.5952520814427302  1.0000
  C   C31       1.0  0.41010479882289985  0.1009576278869631  0.5342987180122591  1.0000
  C   C32       1.0  0.5899014681070723  0.8990078601087461  0.46571200264786233  1.0000
  C   C33       1.0  0.650238002462089  0.6122062397272359  0.835510362380866  1.0000
  C   C34       1.0  0.3497690189871463  0.3878082914899749  0.1644858296068605  1.0000
  C   C35       1.0  0.8389558764405011  0.19332020831195254  0.08338734042737161  1.0000
  C   C36       1.0  0.16104522556221207  0.8066969125626001  0.9166050436031129  1.0000
  C   C37       1.0  0.2733917335166041  0.23635204157233147  0.655150842171423  1.0000
  C   C38       1.0  0.726608928679461  0.7635651234655755  0.3448690456998236  1.0000
  N   N1        1.0  0.4569262216436343  0.0990305599349668  0.2100961236886008  1.0000
  N   N2        1.0  0.5430896969318935  0.9009581725462893  0.789903412698898  1.0000
  N   N3        1.0  0.40798647009037853  0.12781429324139282  0.3794461320816466  1.0000
  N   N4        1.0  0.5920236550717348  0.8721490039221251  0.6205439971480828  1.0000
  O   O1        1.0  0.5539516760102855  0.20704360409310854  0.01932804025152274  1.0000
  O   O2        1.0  0.4460572640060718  0.7929784794226147  0.9806715199584133  1.0000
  O   O3        1.0  0.29235490119239665  0.08213089595469109  0.09939607200129066  1.0000
  O   O4        1.0  0.7076342407386491  0.9178942586840363  0.9005919694340391  1.0000
  O   O5        1.0  0.42831725495597067  0.8553290085631106  0.12611816247694926  1.0000
  O   O6        1.0  0.5716896948125479  0.14468089617417226  0.873879412627133  1.0000
  O   O7        1.0  0.6856238262659246  0.9801493810036845  0.04687498910379163  1.0000
  O   O8        1.0  0.31437446069114827  0.01989180328666861  0.9531138757545891  1.0000
  O   O9        1.0  0.32446847208321117  0.19763970114562573  0.5581745383372764  1.0000
  O   O10       1.0  0.6755300215825174  0.8023105395148703  0.4418264898399115  1.0000
  F   F1        1.0  0.7052938241686917  0.41293254388781253  0.009417870578587773  1.0000
  F   F2        1.0  0.29469052354054526  0.5870770319531289  0.9905872712828057  1.0000
  F   F3        1.0  0.495970066825322  0.32955568062122614  0.7862204830021539  1.0000
  F   F4        1.0  0.5039628542334  0.6704662258193607  0.2138044569623787  1.0000
  F   F5        1.0  0.023371272392580494  0.052876997257960995  0.21528559493970081  1.0000
  F   F6        1.0  0.9766147651375833  0.9471266836223078  0.7847021577104912  1.0000
  F   F7        1.0  0.1693193876179819  0.17128786601906404  0.8882892942169393  1.0000
  F   F8        1.0  0.8306765219837616  0.828770221544545  0.11170979088169725  1.0000
  F   F9        1.0  0.7523249071957919  0.646446679116309  0.9482201385226433  1.0000
  F   F10       1.0  0.24769064079342232  0.35357248529049906  0.05176602272241128  1.0000
  F   F11       1.0  0.5402381177817616  0.5677258279824853  0.7293217441313614  1.0000
  F   F12       1.0  0.45973657661533446  0.43229965470801074  0.270698052972392  1.0000
  F   F13       1.0  0.7720349824540165  0.1344473073861181  0.24506277428944392  1.0000
  F   F14       1.0  0.22796918069499839  0.865540971538131  0.7549265703731366  1.0000
  F   F15       1.0  0.9155482237942393  0.2426188069379976  0.9187973848408718  1.0000
  F   F16       1.0  0.0844468407712355  0.7574177388528937  0.08119560964021132  1.0000
