data_image0
_chemical_formula_structural       Zn2H28C44N6O8F4
_chemical_formula_sum              "Zn2 H28 C44 N6 O8 F4"
_cell_length_a       15.972875020467361
_cell_length_b       17.367711299387025
_cell_length_c       17.91980981650561
_cell_angle_alpha    90.2519748817797
_cell_angle_beta     93.13144879664064
_cell_angle_gamma    96.09998168074173

_space_group_name_H-M_alt    "P 1"
_space_group_IT_number       1

loop_
  _space_group_symop_operation_xyz
  'x, y, z'

loop_
  _atom_site_type_symbol
  _atom_site_label
  _atom_site_symmetry_multiplicity
  _atom_site_fract_x
  _atom_site_fract_y
  _atom_site_fract_z
  _atom_site_occupancy
  Zn  Zn1       1.0  0.41268693468695256  0.4975953111512865  0.4954366098896585  1.0000
  Zn  Zn2       1.0  0.5872918912623248  0.5023944393913595  0.5045411318464588  1.0000
  H   H1        1.0  0.7142313651632648  0.4266278616589502  0.426537941139209  1.0000
  H   H2        1.0  0.8729447401611239  0.4267688505931416  0.4266091121863839  1.0000
  H   H3        1.0  0.8924947595822985  0.602045136388071  0.6009429163244704  1.0000
  H   H4        1.0  0.1074745800560635  0.3979799881472559  0.39904794704808916  1.0000
  H   H5        1.0  0.12704382803069342  0.5732539754055779  0.5733863557185545  1.0000
  H   H6        1.0  0.28575459978435447  0.573384506162455  0.5734484802150419  1.0000
  H   H7        1.0  0.6191017312440154  0.2594815112572491  0.5052275460081148  1.0000
  H   H8        1.0  0.6140161586246576  0.11414312727556111  0.5050906003370059  1.0000
  H   H9        1.0  0.34268497556588784  0.09921071091822849  0.4935559818306318  1.0000
  H   H10       1.0  0.6573107339266073  0.900787521321277  0.5065189454642011  1.0000
  H   H11       1.0  0.3859789521374779  0.8858504572028635  0.4949803886804817  1.0000
  H   H12       1.0  0.3808986466395226  0.7405114195772668  0.49482410070352506  1.0000
  H   H13       1.0  0.3629655486703953  0.4943715356361125  0.7322794214656627  1.0000
  H   H14       1.0  0.6321025528315758  0.5050887581244368  0.7422790173903807  1.0000
  H   H15       1.0  0.3678670361400904  0.49488650558852504  0.2576961241314422  1.0000
  H   H16       1.0  0.6369909792331825  0.5053370063369941  0.2677555178283555  1.0000
  H   H17       1.0  0.6939182820813413  0.4564188799467955  0.8782043157070234  1.0000
  H   H18       1.0  0.6533730102114531  0.5062804750956502  0.9527041932560607  1.0000
  H   H19       1.0  0.7011603921242368  0.558895191308423  0.878562074912665  1.0000
  H   H20       1.0  0.3047733603468572  0.5430717334093771  0.8640625317839793  1.0000
  H   H21       1.0  0.3475977116828942  0.4935364563029693  0.9411912942039821  1.0000
  H   H22       1.0  0.29781301814402644  0.4405339989234349  0.8630932200128073  1.0000
  H   H23       1.0  0.7019963478514272  0.5594242795493045  0.1365316849419997  1.0000
  H   H24       1.0  0.6523825519125098  0.5056386796108896  0.05882274777203381  1.0000
  H   H25       1.0  0.6954573978158152  0.45690590195322756  0.1363775659591369  1.0000
  H   H26       1.0  0.29900907775917324  0.4407825892797632  0.121003966206267  1.0000
  H   H27       1.0  0.34666680830173385  0.494181233834915  0.04727732199712881  1.0000
  H   H28       1.0  0.3058595092296769  0.5432440463008703  0.12216499435183441  1.0000
  C   C1        1.0  0.49442303327140275  0.34830706375107207  0.49950212944076355  1.0000
  C   C2        1.0  0.5038394854740035  0.5000941729369544  0.3542924776978467  1.0000
  C   C3        1.0  0.5055773698738619  0.6516833162454888  0.5004886802356125  1.0000
  C   C4        1.0  0.49611420237479115  0.4998180164948707  0.6456942290509106  1.0000
  C   C5        1.0  0.7571651464042902  0.4638428405777759  0.463871621231661  1.0000
  C   C6        1.0  0.8438359651981885  0.4641781535695984  0.46402965091504467  1.0000
  C   C7        1.0  0.8939053109558659  0.5146165816847486  0.5142172887912935  1.0000
  C   C8        1.0  0.8555245126307867  0.5623761892038813  0.561692885467707  1.0000
  C   C9        1.0  0.7678520110362754  0.5568779290376682  0.5567441885256414  1.0000
  C   C10       1.0  0.1444462793264378  0.43765701464018747  0.4382907925980818  1.0000
  C   C11       1.0  0.10606955492552572  0.48541316978898413  0.4857721119027261  1.0000
  C   C12       1.0  0.15614685808177597  0.5358440839361265  0.5359633734376033  1.0000
  C   C13       1.0  0.242817661053401  0.5361747384905585  0.5361146956346728  1.0000
  C   C14       1.0  0.2321176715428734  0.44314600081354166  0.4432371972240432  1.0000
  C   C15       1.0  0.4856219052543977  0.2612802644473291  0.49925977932409893  1.0000
  C   C16       1.0  0.5592318541641674  0.2228749416196933  0.5025390859243333  1.0000
  C   C17       1.0  0.5567072919683653  0.14299722454371988  0.5025600159967922  1.0000
  C   C18       1.0  0.47795600219439655  0.09785961972125527  0.4992335145807587  1.0000
  C   C19       1.0  0.40362130208210806  0.1341054066038652  0.49605882717947486  1.0000
  C   C20       1.0  0.4082261759690837  0.21442573035855617  0.4960886110908405  1.0000
  C   C21       1.0  0.5963766846553682  0.8658886777441239  0.5039916183706622  1.0000
  C   C22       1.0  0.522041479721473  0.9021361824210032  0.5008118932356782  1.0000
  C   C23       1.0  0.44329156168583245  0.8569980439003968  0.4974971608775931  1.0000
  C   C24       1.0  0.4407678724893244  0.7771191085464081  0.49750249357506254  1.0000
  C   C25       1.0  0.5143773083755788  0.738712534970155  0.5007577806217185  1.0000
  C   C26       1.0  0.5917739112417236  0.7855671294292818  0.5039446076334073  1.0000
  C   C27       1.0  0.49741631821553506  0.49981597520369536  0.7292761644211367  1.0000
  C   C28       1.0  0.42213876017821417  0.4968784606655205  0.765955495330445  1.0000
  C   C29       1.0  0.42154027905242225  0.4967465566077322  0.8436406112511321  1.0000
  C   C30       1.0  0.4996046953819616  0.49981227187807764  0.886475077711161  1.0000
  C   C31       1.0  0.576591201753381  0.502893987634927  0.84949852422276  1.0000
  C   C32       1.0  0.5738569550731966  0.5027466903864735  0.7716402523306984  1.0000
  C   C33       1.0  0.500244988256604  0.49980720871273115  0.9658186281361196  1.0000
  C   C34       1.0  0.4997672076283308  0.4998676018752164  0.034178649956516004  1.0000
  C   C35       1.0  0.5003940869814301  0.499941297728533  0.1135235491564401  1.0000
  C   C36       1.0  0.42339823097167795  0.49697012839137483  0.1504854815467098  1.0000
  C   C37       1.0  0.42611577600560224  0.4971573752869745  0.22834211044109762  1.0000
  C   C38       1.0  0.5025454025756346  0.5000354208959905  0.2707129411731373  1.0000
  C   C39       1.0  0.577837795483781  0.5029087439082502  0.2340557839754354  1.0000
  C   C40       1.0  0.5784572736927771  0.5030058934023103  0.1563680140976942  1.0000
  C   C41       1.0  0.6605279562149563  0.5063001947217742  0.8923323073079814  1.0000
  C   C42       1.0  0.33872835582415217  0.49330545994342145  0.8802243902173714  1.0000
  C   C43       1.0  0.6612819281981644  0.5064093927462564  0.11979522561754413  1.0000
  C   C44       1.0  0.33946926252365023  0.49362700304912005  0.10764206909557571  1.0000
  N   N1        1.0  0.7193647676264093  0.5097961072918408  0.5100899570049435  1.0000
  N   N2        1.0  0.983330471186818  0.5220270735676992  0.5216042693352421  1.0000
  N   N3        1.0  0.01664567835025109  0.47800212267859615  0.47839131617812575  1.0000
  N   N4        1.0  0.28061193317421385  0.4902237614033425  0.4898894443268347  1.0000
  N   N5        1.0  0.4661353355270137  0.0160581591802327  0.4987868247317948  1.0000
  N   N6        1.0  0.53386129708867  0.9839364631717658  0.5012529686081066  1.0000
  O   O1        1.0  0.42727001279386906  0.3814977042155334  0.4985904087955788  1.0000
  O   O2        1.0  0.5694049782782145  0.3819841583151343  0.5007018713911222  1.0000
  O   O3        1.0  0.5751548118932206  0.4983617787366724  0.3896384595885891  1.0000
  O   O4        1.0  0.433375808780049  0.5018861577805964  0.3841188801257545  1.0000
  O   O5        1.0  0.5727239452345856  0.6184959581065073  0.5012003733233001  1.0000
  O   O6        1.0  0.4306037414423045  0.6180016588196295  0.49945721999648646  1.0000
  O   O7        1.0  0.4247790993247235  0.5014172331405788  0.610350594658982  1.0000
  O   O8        1.0  0.5666068937755141  0.4982391166593274  0.6158643094557875  1.0000
  F   F1        1.0  0.72863048475719  0.6012750698240338  0.6017197078656409  1.0000
  F   F2        1.0  0.2713320617609938  0.3987534550580135  0.3982519390646786  1.0000
  F   F3        1.0  0.33364846509602597  0.24552108759068147  0.4927218246048427  1.0000
  F   F4        1.0  0.6663513195333691  0.7544677594985741  0.507321978526214  1.0000
