data_image0
_chemical_formula_structural       Cs4H20C28S4O24
_chemical_formula_sum              "Cs4 H20 C28 S4 O24"
_cell_length_a       7.183526215001995
_cell_length_b       9.7710855728875
_cell_length_c       14.371332454856926
_cell_angle_alpha    91.68279531812483
_cell_angle_beta     90.00004371732
_cell_angle_gamma    90.0000716798449

_space_group_name_H-M_alt    "P 1"
_space_group_IT_number       1

loop_
  _space_group_symop_operation_xyz
  'x, y, z'

loop_
  _atom_site_type_symbol
  _atom_site_label
  _atom_site_symmetry_multiplicity
  _atom_site_fract_x
  _atom_site_fract_y
  _atom_site_fract_z
  _atom_site_occupancy
  Cs  Cs1       1.0  0.8187239134659594  0.4593764476491272  0.3474828692609435  1.0000
  Cs  Cs2       1.0  0.31872426643214885  0.540623696555876  0.15251735955742157  1.0000
  Cs  Cs3       1.0  0.1812782216960827  0.5406228534449157  0.652516534649827  1.0000
  Cs  Cs4       1.0  0.6812792608047644  0.4593766284074192  0.8474820656171643  1.0000
  H   H1        1.0  0.811273514400014  0.6416349506056773  0.1196783013968741  1.0000
  H   H2        1.0  0.31127390550935274  0.35836416150975475  0.3803225989743879  1.0000
  H   H3        1.0  0.18872444454270723  0.3583674220921864  0.8803211663036805  1.0000
  H   H4        1.0  0.6887254455043532  0.6416341145064237  0.6196774794773817  1.0000
  H   H5        1.0  0.0660381499270457  0.8761234155859088  0.2652872881779587  1.0000
  H   H6        1.0  0.5660356648836571  0.1238764883495804  0.23471423088717816  1.0000
  H   H7        1.0  0.9339612010887779  0.12387793324401027  0.7347121582593346  1.0000
  H   H8        1.0  0.43395672575957184  0.8761217888712807  0.7652851517581001  1.0000
  H   H9        1.0  0.05586143200034851  0.1268406512704701  0.2357804716056791  1.0000
  H   H10       1.0  0.5558602610773278  0.873159243086327  0.264221043377411  1.0000
  H   H11       1.0  0.9441420952374528  0.8731606975614241  0.7642189748324525  1.0000
  H   H12       1.0  0.44413630578875274  0.12684005800509365  0.735778360532244  1.0000
  H   H13       1.0  0.7063669835388424  0.0481209122006021  0.9966893594006835  1.0000
  H   H14       1.0  0.20636780592999324  0.9518765406985777  0.5033119916237396  1.0000
  H   H15       1.0  0.2936365437001954  0.9518824855764335  0.0033094337594263994  1.0000
  H   H16       1.0  0.7936343292323899  0.048120707826448894  0.4966901529803495  1.0000
  H   H17       1.0  0.5032820223566645  0.7605510618725757  0.9094797310196725  1.0000
  H   H18       1.0  0.0032817707709043003  0.23944927388460258  0.5905202107190562  1.0000
  H   H19       1.0  0.4967187207308614  0.23944824042876425  0.0905189770857149  1.0000
  H   H20       1.0  0.996718972319968  0.760552072530068  0.409480627328719  1.0000
  C   C1        1.0  0.784976003848918  0.8714330303168298  0.0731387968726622  1.0000
  C   C2        1.0  0.2849774686467797  0.1285660558373962  0.4268627887548888  1.0000
  C   C3        1.0  0.2150219550938033  0.1285693423810343  0.9268606708278926  1.0000
  C   C4        1.0  0.7150218823674522  0.8714322189708311  0.5731379855019796  1.0000
  C   C5        1.0  0.8857315525780792  0.8224891069736481  0.150552856040008  1.0000
  C   C6        1.0  0.38573019825843613  0.17751007402011248  0.3494487700042512  1.0000
  C   C7        1.0  0.11426640636428692  0.17751224064765836  0.8494472862021071  1.0000
  C   C8        1.0  0.6142649765329438  0.8224871769175548  0.6505519829882404  1.0000
  C   C9        1.0  0.9855252829857406  0.915434138664487  0.20778424697409287  1.0000
  C   C10       1.0  0.48552507615946183  0.08456513626531859  0.29221741910185284  1.0000
  C   C11       1.0  0.0144726759566254  0.08456720895681968  0.792215895268015  1.0000
  C   C12       1.0  0.5144700986322732  0.9154331397488985  0.7077826593490785  1.0000
  C   C13       1.0  0.9790235557291354  0.05459290901286098  0.1911756254134573  1.0000
  C   C14       1.0  0.4790220482023316  0.9454073848728297  0.3088253635125469  1.0000
  C   C15       1.0  0.0209785794360826  0.945409462479013  0.8088245380930346  1.0000
  C   C16       1.0  0.5209745186637491  0.05459191621859108  0.691174040397101  1.0000
  C   C17       1.0  0.8752583448747089  0.10346389034865665  0.1162608645184022  1.0000
  C   C18       1.0  0.37525686863454416  0.8965352819946016  0.38374006151948953  1.0000
  C   C19       1.0  0.12474518236273721  0.8965364334066804  0.8837392564612899  1.0000
  C   C20       1.0  0.6247424823805758  0.10346401668221719  0.6162607340009175  1.0000
  C   C21       1.0  0.7827103589522295  0.0120386195817019  0.056508036162732395  1.0000
  C   C22       1.0  0.282710520631312  0.9879594405706698  0.4434935272921692  1.0000
  C   C23       1.0  0.21729177621157456  0.9879627292495384  0.9434914102751152  1.0000
  C   C24       1.0  0.7172902224574429  0.012038833030246101  0.5565079427700823  1.0000
  C   C25       1.0  0.679899347352702  0.7742693405372448  0.0136432356791403  1.0000
  C   C26       1.0  0.17989967524867012  0.22572862525544918  0.4863568949237802  1.0000
  C   C27       1.0  0.3201013957357048  0.22573098563269398  0.9863554936897928  1.0000
  C   C28       1.0  0.8201024599121285  0.7742686268934447  0.5136431622650051  1.0000
  S   S1        1.0  0.8474921772820779  0.2824982952732  0.10126048956247759  1.0000
  S   S2        1.0  0.3474918126927734  0.7174998282737447  0.3987397082688204  1.0000
  S   S3        1.0  0.15250856580773586  0.7175030535573795  0.8987389568750928  1.0000
  S   S4        1.0  0.6525089303954488  0.28249844653513617  0.601261065988325  1.0000
  O   O1        1.0  0.8885615403002021  0.6883101036727338  0.1701789385952424  1.0000
  O   O2        1.0  0.38856316752600867  0.31168805732564653  0.3298219715162034  1.0000
  O   O3        1.0  0.11143363449559732  0.3116922666079134  0.8298219207149558  1.0000
  O   O4        1.0  0.6114347914133518  0.6883091936133212  0.6701787814768423  1.0000
  O   O5        1.0  0.8554339025855525  0.3050632101322961  0.0015393102561489997  1.0000
  O   O6        1.0  0.35543225954061336  0.6949349208895655  0.4984608907606472  1.0000
  O   O7        1.0  0.14456823257790327  0.6949371136223874  0.9984608107232589  1.0000
  O   O8        1.0  0.6445684835470828  0.3050633551272668  0.5015391876913995  1.0000
  O   O9        1.0  0.6588021747752677  0.3159468752424885  0.1409355154976524  1.0000
  O   O10       1.0  0.15880169311770234  0.6840520945597247  0.3590646279056813  1.0000
  O   O11       1.0  0.3411999603881882  0.6840534485121947  0.8590646054817555  1.0000
  O   O12       1.0  0.8411976578968849  0.31594720532505244  0.6409354718096268  1.0000
  O   O13       1.0  0.9924865281849691  0.35046085350666084  0.1574414427975555  1.0000
  O   O14       1.0  0.49248596293210073  0.6495384315994457  0.34255813865546264  1.0000
  O   O15       1.0  0.007514214903963501  0.649539471455327  0.8425579823764764  1.0000
  O   O16       1.0  0.5075133880810725  0.35045984562469085  0.657441243991201  1.0000
  O   O17       1.0  0.5988368446576332  0.8267464371213079  0.940241480657967  1.0000
  O   O18       1.0  0.09883504203203591  0.17325296229606826  0.5597598697581603  1.0000
  O   O19       1.0  0.40116389843077377  0.17325388904863098  0.05975724871096591  1.0000
  O   O20       1.0  0.9011643089836098  0.8267463351727995  0.44024162156735264  1.0000
  O   O21       1.0  0.6656193615505471  0.6499218505240378  0.0326906853225495  1.0000
  O   O22       1.0  0.16561708692508864  0.350076101825735  0.467309439551542  1.0000
  O   O23       1.0  0.33438138153962876  0.35008052338309165  0.9673080865734605  1.0000
  O   O24       1.0  0.8343822640882621  0.6499211491138935  0.5326913134417879  1.0000
