data_image0
_chemical_formula_structural       Cu12H72C84N28
_chemical_formula_sum              "Cu12 H72 C84 N28"
_cell_length_a       28.928627713502873
_cell_length_b       29.565927135597164
_cell_length_c       30.76649974064943
_cell_angle_alpha    91.44339946597047
_cell_angle_beta     91.06739633217566
_cell_angle_gamma    90.09672551269625

_space_group_name_H-M_alt    "P 1"
_space_group_IT_number       1

loop_
  _space_group_symop_operation_xyz
  'x, y, z'

loop_
  _atom_site_type_symbol
  _atom_site_label
  _atom_site_symmetry_multiplicity
  _atom_site_fract_x
  _atom_site_fract_y
  _atom_site_fract_z
  _atom_site_occupancy
  Cu  Cu1       1.0  0.32652639201122463  0.6275054848972843  0.5811517067815262  1.0000
  Cu  Cu2       1.0  0.4183305528914758  0.6702707301379076  0.6222325491836572  1.0000
  Cu  Cu3       1.0  0.37263478668462824  0.5848550726707556  0.6653617191105358  1.0000
  Cu  Cu4       1.0  0.8426383589711931  0.3794256146593753  0.9204736782277794  1.0000
  Cu  Cu5       1.0  0.9255272034985538  0.3320105983772521  0.8718963808211913  1.0000
  Cu  Cu6       1.0  0.8785822284168886  0.4192143313044241  0.8317868089530696  1.0000
  Cu  Cu7       1.0  0.16768057831041014  0.11896413534520178  0.4138237631094342  1.0000
  Cu  Cu8       1.0  0.074095042081197  0.15835928245851252  0.3751939032892012  1.0000
  Cu  Cu9       1.0  0.12856474152273734  0.08123581983411302  0.32336638279632984  1.0000
  Cu  Cu10      1.0  0.6631254224992986  0.8806622948685644  0.08357329382036482  1.0000
  Cu  Cu11      1.0  0.5903074794033005  0.8223133720269331  0.13492980643132316  1.0000
  Cu  Cu12      1.0  0.6293474925520856  0.9152238920206133  0.17526054577577815  1.0000
  H   H1        1.0  0.30906330665018095  0.6925378490477315  0.5020907057649995  1.0000
  H   H2        1.0  0.436280190503453  0.7493971413864456  0.5565733310024401  1.0000
  H   H3        1.0  0.30302475260230477  0.5043367876910806  0.6813687346009945  1.0000
  H   H4        1.0  0.24072807445151773  0.5615340007824798  0.5659992410802774  1.0000
  H   H5        1.0  0.5039725612113131  0.6874863612413479  0.6863200618483704  1.0000
  H   H6        1.0  0.4430651160895708  0.5695895765748277  0.7437629675190041  1.0000
  H   H7        1.0  0.8352565028867575  0.31764561817954723  0.0032279336640356976  1.0000
  H   H8        1.0  0.9449993189138726  0.2493077110025581  0.9338278828859006  1.0000
  H   H9        1.0  0.8055330997442668  0.49746443171582655  0.8171302706402701  1.0000
  H   H10       1.0  0.7582045411647585  0.4449131551049135  0.9387913464620684  1.0000
  H   H11       1.0  0.005162451392493499  0.3139773945810802  0.8044241065970399  1.0000
  H   H12       1.0  0.9427593026139789  0.4339620405518829  0.7506631165646598  1.0000
  H   H13       1.0  0.183178639823538  0.18424674512464634  0.4961360794364681  1.0000
  H   H14       1.0  0.05268797248451311  0.23496929469057193  0.446156387850934  1.0000
  H   H15       1.0  0.19896682089269999  0.0009262955467975001  0.304806304107224  1.0000
  H   H16       1.0  0.2516779617986132  0.05201546502053132  0.42943070249570087  1.0000
  H   H17       1.0  0.9865315123061722  0.16965307998223267  0.312620063737775  1.0000
  H   H18       1.0  0.0669991718368195  0.0737481488684324  0.23695123357925507  1.0000
  H   H19       1.0  0.6741480110747063  0.8193528275495158  0.9988095989073432  1.0000
  H   H20       1.0  0.5825666698680508  0.7352373562567606  0.07212088346356893  1.0000
  H   H21       1.0  0.6966138445392075  0.9994098205621995  0.19231497120569685  1.0000
  H   H22       1.0  0.7361790171966334  0.9573898286056134  0.06231339841904323  1.0000
  H   H23       1.0  0.5139788324051793  0.7994110818293905  0.20384433502718485  1.0000
  H   H24       1.0  0.5647154953918445  0.9278096041357033  0.256607584212837  1.0000
  H   H25       1.0  0.8698482541107924  0.2762529239228257  0.06846915635570383  1.0000
  H   H26       1.0  0.8835870161904751  0.22181928532889125  0.12609163374427376  1.0000
  H   H27       1.0  0.9122861888709936  0.20372537500928442  0.0081011657970649  1.0000
  H   H28       1.0  0.8663797602837987  0.1499298831395706  0.05312867628938283  1.0000
  H   H29       1.0  0.3048453547026356  0.7618744912377693  0.4585178921448617  1.0000
  H   H30       1.0  0.30378050724891636  0.8238407455796588  0.40842478703833524  1.0000
  H   H31       1.0  0.40474283535674266  0.7908829622598856  0.4812912172459038  1.0000
  H   H32       1.0  0.41019033592341003  0.8146520224170929  0.4072861812046897  1.0000
  H   H33       1.0  0.6173266685148846  0.6702562719493911  0.022879155508782407  1.0000
  H   H34       1.0  0.6387408745632187  0.6152538943910741  0.964526641340129  1.0000
  H   H35       1.0  0.6457645629471785  0.7392978375763806  0.9552524058460394  1.0000
  H   H36       1.0  0.5978766912587191  0.6884651451315025  0.9053944736430142  1.0000
  H   H37       1.0  0.046838250841325604  0.27520646174187385  0.518703201206755  1.0000
  H   H38       1.0  0.04671230490948371  0.32477878025488854  0.5835297834910522  1.0000
  H   H39       1.0  0.14918487774990302  0.2590347190664489  0.5422846618557248  1.0000
  H   H40       1.0  0.15093219051124146  0.33563589383810216  0.5662141112850707  1.0000
  H   H41       1.0  0.7615703883045485  0.04261876255869621  0.058841455496306615  1.0000
  H   H42       1.0  0.8020333081098842  0.1167549503867207  0.06540383610867201  1.0000
  H   H43       1.0  0.773020713599621  0.0469767458956767  0.15831900327084725  1.0000
  H   H44       1.0  0.8538936555946536  0.0708477494768758  0.14134125321364627  1.0000
  H   H45       1.0  0.22703976058564024  0.4629210903467538  0.6877441633387634  1.0000
  H   H46       1.0  0.15679966406704443  0.41653334537501513  0.6875386994838737  1.0000
  H   H47       1.0  0.1969123807262179  0.4837153659141365  0.5939724559274497  1.0000
  H   H48       1.0  0.1738167607893573  0.40543721368644725  0.5891946852769367  1.0000
  H   H49       1.0  0.2700386157269464  0.9537591420998907  0.3026516433821343  1.0000
  H   H50       1.0  0.33480682252285726  0.901672320715882  0.3028807349089747  1.0000
  H   H51       1.0  0.29799413913151085  0.9765361507052078  0.39768503949874673  1.0000
  H   H52       1.0  0.32398916615689904  0.9003828899356991  0.4026430866672542  1.0000
  H   H53       1.0  0.7283444135615939  0.5347116017866399  0.8130594880790698  1.0000
  H   H54       1.0  0.6569964498897108  0.5770398452467732  0.8117522503266135  1.0000
  H   H55       1.0  0.7079115925595332  0.5191512801984571  0.9092547674611213  1.0000
  H   H56       1.0  0.677587849745571  0.5962206303824971  0.9090405034397481  1.0000
  H   H57       1.0  0.9179942464328191  0.1346056159040216  0.26360065217324563  1.0000
  H   H58       1.0  0.8613341361661925  0.11725232599420822  0.20344232179295577  1.0000
  H   H59       1.0  0.9879473139005056  0.10887703153334632  0.19326779178188505  1.0000
  H   H60       1.0  0.9374339523659645  0.15808039554958953  0.14701562111770985  1.0000
  H   H61       1.0  0.5185071501396692  0.5617694528257076  0.7814390785765044  1.0000
  H   H62       1.0  0.5861515923817535  0.5590414865482459  0.8288728253154293  1.0000
  H   H63       1.0  0.5483855311313519  0.6593685034798399  0.7637508007540961  1.0000
  H   H64       1.0  0.5708234377795235  0.6614504693021033  0.8427642896262599  1.0000
  H   H65       1.0  0.0137118418504016  0.43870946583331255  0.7065557035586354  1.0000
  H   H66       1.0  0.07928102338870252  0.4403109888559912  0.6587755918100272  1.0000
  H   H67       1.0  0.04587635695126829  0.3426660416429002  0.7284229896825496  1.0000
  H   H68       1.0  0.07045763405531602  0.33624369735465365  0.6533824038410078  1.0000
  H   H69       1.0  0.47023963883740555  0.794147263115491  0.2724237965139552  1.0000
  H   H70       1.0  0.4181314730121457  0.7926932032979793  0.33352895095144675  1.0000
  H   H71       1.0  0.4900594626414758  0.8929772221979778  0.30060084472570753  1.0000
  H   H72       1.0  0.412342098398554  0.8963828025132372  0.32400266311294973  1.0000
  C   C1        1.0  0.33999836006084655  0.7014312898288895  0.5209184302620644  1.0000
  C   C2        1.0  0.37253431019460953  0.7361324654005797  0.5147534790068351  1.0000
  C   C3        1.0  0.4051214893066728  0.7301451398412411  0.5486491773954685  1.0000
  C   C4        1.0  0.2932340320407434  0.5239713200639358  0.6533302250513205  1.0000
  C   C5        1.0  0.2556739316692997  0.5181384874321466  0.6238800029751916  1.0000
  C   C6        1.0  0.26178211758963954  0.5530163916654658  0.5942001619679262  1.0000
  C   C7        1.0  0.48326255489980957  0.6585761402762885  0.6951076824394422  1.0000
  C   C8        1.0  0.48990987922086765  0.62847473788203  0.7293414759322376  1.0000
  C   C9        1.0  0.4524987251340704  0.5980939012449227  0.7241944842667681  1.0000
  C   C10       1.0  0.8621777126229021  0.30668612137235124  0.9812528718757821  1.0000
  C   C11       1.0  0.8918614108872874  0.26905115011853553  0.9835970669178524  1.0000
  C   C12       1.0  0.917655651625637  0.27138193948544403  0.9453885672302179  1.0000
  C   C13       1.0  0.7995866937918594  0.4791646827840594  0.8466586300192989  1.0000
  C   C14       1.0  0.765174932862486  0.48543623530650853  0.8780701384036435  1.0000
  C   C15       1.0  0.7758003581853928  0.4525466067070171  0.9089742813739935  1.0000
  C   C16       1.0  0.9844517423865327  0.34339881671100153  0.7967105534631715  1.0000
  C   C17       1.0  0.9891832259526865  0.37383163116457757  0.7626139431193198  1.0000
  C   C18       1.0  0.9529198907576131  0.4048767103168417  0.7693953857410636  1.0000
  C   C19       1.0  0.1513831908622052  0.1912904213172197  0.4782748389070834  1.0000
  C   C20       1.0  0.1172326172699343  0.2238969092388174  0.4871566010935668  1.0000
  C   C21       1.0  0.0845540429578264  0.2169979386625229  0.45307067263780015  1.0000
  C   C22       1.0  0.20655482245064857  0.019106920066782603  0.3352002749700065  1.0000
  C   C23       1.0  0.24139326564243654  0.011521015230457001  0.36683259604441804  1.0000
  C   C24       1.0  0.2331695669768905  0.0451357791730871  0.3989485952688484  1.0000
  C   C25       1.0  0.011434348144995003  0.14554313382431164  0.29990814864699905  1.0000
  C   C26       1.0  0.0111853623372156  0.12147702814301911  0.2598148874088723  1.0000
  C   C27       1.0  0.0529902729237222  0.0972122254295371  0.2609916223301881  1.0000
  C   C28       1.0  0.6513922593993017  0.804427256227477  0.022201365204551803  1.0000
  C   C29       1.0  0.6294594436856967  0.7618993523871113  0.02058748641318431  1.0000
  C   C30       1.0  0.6052624599947976  0.761071119165777  0.05987111303053182  1.0000
  C   C31       1.0  0.7010889546311957  0.9830776905696016  0.1606784044602066  1.0000
  C   C32       1.0  0.7304058701403093  0.9950145925922201  0.12682368916435394  1.0000
  C   C33       1.0  0.7207080868927919  0.9621680558332814  0.09397363212563192  1.0000
  C   C34       1.0  0.5319697324876884  0.8309156409012032  0.21159441585348304  1.0000
  C   C35       1.0  0.5249812210153095  0.8626191697939803  0.24582903414079035  1.0000
  C   C36       1.0  0.5577775179619381  0.8966033732510682  0.23826241236517384  1.0000
  C   C37       1.0  0.8958331744065757  0.2358234435646835  0.0171977217931172  1.0000
  C   C38       1.0  0.8818662595435216  0.2424575944021683  0.05876568868819732  1.0000
  C   C39       1.0  0.8812763280610342  0.20929146066824703  0.09237158787379943  1.0000
  C   C40       1.0  0.8747378060065145  0.1642345442766882  0.08540767002791944  1.0000
  C   C41       1.0  0.3731102565203628  0.7706119107977258  0.4823593015763735  1.0000
  C   C42       1.0  0.3374380078416764  0.7800723064402745  0.45469306818742455  1.0000
  C   C43       1.0  0.33746223629238165  0.8124647422716792  0.4204794486341755  1.0000
  C   C44       1.0  0.3757814817849622  0.8283829789194713  0.4009365692863299  1.0000
  C   C45       1.0  0.6332184037185727  0.727678980517098  0.9864210722488667  1.0000
  C   C46       1.0  0.6250453267102998  0.6827798621395118  0.990605425357963  1.0000
  C   C47       1.0  0.6275125484111826  0.6491816019269905  0.9557985678871366  1.0000
  C   C48       1.0  0.6155370564510391  0.6571429100075858  0.9139257341607423  1.0000
  C   C49       1.0  0.1169214755818828  0.25605431647916543  0.5232552608240868  1.0000
  C   C50       1.0  0.08002209086887999  0.28146064473857996  0.5354772406715967  1.0000
  C   C51       1.0  0.07994503957360172  0.31614514486047096  0.5692583992055306  1.0000
  C   C52       1.0  0.1181828914679315  0.33968311500301235  0.5829030203850537  1.0000
  C   C53       1.0  0.7619547491783791  0.033035507653174506  0.12649353734254737  1.0000
  C   C54       1.0  0.7766382680933502  0.05357053865396472  0.09031102464000902  1.0000
  C   C55       1.0  0.808591076514091  0.0912924262902024  0.08986934918244323  1.0000
  C   C56       1.0  0.8452303834055925  0.09652680303620542  0.11773338873892673  1.0000
  C   C57       1.0  0.21866552376415166  0.485268575861582  0.6234629005062688  1.0000
  C   C58       1.0  0.2080504597049426  0.4580824998238456  0.656862725676284  1.0000
  C   C59       1.0  0.17217491052318223  0.4241958459650093  0.6564158435614689  1.0000
  C   C60       1.0  0.15660255215389898  0.40148531967725637  0.6201585447851914  1.0000
  C   C61       1.0  0.27760964894471135  0.9780298049365541  0.3674264554461218  1.0000
  C   C62       1.0  0.2884073850641472  0.94963486624129  0.33370181542591143  1.0000
  C   C63       1.0  0.32241226082162916  0.9141041545566111  0.334309288472845  1.0000
  C   C64       1.0  0.33870333403983477  0.8938389460983417  0.3706844488580289  1.0000
  C   C65       1.0  0.7268033794929709  0.516655524482033  0.8787987496739833  1.0000
  C   C66       1.0  0.7116709977994092  0.5407863721913628  0.8443097041915453  1.0000
  C   C67       1.0  0.6736836377802647  0.5722202830910843  0.8433846156622382  1.0000
  C   C68       1.0  0.6585475284230996  0.5968260739948761  0.8781882355318447  1.0000
  C   C69       1.0  0.9763065143301971  0.1199604026676866  0.22546286577355812  1.0000
  C   C70       1.0  0.9305685736029262  0.12859149676822307  0.23061192259682176  1.0000
  C   C71       1.0  0.8963495967461057  0.12814487385281845  0.19583858160738296  1.0000
  C   C72       1.0  0.9053385982545165  0.140691947370243  0.15464382220814343  1.0000
  C   C73       1.0  0.5270015561768204  0.6288015525826651  0.7614415560671974  1.0000
  C   C74       1.0  0.5374570681986057  0.5934959194638908  0.7872431487646525  1.0000
  C   C75       1.0  0.5723023086220563  0.5922969730632774  0.8212353996145227  1.0000
  C   C76       1.0  0.5874207664716026  0.6284194704417203  0.8455197244176209  1.0000
  C   C77       1.0  0.024208437234520402  0.3729546215155182  0.7297783212718942  1.0000
  C   C78       1.0  0.033036138847919005  0.4071554412966876  0.7023419447211271  1.0000
  C   C79       1.0  0.0669656934149643  0.40722544555269746  0.6686746822906289  1.0000
  C   C80       1.0  0.08446147192113782  0.3700091960105354  0.6482677734720071  1.0000
  C   C81       1.0  0.49227051166452906  0.8618844898810921  0.2806740372971533  1.0000
  C   C82       1.0  0.4651168099343934  0.8260956292512133  0.2903978427681153  1.0000
  C   C83       1.0  0.4293190780771922  0.8256738370401211  0.3223399854316541  1.0000
  C   C84       1.0  0.4069956904741261  0.8630732419512411  0.3376132366961216  1.0000
  N   N1        1.0  0.3927510979219023  0.6950559253824765  0.5730696329459237  1.0000
  N   N2        1.0  0.35231847054909343  0.6772104380278777  0.555774819140197  1.0000
  N   N3        1.0  0.2996318105188891  0.5776804620380532  0.6052882095490377  1.0000
  N   N4        1.0  0.3191648348690705  0.5595553678287074  0.6420103755039437  1.0000
  N   N5        1.0  0.4261434342418156  0.6092527915814118  0.689552938507717  1.0000
  N   N6        1.0  0.4452575342102703  0.6467804772243183  0.6714016984390272  1.0000
  N   N7        1.0  0.9046830800080629  0.30769501906699764  0.9225318568224028  1.0000
  N   N8        1.0  0.870089396525259  0.3295150091591665  0.9447638750919513  1.0000
  N   N9        1.0  0.8131734730057049  0.4285176126466438  0.8967399819188915  1.0000
  N   N10       1.0  0.8279410710136189  0.44513340690527775  0.8580201410795713  1.0000
  N   N11       1.0  0.9290192307840358  0.3937515015970519  0.8047542858328074  1.0000
  N   N12       1.0  0.9486014818613883  0.3555501921056745  0.821784775276001  1.0000
  N   N13       1.0  0.09823352635221032  0.18287376901303531  0.426474191006399  1.0000
  N   N14       1.0  0.1397380853723362  0.1668592628222143  0.4421237528920515  1.0000
  N   N15       1.0  0.19669846219697007  0.07068371129733463  0.3872257854219968  1.0000
  N   N16       1.0  0.18019645973224394  0.05449965814258921  0.3476139549135128  1.0000
  N   N17       1.0  0.0758513347819942  0.1057217987572443  0.2989111226826183  1.0000
  N   N18       1.0  0.05011765060618961  0.13597327307530796  0.3229857172720899  1.0000
  N   N19       1.0  0.6126500141263661  0.7999084399871422  0.08290867851691534  1.0000
  N   N20       1.0  0.6414562409982808  0.8267989681027716  0.05956188324135073  1.0000
  N   N21       1.0  0.6880413506109947  0.933328883233102  0.10732360521186733  1.0000
  N   N22       1.0  0.6756915745119799  0.9464280479022946  0.14868212236390124  1.0000
  N   N23       1.0  0.5823496694473532  0.8858396684000169  0.20268758182938035  1.0000
  N   N24       1.0  0.5662498316893761  0.8450248856545032  0.1861160812649772  1.0000
  N   N25       1.0  0.8761162619031353  0.1328979022704075  0.11863299218192944  1.0000
  N   N26       1.0  0.37495804238427155  0.862852165509665  0.37085720966666014  1.0000
  N   N27       1.0  0.6217340560955337  0.6272473309524641  0.8783109817810771  1.0000
  N   N28       1.0  0.11987525104475343  0.3705764250139226  0.6178217476371304  1.0000
