data_image0
_chemical_formula_structural       Na4B4H72C28N8O12
_chemical_formula_sum              "Na4 B4 H72 C28 N8 O12"
_cell_length_a       7.31852332
_cell_length_b       10.346387539759325
_cell_length_c       15.1232
_cell_angle_alpha    90.0
_cell_angle_beta     90.0
_cell_angle_gamma    105.38109077893355

_space_group_name_H-M_alt    "P 1"
_space_group_IT_number       1

loop_
  _space_group_symop_operation_xyz
  'x, y, z'

loop_
  _atom_site_type_symbol
  _atom_site_label
  _atom_site_symmetry_multiplicity
  _atom_site_fract_x
  _atom_site_fract_y
  _atom_site_fract_z
  _atom_site_occupancy
  Na  Na1       1.0  0.747300859819539  0.5301654223357062  0.5090503332627989  1.0000
  Na  Na2       1.0  0.747300835680427  0.0301679736070071  0.9909503279729179  1.0000
  Na  Na3       1.0  0.25269812018539983  0.46983147997124763  0.4909503279729179  1.0000
  Na  Na4       1.0  0.25270002373954975  0.9698339408238325  0.0090516557342326  1.0000
  B   B1        1.0  0.6090176692550527  0.387832130942293  0.8320963817181519  1.0000
  B   B2        1.0  0.6090213150880713  0.887835594219645  0.6679062632247152  1.0000
  B   B3        1.0  0.3909813107498934  0.6121647713646681  0.167902957046131  1.0000
  B   B4        1.0  0.3909826530066453  0.1121673226359619  0.3320977041895929  1.0000
  H   H1        1.0  0.5415115001542077  0.4526819969186278  0.8842103523063898  1.0000
  H   H2        1.0  0.5415120373124863  0.9526844577712125  0.6157916314007608  1.0000
  H   H3        1.0  0.45848922212960724  0.5473159078131076  0.1157889864578934  1.0000
  H   H4        1.0  0.4584884462244858  0.0473164542348528  0.3842116747778235  1.0000
  H   H5        1.0  0.5051815981941344  0.7288039109224087  0.3826478523063912  1.0000
  H   H6        1.0  0.5051864250086382  0.2288084670432511  0.117351486457892  1.0000
  H   H7        1.0  0.4948129067402006  0.271191988959778  0.6173528089293256  1.0000
  H   H8        1.0  0.49481504904119317  0.7711914425380328  0.882647852306391  1.0000
  H   H9        1.0  0.8242491929434266  0.8886555776856895  0.5011756771053726  1.0000
  H   H10       1.0  0.8242502964533427  0.3886611362313062  0.9988210167160361  1.0000
  H   H11       1.0  0.17574766889963905  0.11133931977172298  0.4988223391874768  1.0000
  H   H12       1.0  0.1757472155450586  0.611342783049075  0.0011776608125231  1.0000
  H   H13       1.0  0.4884328375038365  0.8535386329639535  0.4606895366060115  1.0000
  H   H14       1.0  0.48842970468999164  0.3535401818104731  0.03931046339398849  1.0000
  H   H15       1.0  0.5115665183841073  0.1464592717677817  0.5393111246297051  1.0000
  H   H16       1.0  0.5115655520103601  0.6464577229212622  0.9606895366060115  1.0000
  H   H17       1.0  0.1681036026842406  0.7490268283355235  0.3998532056707589  1.0000
  H   H18       1.0  0.1681043303111451  0.2490313844563659  0.1001467943292411  1.0000
  H   H19       1.0  0.8318926445289703  0.2509700739714376  0.6001494392721083  1.0000
  H   H20       1.0  0.8318929429404136  0.7509755420983453  0.8998505607278915  1.0000
  H   H21       1.0  0.0324407748198752  0.5793153114842369  0.30951518197206696  1.0000
  H   H22       1.0  0.032434157448285796  0.0793148554812078  0.190484818027933  1.0000
  H   H23       1.0  0.9675647984175483  0.4206845980970471  0.6904854792636499  1.0000
  H   H24       1.0  0.9675657114588387  0.9206880613743991  0.8095158432077838  1.0000
  H   H25       1.0  0.7299896304035227  0.7341287913278052  0.29122672450274917  1.0000
  H   H26       1.0  0.7299907339134322  0.234134349873429  0.2087706305543833  1.0000
  H   H27       1.0  0.2700064796735262  0.2658641012800516  0.7087732754972507  1.0000
  H   H28       1.0  0.27001299543444185  0.7658715742565079  0.7912287082098999  1.0000
  H   H29       1.0  0.01428783052215005  0.8190151237090858  0.576591594371564  1.0000
  H   H30       1.0  0.014289650272587582  0.3190116604317339  0.9234064219212852  1.0000
  H   H31       1.0  0.9857065728015186  0.1809877931465209  0.4234077443927191  1.0000
  H   H32       1.0  0.9857049917979167  0.68098824914955  0.0765909331358472  1.0000
  H   H33       1.0  0.25561024080095507  0.8258416364276044  0.5556410019043554  1.0000
  H   H34       1.0  0.2556128123174091  0.325840177999801  0.9443576756242038  1.0000
  H   H35       1.0  0.7443841625227066  0.1741612804280095  0.44436032056707825  1.0000
  H   H36       1.0  0.7443846996809853  0.6741637412805872  0.0556390181972048  1.0000
  H   H37       1.0  0.14166486318259786  0.9103520595182174  0.4232510315277196  1.0000
  H   H38       1.0  0.1416662054393498  0.41035461078951124  0.07674566229369617  1.0000
  H   H39       1.0  0.8583331263094889  0.0896458452135178  0.5767476460008467  1.0000
  H   H40       1.0  0.8583320583250611  0.5896513133404255  0.9232503702920027  1.0000
  H   H41       1.0  0.7651978839894438  0.3809845673034999  0.8566090509944999  1.0000
  H   H42       1.0  0.7651997875435939  0.8809870281560775  0.6433916102412169  1.0000
  H   H43       1.0  0.23480072013249037  0.6190113325786868  0.1433902877697832  1.0000
  H   H44       1.0  0.23479994422736888  0.11901187900043199  0.3566090509944999  1.0000
  H   H45       1.0  0.7917349960307121  0.9315102392465135  0.3899234289039342  1.0000
  H   H46       1.0  0.7917349718916001  0.4315127905178073  0.11007392615319837  1.0000
  H   H47       1.0  0.2082626175783702  0.0684866630604475  0.6100745873889151  1.0000
  H   H48       1.0  0.20825768915319284  0.5684891239130252  0.8899267350825255  1.0000
  H   H49       1.0  0.9757940530515371  0.8035266585088295  0.2762107225983925  1.0000
  H   H50       1.0  0.9757944047954367  0.3035302122048975  0.2237872936944569  1.0000
  H   H51       1.0  0.02420393644054999  0.1964712462229059  0.7237886161658906  1.0000
  H   H52       1.0  0.02420683050755196  0.6964727046507093  0.7762113838341094  1.0000
  H   H53       1.0  0.8799140507151079  0.5759311254434607  0.21814364684723125  1.0000
  H   H54       1.0  0.8799066815775018  0.075928664590883  0.2818523857384676  1.0000
  H   H55       1.0  0.12009326480118425  0.4240697865625974  0.781855030681335  1.0000
  H   H56       1.0  0.12009281144661084  0.9240732498399566  0.7181462917900986  1.0000
  H   H57       1.0  0.5430658258646018  0.7151268272907743  0.5692148487092652  1.0000
  H   H58       1.0  0.543065801725497  0.21512937856207512  0.9307864737621685  1.0000
  H   H59       1.0  0.4569317877444731  0.2848700750161868  0.4307864737621685  1.0000
  H   H60       1.0  0.4569325636495947  0.7848695285944416  0.0692141874735483  1.0000
  H   H61       1.0  0.503440259165636  0.2747556090353029  0.8224529200169286  1.0000
  H   H62       1.0  0.5034439049986545  0.774759072312655  0.6775510473973795  1.0000
  H   H63       1.0  0.49655834495629847  0.7252402908468837  0.1775503861616556  1.0000
  H   H64       1.0  0.4965583208171864  0.22524284211817758  0.3224522587812118  1.0000
  H   H65       1.0  0.13510633983370465  0.6152632663445416  0.6020604104951346  1.0000
  H   H66       1.0  0.1351085354671469  0.11526080549196388  0.8979415732120157  1.0000
  H   H67       1.0  0.864894895469284  0.3847396505110723  0.3979415732120159  1.0000
  H   H68       1.0  0.8648909575569659  0.8847411089388757  0.102058426787984  1.0000
  H   H69       1.0  0.6274010882009262  0.4826955971102649  0.3209538986457899  1.0000
  H   H70       1.0  0.6273941787500376  0.9827000628123982  0.1790454401184931  1.0000
  H   H71       1.0  0.37260434790032787  0.5173003027719147  0.679044778882776  1.0000
  H   H72       1.0  0.372607056552951  0.0173028540432156  0.82095389864579  1.0000
  C   C1        1.0  0.773535556886692  0.8459813525843812  0.4363911077020717  1.0000
  C   C2        1.0  0.7735352940007443  0.3459869111300051  0.063610214769362  1.0000
  C   C3        1.0  0.22646403774809432  0.154013544873024  0.563610214769362  1.0000
  C   C4        1.0  0.22646184211465223  0.6540160057256087  0.9363904464663548  1.0000
  C   C5        1.0  0.6321952625639111  0.4579006202978633  0.7402500793482858  1.0000
  C   C6        1.0  0.6321982937670823  0.9579060884247709  0.7597525655945816  1.0000
  C   C7        1.0  0.36781116405020237  0.5420942771595421  0.2597492594159974  1.0000
  C   C8        1.0  0.3678116174047758  0.04209081388219  0.2402527242911532  1.0000
  C   C9        1.0  0.0832178248099495  0.8024881464418101  0.438031633516715  1.0000
  C   C10       1.0  0.08321916706670855  0.3024906977131039  0.0619650603047006  1.0000
  C   C11       1.0  0.9167797887991256  0.1975087558651509  0.561967705247568  1.0000
  C   C12       1.0  0.9167797113275565  0.6975132215672772  0.938032294752432  1.0000
  C   C13       1.0  0.563476362527332  0.7774515852586106  0.4447107754972492  1.0000
  C   C14       1.0  0.563478080667096  0.2774551389546787  0.05528856326703389  1.0000
  C   C15       1.0  0.43652224159460207  0.2225443146235762  0.5552885632670339  1.0000
  C   C16       1.0  0.4365212752208548  0.7225427657770567  0.9447107754972492  1.0000
  C   C17       1.0  0.8695371857708665  0.7272752131403593  0.3142000370292024  1.0000
  C   C18       1.0  0.8695365470019067  0.2272797692612087  0.1857979792636471  1.0000
  C   C19       1.0  0.130464151142796  0.2727206867418204  0.6857986404993639  1.0000
  C   C20       1.0  0.13046581595010306  0.7727261548687281  0.8142026819720698  1.0000
  C   C21       1.0  0.8922503416208157  0.5896483060660955  0.29039687367752975  1.0000
  C   C22       1.0  0.892244476015243  0.089649854912615  0.2096031263224702  1.0000
  C   C23       1.0  0.10775584624645518  0.4103495986656398  0.7096031263224702  1.0000
  C   C24       1.0  0.10775812568360982  0.9103530619429918  0.7903942287346624  1.0000
  C   C25       1.0  0.10910415559716567  0.7767980043052347  0.5353847069403272  1.0000
  C   C26       1.0  0.10910710299662436  0.2767975483022056  0.9646146318239557  1.0000
  C   C27       1.0  0.8908891200774746  0.2232019052760492  0.4646172767668233  1.0000
  C   C28       1.0  0.8908886667229012  0.7232053685534083  0.035382723233176684  1.0000
  N   N1        1.0  0.8847036572017611  0.7539477315565506  0.4096242858654264  1.0000
  N   N2        1.0  0.8847053753415252  0.2539512852526187  0.0903724079559893  1.0000
  N   N3        1.0  0.1152925900114496  0.24604917075041044  0.5903750528988567  1.0000
  N   N4        1.0  0.11529350305274022  0.7460526340277625  0.9096269308082938  1.0000
  N   N5        1.0  0.6467405123635004  0.5075497169843999  0.669798719847648  1.0000
  N   N6        1.0  0.6467488237357414  0.0075562779547979995  0.8302039250952191  1.0000
  N   N7        1.0  0.3532589451351312  0.4924411707739083  0.3301986352094772  1.0000
  N   N8        1.0  0.3532625909681499  0.9924446340512674  0.16980136479052274  1.0000
  O   O1        1.0  0.7586678391979617  0.482451005465137  0.3351235188319919  1.0000
  O   O2        1.0  0.7586591874681969  0.9824544687424961  0.1648731749894168  1.0000
  O   O3        1.0  0.24133933918216846  0.5175458968418241  0.6648744974608574  1.0000
  O   O4        1.0  0.24134242371779635  0.0175494505378921  0.8351261637748593  1.0000
  O   O5        1.0  0.5245694217943536  0.672522771923731  0.5104402507405865  1.0000
  O   O6        1.0  0.5245680312593777  0.1725253231950248  0.9895597492594135  1.0000
  O   O7        1.0  0.4754295582105854  0.32747413038323  0.48955974925941337  1.0000
  O   O8        1.0  0.4754330669074419  0.8274735839614847  0.010440250740586498  1.0000
  O   O9        1.0  0.06686765245608942  0.6346541711943132  0.5492494974608562  1.0000
  O   O10       1.0  0.0668692334596912  0.1346537151912841  0.9507524862462942  1.0000
  O   O11       1.0  0.9331314646850186  0.365346740811745  0.4507531474820112  1.0000
  O   O12       1.0  0.9331306354474335  0.8653492016643298  0.04924817498942249  1.0000
