data_image0
_chemical_formula_structural       Zn2H40C68S4N20
_chemical_formula_sum              "Zn2 H40 C68 S4 N20"
_cell_length_a       8.37949592100412
_cell_length_b       13.383448677529746
_cell_length_c       13.383443669832065
_cell_angle_alpha    107.37449906864768
_cell_angle_beta     90.00005941672059
_cell_angle_gamma    90.00007487695459

_space_group_name_H-M_alt    "P 1"
_space_group_IT_number       1

loop_
  _space_group_symop_operation_xyz
  'x, y, z'

loop_
  _atom_site_type_symbol
  _atom_site_label
  _atom_site_symmetry_multiplicity
  _atom_site_fract_x
  _atom_site_fract_y
  _atom_site_fract_z
  _atom_site_occupancy
  Zn  Zn1       1.0  2.30384515e-07  0.5000008127263129  0.4999998484042153  1.0000
  Zn  Zn2       1.0  0.5000000976788003  0.9999997913782863  1.3372844879694633e-07  1.0000
  H   H1        1.0  0.3887293774325045  0.6665658401653187  0.0549952400377548  1.0000
  H   H2        1.0  0.11126994205931601  0.5549956884276241  0.16656683894429852  1.0000
  H   H3        1.0  0.8887289245243296  0.8334338577216586  0.4450044018768652  1.0000
  H   H4        1.0  0.6112707319364289  0.9450044878235391  0.3334335096528775  1.0000
  H   H5        1.0  0.6112705965506747  0.3334336683091195  0.9450042520293851  1.0000
  H   H6        1.0  0.8887276451470784  0.44500460588774626  0.8334336321728986  1.0000
  H   H7        1.0  0.1112710494604841  0.16656643659503353  0.5549960692415042  1.0000
  H   H8        1.0  0.3887280486573061  0.0549957976891093  0.6665647172762733  1.0000
  H   H9        1.0  0.20955944152268557  0.7004658771990863  0.9150861400141396  1.0000
  H   H10       1.0  0.29044050561037693  0.4150855529673621  0.20046494198097525  1.0000
  H   H11       1.0  0.7095583224954041  0.7995346338648945  0.5849143970447914  1.0000
  H   H12       1.0  0.7904404849496987  0.08491373582466372  0.29953373608213246  1.0000
  H   H13       1.0  0.7904393390735436  0.29953442005140823  0.0849150791665139  1.0000
  H   H14       1.0  0.7095594683731932  0.5849147354804103  0.7995340330116392  1.0000
  H   H15       1.0  0.29044045809919083  0.20046487754333947  0.4150858430846399  1.0000
  H   H16       1.0  0.20956068242206527  0.9150857697159724  0.7004650079227164  1.0000
  H   H17       1.0  0.09214404119875041  0.630390883078363  0.7341374666315233  1.0000
  H   H18       1.0  0.4078566289130877  0.23413785155043604  0.1303919416344641  1.0000
  H   H19       1.0  0.592142174647968  0.869607929116164  0.7658617451261095  1.0000
  H   H20       1.0  0.9078559098179682  0.2658623561377098  0.3696085788044671  1.0000
  H   H21       1.0  0.9078559327850542  0.36960862833053904  0.2658627734984904  1.0000
  H   H22       1.0  0.5921445384615609  0.7658624457013803  0.8696092775473618  1.0000
  H   H23       1.0  0.40785660594600165  0.1303915793576138  0.23413774694044062  1.0000
  H   H24       1.0  0.0921464509448668  0.7341371582069699  0.6303924093896002  1.0000
  H   H25       1.0  0.1957512378651387  0.3300993986452809  0.5490004348548113  1.0000
  H   H26       1.0  0.3042445753082461  0.0489996290436707  0.8301002409908165  1.0000
  H   H27       1.0  0.6957540323702672  0.16989923406548257  0.9509995073713142  1.0000
  H   H28       1.0  0.8042451074916954  0.4509999038707945  0.6698992906626418  1.0000
  H   H29       1.0  0.804245155950646  0.6698993327882976  0.45100032234797294  1.0000
  H   H30       1.0  0.6957542052863487  0.9509998823645703  0.16989999913861453  1.0000
  H   H31       1.0  0.304245941612912  0.8301002744089558  0.04899998469582559  1.0000
  H   H32       1.0  0.1957536731042993  0.5490011704185775  0.33010066338061256  1.0000
  H   H33       1.0  0.3650753407258875  0.29238258375364984  0.687701266890514  1.0000
  H   H34       1.0  0.1349218550771809  0.18770066559770984  0.7923814040799259  1.0000
  H   H35       1.0  0.865076791656847  0.20761858238917344  0.8122987864548892  1.0000
  H   H36       1.0  0.634923352355635  0.3122986767404754  0.707617213294725  1.0000
  H   H37       1.0  0.6349222464815156  0.7076184934695177  0.31229943521503856  1.0000
  H   H38       1.0  0.8650769255178048  0.8122996257838581  0.20761831897497982  1.0000
  H   H39       1.0  0.1349219889365045  0.792380923150141  0.18769995754878727  1.0000
  H   H40       1.0  0.36507781501512687  0.6877000458923702  0.292381299721768  1.0000
  C   C1        1.0  0.28891426398396197  0.37550614507777885  0.37550604829019824  1.0000
  C   C2        1.0  0.21108951717222627  0.8755087181115044  0.8755083048222545  1.0000
  C   C3        1.0  0.7889092634270298  0.12449392786237469  0.12449360732345842  1.0000
  C   C4        1.0  0.7110976438890475  0.6244925746265579  0.6244917166686933  1.0000
  C   C5        1.0  0.44729076249223715  0.510041371481364  0.9592939705211309  1.0000
  C   C6        1.0  0.05270652385438271  0.4592918046072612  0.01004118110801501  1.0000
  C   C7        1.0  0.9472911628004043  0.9899578342857327  0.5407055898689708  1.0000
  C   C8        1.0  0.5527103054281072  0.040706440758270894  0.4899577806588695  1.0000
  C   C9        1.0  0.5527080181036013  0.48995814579579633  0.040707765734047996  1.0000
  C   C10       1.0  0.9472898699601658  0.5407069209573976  0.9899580799690142  1.0000
  C   C11       1.0  0.05270881118091351  0.010041665385322997  0.4592916580095405  1.0000
  C   C12       1.0  0.44729205533286626  0.959293064783033  0.510040963346569  1.0000
  C   C13       1.0  0.36910718172863  0.6084650860806349  0.9794904511975988  1.0000
  C   C14       1.0  0.13089629385930832  0.4794915163758803  0.10846505617264773  1.0000
  C   C15       1.0  0.8691037622581774  0.8915332471995469  0.5205080533901452  1.0000
  C   C16       1.0  0.6308939035078253  0.020508381451222107  0.39153444432324863  1.0000
  C   C17       1.0  0.630897565810763  0.3915344194619835  0.020508292809005  1.0000
  C   C18       1.0  0.8691024867340432  0.5205079891634342  0.8915336878310286  1.0000
  C   C19       1.0  0.13089740511444603  0.10846548423668169  0.4794927038149838  1.0000
  C   C20       1.0  0.3691048770877785  0.9794919128648162  0.6084660267945382  1.0000
  C   C21       1.0  0.273021406100071  0.6267010157312214  0.903661614264671  1.0000
  C   C22       1.0  0.22697480122333502  0.40366046112847453  0.12670212924966512  1.0000
  C   C23       1.0  0.7730216539053743  0.8732987856883271  0.5963395021671829  1.0000
  C   C24       1.0  0.7269796999632804  0.09633955197963219  0.37329970975432764  1.0000
  C   C25       1.0  0.7269749877157139  0.373297715702364  0.09633914293811333  1.0000
  C   C26       1.0  0.7730215925938495  0.5963398331862352  0.8732983418669422  1.0000
  C   C27       1.0  0.2269771266902296  0.12670150862770413  0.4036609689506038  1.0000
  C   C28       1.0  0.27302385418977343  0.9036607452735127  0.6267015094286706  1.0000
  C   C29       1.0  0.15796295239532301  0.5576568983302155  0.72495606697877  1.0000
  C   C30       1.0  0.34203637081734684  0.22495565837589737  0.05765625014534239  1.0000
  C   C31       1.0  0.6579624468114745  0.9423427697129582  0.7750434403793137  1.0000
  C   C32       1.0  0.8420381779426053  0.27504447050314695  0.4423427095563285  1.0000
  C   C33       1.0  0.8420358281992719  0.4423426130780257  0.2750441731506612  1.0000
  C   C34       1.0  0.6579636031658326  0.7750438500985413  0.9423432419217976  1.0000
  C   C35       1.0  0.3420375271717049  0.057656738761480114  0.2249560516878262  1.0000
  C   C36       1.0  0.15796656960004904  0.7249566067239928  0.5576579925527343  1.0000
  C   C37       1.0  0.2158886107958935  0.38879025236888515  0.6239695143740749  1.0000
  C   C38       1.0  0.2841110330209986  0.12397043169745102  0.8887888671172918  1.0000
  C   C39       1.0  0.715887578262496  0.1112099655369931  0.8760301615319437  1.0000
  C   C40       1.0  0.7841089243463416  0.37602985594256216  0.6112093796332873  1.0000
  C   C41       1.0  0.7841101698003358  0.6112100448816095  0.3760317048065859  1.0000
  C   C42       1.0  0.7158901343527903  0.8760306396587793  0.11121033886426088  1.0000
  C   C43       1.0  0.28411120233047166  0.8887887600289873  0.12396909954625815  1.0000
  C   C44       1.0  0.21589104963582886  0.6239688696240862  0.3887898814454972  1.0000
  C   C45       1.0  0.3097833221235505  0.36878452969747855  0.6999666027006698  1.0000
  C   C46       1.0  0.19021642661854093  0.19996658832714334  0.8687825755715722  1.0000
  C   C47       1.0  0.8097822059161859  0.13121579226186947  0.8000331653774638  1.0000
  C   C48       1.0  0.6902165785448489  0.3000328123529243  0.6312153480197085  1.0000
  C   C49       1.0  0.6902178452514819  0.6312165475276713  0.3000340994066306  1.0000
  C   C50       1.0  0.8097823539764448  0.8000337030544318  0.13121714748333355  1.0000
  C   C51       1.0  0.19021776806598467  0.8687829333047786  0.19996609570132048  1.0000
  C   C52       1.0  0.30978578221574093  0.6999659132150384  0.36878391306024844  1.0000
  C   C53       1.0  0.334788569163635  0.44938755253475915  0.7949928911757169  1.0000
  C   C54       1.0  0.16520912192772394  0.2949933373185091  0.9493874711544521  1.0000
  C   C55       1.0  0.8347895138009989  0.05061201422859089  0.7050066704615929  1.0000
  C   C56       1.0  0.6652125217008307  0.20500604445381046  0.5506126720785219  1.0000
  C   C57       1.0  0.6652137915999816  0.5506135217565954  0.20500706286929934  1.0000
  C   C58       1.0  0.8347884652786702  0.7050069569968617  0.050612999962744765  1.0000
  C   C59       1.0  0.16521165357099935  0.9493867142731747  0.29499333868065497  1.0000
  C   C60       1.0  0.3347910324495871  0.7949926840492765  0.44938733706489853  1.0000
  C   C61       1.0  0.2541298916870147  0.5464312455936026  0.8078676489080793  1.0000
  C   C62       1.0  0.24586717908346864  0.30786630536270826  0.04642972014701033  1.0000
  C   C63       1.0  0.7541304659941446  0.9535685290217518  0.6921319528532381  1.0000
  C   C64       1.0  0.7458700244237095  0.19213371694283407  0.4535691451502615  1.0000
  C   C65       1.0  0.7458688889085892  0.4535690487224358  0.1921328222097003  1.0000
  C   C66       1.0  0.754131601509883  0.6921332001766134  0.9535690238566732  1.0000
  C   C67       1.0  0.2458695079880258  0.0464301965448897  0.30786730822555347  1.0000
  C   C68       1.0  0.2541335297295078  0.8078681373225153  0.5464302918208191  1.0000
  S   S1        1.0  0.4740279724766694  0.3478195673611496  0.34781920547791156  1.0000
  S   S2        1.0  0.0259661577936541  0.8478203635631942  0.8478193221850888  1.0000
  S   S3        1.0  0.9740338161931849  0.15218149656909222  0.15218161090998453  1.0000
  S   S4        1.0  0.5259696147311245  0.652182289835352  0.6521809795531085  1.0000
  N   N1        1.0  0.15122463344465595  0.3947719657704809  0.3947719737653372  1.0000
  N   N2        1.0  0.34876251246689804  0.8947723397239074  0.8947729244249417  1.0000
  N   N3        1.0  0.651239848295319  0.10522717168631601  0.10522731570625153  1.0000
  N   N4        1.0  0.8487622132625251  0.6052306801967832  0.6052299383745207  1.0000
  N   N5        1.0  0.431471040553248  0.43277949330860105  0.8701580548515295  1.0000
  N   N6        1.0  0.06852437349147071  0.37015669166341075  0.9327780553644943  1.0000
  N   N7        1.0  0.9314730891614005  0.0672201805982553  0.6298416016950981  1.0000
  N   N8        1.0  0.5685288366064043  0.1298417941873566  0.5672202658438863  1.0000
  N   N9        1.0  0.5685265466531532  0.5672208010067692  0.12984241626566728  1.0000
  N   N10       1.0  0.9314732137126711  0.6298428138752425  0.06722068863859929  1.0000
  N   N11       1.0  0.0685244980421231  0.9327793220059419  0.37015639424511454  1.0000
  N   N12       1.0  0.4314759109325976  0.8701569313819276  0.43277899523724983  1.0000
  N   N13       1.0  0.1416109803646179  0.4822439193837413  0.6352852015576361  1.0000
  N   N14       1.0  0.3583888597864302  0.135285089679698  0.9822421156337884  1.0000
  N   N15       1.0  0.6416109267031446  0.017757002050942102  0.8647153804851232  1.0000
  N   N16       1.0  0.8583877663509655  0.3647152773406219  0.5177554559695778  1.0000
  N   N17       1.0  0.8583866068424015  0.5177563778660925  0.3647160176224348  1.0000
  N   N18       1.0  0.6416123075857314  0.8647151958342718  0.01775611129654208  1.0000
  N   N19       1.0  0.3583878538918412  0.9822432893306257  0.1352843425697827  1.0000
  N   N20       1.0  0.1416145944106333  0.635284231135138  0.4822440360987343  1.0000
