data_image0
_chemical_formula_structural       Al4H68C120O20
_chemical_formula_sum              "Al4 H68 C120 O20"
_cell_length_a       6.943067971566958
_cell_length_b       18.765359328555
_cell_length_c       22.6382100590127
_cell_angle_alpha    89.99938516496815
_cell_angle_beta     89.99972421229006
_cell_angle_gamma    90.00226975541807

_space_group_name_H-M_alt    "P 1"
_space_group_IT_number       1

loop_
  _space_group_symop_operation_xyz
  'x, y, z'

loop_
  _atom_site_type_symbol
  _atom_site_label
  _atom_site_symmetry_multiplicity
  _atom_site_fract_x
  _atom_site_fract_y
  _atom_site_fract_z
  _atom_site_occupancy
  Al  Al1       1.0  0.21598243748164953  0.7510986332593533  0.24672229965118225  1.0000
  Al  Al2       1.0  0.7840677980781123  0.2489084785744353  0.7467261606029256  1.0000
  Al  Al3       1.0  0.7159730957167769  0.7489037629605519  0.25326681717045574  1.0000
  Al  Al4       1.0  0.2840526254188945  0.2511012297816535  0.7532696920233949  1.0000
  H   H1        1.0  0.23811434672056467  0.579045984794746  0.6330596727735982  1.0000
  H   H2        1.0  0.015696361761868602  0.41583316551704286  0.3573113565332734  1.0000
  H   H3        1.0  0.7620559441844466  0.420959841865823  0.13307752966696282  1.0000
  H   H4        1.0  0.9843951435598373  0.5841619043686422  0.8573140425501722  1.0000
  H   H5        1.0  0.7380052902624072  0.9209683790905103  0.8669170170129025  1.0000
  H   H6        1.0  0.515670800772881  0.08416503983711011  0.14267987676090851  1.0000
  H   H7        1.0  0.26212794069714823  0.07903843346112178  0.3669148473843082  1.0000
  H   H8        1.0  0.48446776009798503  0.9158312130641021  0.642677484952259  1.0000
  H   H9        1.0  0.13937514737980192  0.45872302326856124  0.6704539220364796  1.0000
  H   H10       1.0  0.9626055718991753  0.5423576021395038  0.3294887287652984  1.0000
  H   H11       1.0  0.8606941552783669  0.54128394087288  0.17045376792201244  1.0000
  H   H12       1.0  0.03742412656711741  0.4576406107226845  0.8294940203194019  1.0000
  H   H13       1.0  0.6393559159903006  0.04129457855955819  0.8295378791366378  1.0000
  H   H14       1.0  0.4626506192389144  0.9576384730254546  0.17050373991779116  1.0000
  H   H15       1.0  0.3607069097706771  0.9587222860399651  0.32954160882489714  1.0000
  H   H16       1.0  0.5374129215008808  0.04235783323694871  0.6705086404056007  1.0000
  H   H17       1.0  0.22901065334517778  0.6676287409572197  0.5542478361468356  1.0000
  H   H18       1.0  0.061772111367929504  0.3257202124518841  0.43366227743333513  1.0000
  H   H19       1.0  0.7710735750411147  0.33237266910084173  0.05426692232485662  1.0000
  H   H20       1.0  0.9383075281790952  0.6742798014023208  0.9336580560225943  1.0000
  H   H21       1.0  0.7289340207034912  0.8323769564239216  0.9457257845875023  1.0000
  H   H22       1.0  0.5617401956342009  0.1742813679464774  0.06633193142836553  1.0000
  H   H23       1.0  0.27114412422666595  0.16762308081020197  0.44572984925718384  1.0000
  H   H24       1.0  0.43839006738915043  0.8257174013876922  0.5663322627906242  1.0000
  H   H25       1.0  0.13690812610728642  0.23329002612696573  0.6243848585895082  1.0000
  H   H26       1.0  0.070890671429126  0.10874672562690078  0.6116161302909193  1.0000
  H   H27       1.0  0.9114363338895617  0.06396420732624361  0.5193246300767812  1.0000
  H   H28       1.0  0.8073918803435448  0.15224887780823337  0.44345440332640623  1.0000
  H   H29       1.0  0.843748214634502  0.2793535893079877  0.46116611494314713  1.0000
  H   H30       1.0  0.014938226367846101  0.7748148436082403  0.37324690625089135  1.0000
  H   H31       1.0  0.9722718648169961  0.8966472558990547  0.39870369916202736  1.0000
  H   H32       1.0  0.9700167159534631  0.9363939820529197  0.5045244091621728  1.0000
  H   H33       1.0  0.9917471746272428  0.8435316291950699  0.5835063371889861  1.0000
  H   H34       1.0  0.0016324770570861004  0.7185223664267042  0.5582064306215457  1.0000
  H   H35       1.0  0.8631253769903254  0.7667195129121752  0.12437243634678202  1.0000
  H   H36       1.0  0.9291500906814963  0.8912643874010656  0.11159630049571233  1.0000
  H   H37       1.0  0.08862644749768833  0.9360366019424402  0.019309161872683906  1.0000
  H   H38       1.0  0.1926776332709892  0.8477538194251794  0.9434425662042829  1.0000
  H   H39       1.0  0.15633274140182615  0.720647010763109  0.9611594506663013  1.0000
  H   H40       1.0  0.9850235808726993  0.22516853245679155  0.8732705905011502  1.0000
  H   H41       1.0  0.0277215143176193  0.10334149874103102  0.8987471529625001  1.0000
  H   H42       1.0  0.030041811633928706  0.06361798939023798  0.004573478643301602  1.0000
  H   H43       1.0  0.0083743708522448  0.15649808140936022  0.08354043372330013  1.0000
  H   H44       1.0  0.9985237489555276  0.28150196641709613  0.058220172139542115  1.0000
  H   H45       1.0  0.6369173245798265  0.26672167602102803  0.8756206425052968  1.0000
  H   H46       1.0  0.5708966077108429  0.3912660899294451  0.8883943967968125  1.0000
  H   H47       1.0  0.41139425564997373  0.4360330769670568  0.980680176939281  1.0000
  H   H48       1.0  0.3073254690524366  0.3477431679970451  0.056545810463589426  1.0000
  H   H49       1.0  0.34368482787117227  0.22063741853124694  0.03882693921124061  1.0000
  H   H50       1.0  0.5150019417691071  0.7251737946063416  0.12672681673310396  1.0000
  H   H51       1.0  0.4723129574629895  0.6033468366972414  0.10125782392640303  1.0000
  H   H52       1.0  0.4699713451749474  0.563613833796161  0.9954340248841834  1.0000
  H   H53       1.0  0.49162084583285554  0.6564941067721861  0.9164608764528455  1.0000
  H   H54       1.0  0.5014916466741612  0.7814979422052346  0.9417770414451144  1.0000
  H   H55       1.0  0.3631251289181776  0.733279823741917  0.37562735164426203  1.0000
  H   H56       1.0  0.4291227436169365  0.6087338357297724  0.38840597095006063  1.0000
  H   H57       1.0  0.5886592470511048  0.5639670278324903  0.4806855777394362  1.0000
  H   H58       1.0  0.692770271241706  0.6522566478916687  0.5565421894324702  1.0000
  H   H59       1.0  0.6564239547440567  0.7793618302138726  0.5388214213246556  1.0000
  H   H60       1.0  0.48499842426421225  0.27483734742240534  0.6267300547299615  1.0000
  H   H61       1.0  0.5276832024517618  0.39666532171755625  0.6012537653304337  1.0000
  H   H62       1.0  0.5300676882799708  0.43638629947544416  0.4954243442135963  1.0000
  H   H63       1.0  0.5084689526387862  0.3434957487806543  0.416458769136753  1.0000
  H   H64       1.0  0.4986196422073094  0.2184946270813413  0.4417875091881884  1.0000
  H   H65       1.0  0.4611948130314759  0.6556048945319474  0.25750644067013445  1.0000
  H   H66       1.0  0.5388280088191308  0.3444065011462669  0.7574874508961857  1.0000
  H   H67       1.0  0.9612254566532175  0.8444055470072271  0.242516069172119  1.0000
  H   H68       1.0  0.03880751437773001  0.155600490740774  0.7425138810153061  1.0000
  C   C1        1.0  0.46277194174447095  0.8295121197206541  0.331267233115817  1.0000
  C   C2        1.0  0.528203255751798  0.17460036235380022  0.6655312875449015  1.0000
  C   C3        1.0  0.5372534281048901  0.17049089262529551  0.831271009043434  1.0000
  C   C4        1.0  0.471831501868195  0.825399664320095  0.16553021771397886  1.0000
  C   C5        1.0  0.9627766278152523  0.6704930169407249  0.16872125953158706  1.0000
  C   C6        1.0  0.028205339576480505  0.32539793949284507  0.8344652122497113  1.0000
  C   C7        1.0  0.0372624366938794  0.3295150094064354  0.6687250260508436  1.0000
  C   C8        1.0  0.9718344182450597  0.674594954111072  0.3344560434694373  1.0000
  C   C9        1.0  0.028885443642686  0.347082843418292  0.5549057993560356  1.0000
  C   C10       1.0  0.03285202041444531  0.6551679976046644  0.4475056652154948  1.0000
  C   C11       1.0  0.9711872596302911  0.6529201664944041  0.05490190585955902  1.0000
  C   C12       1.0  0.9672045121546733  0.3448309771240829  0.9475147381334212  1.0000
  C   C13       1.0  0.5288554160507176  0.15292133056836835  0.945092465621926  1.0000
  C   C14       1.0  0.5328403547763401  0.8448315742537533  0.05248082265539012  1.0000
  C   C15       1.0  0.47120688863198285  0.8470792382065683  0.4450900993897309  1.0000
  C   C16       1.0  0.46723524002017314  0.15517249678269004  0.5524855103833846  1.0000
  C   C17       1.0  0.05511997856479672  0.37283640618263564  0.6133474195783181  1.0000
  C   C18       1.0  0.9931079452392098  0.630319973385646  0.38939850450679375  1.0000
  C   C19       1.0  0.9449467007686112  0.627173111727906  0.11334541002950974  1.0000
  C   C20       1.0  0.0069344458483229  0.36967409252833505  0.8894055552497594  1.0000
  C   C21       1.0  0.5550876011060596  0.12717616584131972  0.8866503372441916  1.0000
  C   C22       1.0  0.4931198511219962  0.8696739074598201  0.11058902805731924  1.0000
  C   C23       1.0  0.44495768332900815  0.8728253553124646  0.3866462198709686  1.0000
  C   C24       1.0  0.506942519141056  0.13032334844896812  0.6105918817963671  1.0000
  C   C25       1.0  0.10606065763047924  0.4431802542525389  0.6251082131880639  1.0000
  C   C26       1.0  0.9876110655837638  0.5581358479281704  0.3753075398094127  1.0000
  C   C27       1.0  0.8940304536240549  0.5568298195438431  0.12511032793990756  1.0000
  C   C28       1.0  0.012421307058495803  0.4418603221806522  0.8753127546006001  1.0000
  C   C29       1.0  0.6060269562456996  0.056838432357849904  0.8748819053211322  1.0000
  C   C30       1.0  0.48762591235866654  0.9418600797542143  0.12468309875026765  1.0000
  C   C31       1.0  0.39404286625599383  0.9431678622510448  0.3748840811196106  1.0000
  C   C32       1.0  0.5124435958739184  0.0581372035303147  0.6246873189367009  1.0000
  C   C33       1.0  0.11183746150016562  0.4944012305007703  0.5804769791259263  1.0000
  C   C34       1.0  0.0131874670739691  0.5053129730606402  0.4180056738305213  1.0000
  C   C35       1.0  0.8882696936374688  0.5056050266338944  0.08048273834209142  1.0000
  C   C36       1.0  0.9868605566947437  0.49468754310466057  0.9180078558915173  1.0000
  C   C37       1.0  0.6117911597130715  0.0056127490317763  0.9195104744484515  1.0000
  C   C38       1.0  0.5131750326638453  0.9946910915916761  0.08198748969556392  1.0000
  C   C39       1.0  0.3883101481932627  0.9943946981204733  0.4195134521555347  1.0000
  C   C40       1.0  0.48691483201297103  0.005310372262457  0.5819892508212947  1.0000
  C   C41       1.0  0.06652945494669642  0.47315103131995073  0.5218065232881133  1.0000
  C   C42       1.0  0.051379035116994515  0.5268183753170561  0.47707192723599706  1.0000
  C   C43       1.0  0.9335505987878251  0.5268524473938143  0.021808669515650105  1.0000
  C   C44       1.0  0.9486888869816568  0.47318758446437675  0.9770772674207752  1.0000
  C   C45       1.0  0.5664951271708247  0.026857986367872396  0.9781841370197032  1.0000
  C   C46       1.0  0.5513517220586834  0.9731916071970378  0.02291760581759661  1.0000
  C   C47       1.0  0.4335886329582196  0.9731458441019002  0.4781869647523609  1.0000
  C   C48       1.0  0.44874128926846174  0.02681240666773021  0.5229203775416951  1.0000
  C   C49       1.0  0.04266450182720401  0.3987744274017473  0.5083658308656638  1.0000
  C   C50       1.0  0.07768526759493002  0.601101208126913  0.49041322798473186  1.0000
  C   C51       1.0  0.9574127317496492  0.6012268936465901  0.008364285871309104  1.0000
  C   C52       1.0  0.9223797138047019  0.39890371170204725  0.9904222638101463  1.0000
  C   C53       1.0  0.5426218177645412  0.1012304918878186  0.991627540232557  1.0000
  C   C54       1.0  0.5776605584571612  0.8989070485257428  0.009572262974323604  1.0000
  C   C55       1.0  0.4574647622217612  0.8987696343838251  0.4916299628554557  1.0000
  C   C56       1.0  0.42242387117798336  0.10109587361500158  0.5095789815507816  1.0000
  C   C57       1.0  0.173888561424647  0.5658200153307507  0.5904133992271668  1.0000
  C   C58       1.0  0.020337642858478902  0.43132295775414786  0.4038042776479501  1.0000
  C   C59       1.0  0.8262300713265134  0.4341878598497857  0.09042598178970715  1.0000
  C   C60       1.0  0.9797334893380027  0.5686759323701837  0.9038050629339697  1.0000
  C   C61       1.0  0.6738238636855274  0.9341949570658341  0.9095687536967819  1.0000
  C   C62       1.0  0.520307839023488  0.0686806481174926  0.09618871078631494  1.0000
  C   C63       1.0  0.3262832502032539  0.06581406955121588  0.40957197545763085  1.0000
  C   C64       1.0  0.47980644654530386  0.9313203105539146  0.5961891267136822  1.0000
  C   C65       1.0  0.16276356279655607  0.6160613980644102  0.5469633846956159  1.0000
  C   C66       1.0  0.04104772710083181  0.3807752327237992  0.44668886726105245  1.0000
  C   C67       1.0  0.8373221388433194  0.3839431952618355  0.04697822510966181  1.0000
  C   C68       1.0  0.9590304135327586  0.6192253392685387  0.9466874131264054  1.0000
  C   C69       1.0  0.662713734735249  0.8839475410042896  0.9530170294781759  1.0000
  C   C70       1.0  0.5410088430153409  0.11922922537593914  0.053302743607659415  1.0000
  C   C71       1.0  0.33738310123868603  0.11605570788905338  0.4530223544911608  1.0000
  C   C72       1.0  0.45910275503283776  0.8807711172518182  0.553305503684925  1.0000
  C   C73       1.0  0.9962752129781764  0.26973712430928026  0.54405242575605  1.0000
  C   C74       1.0  0.055155405466386816  0.2182376878830682  0.5855777091084493  1.0000
  C   C75       1.0  0.0222138560066938  0.1457368160608183  0.577646721451025  1.0000
  C   C76       1.0  0.9354012302326212  0.1207701322571211  0.5262097600502289  1.0000
  C   C77       1.0  0.8793104742559238  0.17017185663704026  0.48364238901732665  1.0000
  C   C78       1.0  0.9056900922115076  0.24291408144180343  0.4929471661890761  1.0000
  C   C79       1.0  0.0221675427275301  0.7323489731090619  0.46314398642087456  1.0000
  C   C80       1.0  0.007745918741221701  0.7863126149178968  0.42002833086404234  1.0000
  C   C81       1.0  0.9854225118622397  0.8580262289809681  0.434413588803075  1.0000
  C   C82       1.0  0.9834690366051222  0.8801841198892789  0.4931057405453105  1.0000
  C   C83       1.0  0.9978648431440791  0.8283776449000373  0.5370036811761382  1.0000
  C   C84       1.0  0.0116588728677485  0.7565206155024597  0.5222862536540449  1.0000
  C   C85       1.0  0.003793218386690001  0.7302674632219422  0.044047291109826914  1.0000
  C   C86       1.0  0.9448941154334636  0.7817707102650291  0.08556655919576883  1.0000
  C   C87       1.0  0.9778371409231144  0.8542720996179443  0.07763100973659932  1.0000
  C   C88       1.0  0.06465863966372612  0.8792322890264759  0.0261954386898751  1.0000
  C   C89       1.0  0.12076173891355071  0.8298293198251657  0.9836301930511769  1.0000
  C   C90       1.0  0.09438639996497501  0.757088178887841  0.9929399617531874  1.0000
  C   C91       1.0  0.9778932403275462  0.2676510977661479  0.9631606923983757  1.0000
  C   C92       1.0  0.9922588868460239  0.21367884561099967  0.9200531001168462  1.0000
  C   C93       1.0  0.014589430466237702  0.14196739108626133  0.9344510365041433  1.0000
  C   C94       1.0  0.0165829702252296  0.11982453536510461  0.9931444902789938  1.0000
  C   C95       1.0  0.0022295456337389  0.17163918583045762  0.037035294908406506  1.0000
  C   C96       1.0  0.9884456640842317  0.2434940551816781  0.0223078149892331  1.0000
  C   C97       1.0  0.49623973028565876  0.23026360004656252  0.9559433320406472  1.0000
  C   C98       1.0  0.555150113250889  0.2817679572440994  0.9144266736219965  1.0000
  C   C99       1.0  0.5222058033466725  0.35426938679680114  0.9223590697798162  1.0000
  C   C100      1.0  0.43537070183546694  0.37922645593220483  0.9737954280817294  1.0000
  C   C101      1.0  0.37925826823002506  0.3298196997581897  0.016359409801509607  1.0000
  C   C102      1.0  0.4056435090062892  0.2570789476266029  0.007049265122120102  1.0000
  C   C103      1.0  0.5221452348482174  0.767652032570524  0.03683722769834221  1.0000
  C   C104      1.0  0.5077827531763648  0.7136823069280708  0.07994629374527312  1.0000
  C   C105      1.0  0.48544464005890836  0.6419712636721755  0.06555364352234253  1.0000
  C   C106      1.0  0.48344597246470045  0.6198234673270377  0.006861496681068502  1.0000
  C   C107      1.0  0.49778593139245697  0.6716380607471563  0.9629670508783551  1.0000
  C   C108      1.0  0.5115860387760307  0.7434939864157144  0.9776910087899328  1.0000
  C   C109      1.0  0.5038225255417573  0.7697369897617962  0.45594192053846444  1.0000
  C   C110      1.0  0.44489360571738257  0.71823148615848  0.41443037158902035  1.0000
  C   C111      1.0  0.47783067844673616  0.6457295390319685  0.4223658377481885  1.0000
  C   C112      1.0  0.5646813914519485  0.620770971022921  0.4737962694357735  1.0000
  C   C113      1.0  0.6208261306270942  0.6701784394572601  0.5163560697154851  1.0000
  C   C114      1.0  0.5944438124744238  0.7429218380485806  0.507045484241843  1.0000
  C   C115      1.0  0.47792466899355196  0.2323472120281522  0.536842179521365  1.0000
  C   C116      1.0  0.49225959126865615  0.2863191526033972  0.5799484103209098  1.0000
  C   C117      1.0  0.5145848066500777  0.3580307007554211  0.5655525654268916  1.0000
  C   C118      1.0  0.5166111036798142  0.38017358747210045  0.5068564561824405  1.0000
  C   C119      1.0  0.5022935757795538  0.3283534835626796  0.4629652487347472  1.0000
  C   C120      1.0  0.48851356611098146  0.2564981194940046  0.477697241517376  1.0000
  O   O1        1.0  0.6301800613901349  0.8118536086618633  0.19216034427959275  1.0000
  O   O2        1.0  0.36929255609784667  0.18746234384416033  0.8139591781028915  1.0000
  O   O3        1.0  0.36986465860523055  0.18815179867490883  0.6921606720187159  1.0000
  O   O4        1.0  0.6307487348840654  0.8125417008632427  0.3139570688263263  1.0000
  O   O5        1.0  0.13017265778957215  0.6881442668982487  0.30782766438379383  1.0000
  O   O6        1.0  0.869288535034919  0.3125518763621643  0.6860355754708254  1.0000
  O   O7        1.0  0.8698585784788763  0.31185390399168267  0.8078358471163443  1.0000
  O   O8        1.0  0.13073172795101584  0.6874588478828018  0.1860366808889539  1.0000
  O   O9        1.0  0.30497234130431394  0.8187666106215588  0.3035016476133095  1.0000
  O   O10       1.0  0.6965228834675444  0.1885262717688789  0.6840827616408804  1.0000
  O   O11       1.0  0.6950545938931256  0.1812374137098161  0.8035048189776646  1.0000
  O   O12       1.0  0.30350602977018337  0.8114791197820778  0.18407619950419027  1.0000
  O   O13       1.0  0.804959269243632  0.681241421191352  0.19648194333139202  1.0000
  O   O14       1.0  0.19653804094901522  0.311481020863873  0.8159168462194376  1.0000
  O   O15       1.0  0.19507246929518376  0.3187757181626552  0.6964934673435793  1.0000
  O   O16       1.0  0.8034945990158705  0.6885129025221063  0.315904303182542  1.0000
  O   O17       1.0  0.4649450347327573  0.7065162786123196  0.25053852551883443  1.0000
  O   O18       1.0  0.5351023030519428  0.29349030769761  0.750540396673145  1.0000
  O   O19       1.0  0.9649445552073957  0.7934878257349923  0.24945482069063027  1.0000
  O   O20       1.0  0.0350955859192084  0.2065166268323111  0.7494574107954864  1.0000
