data_image0
_chemical_formula_structural       Zn6H18C42O18
_chemical_formula_sum              "Zn6 H18 C42 O18"
_cell_length_a       6.729975438030777
_cell_length_b       21.818408803192742
_cell_length_c       21.818402942015144
_cell_angle_alpha    120.0021095285843
_cell_angle_beta     89.99703111780619
_cell_angle_gamma    90.00297333937112

_space_group_name_H-M_alt    "P 1"
_space_group_IT_number       1

loop_
  _space_group_symop_operation_xyz
  'x, y, z'

loop_
  _atom_site_type_symbol
  _atom_site_label
  _atom_site_symmetry_multiplicity
  _atom_site_fract_x
  _atom_site_fract_y
  _atom_site_fract_z
  _atom_site_occupancy
  Zn  Zn1       1.0  0.9817601710644226  0.3816030644069101  0.6626789527962272  1.0000
  Zn  Zn2       1.0  0.31517873168021276  0.33730772032221507  0.718888117557725  1.0000
  Zn  Zn3       1.0  0.6485907838565694  0.28108536632284137  0.6183849364203198  1.0000
  Zn  Zn4       1.0  0.0182391562144844  0.6626791185692439  0.3816030131958001  1.0000
  Zn  Zn5       1.0  0.6848220829938753  0.7188878608133108  0.33730763619634274  1.0000
  Zn  Zn6       1.0  0.35140852473170275  0.6183852546913113  0.281085372293873  1.0000
  H   H1        1.0  0.2710769725175481  0.4501990332073331  0.5371393069575916  1.0000
  H   H2        1.0  0.6042587489275917  0.4627792979859888  0.9129792264551212  1.0000
  H   H3        1.0  0.9379616812277264  0.08697583097878686  0.549831412385771  1.0000
  H   H4        1.0  0.7289223473930662  0.5371391177955046  0.4501988115904679  1.0000
  H   H5        1.0  0.39574210700413204  0.9129795601740793  0.46277987103262314  1.0000
  H   H6        1.0  0.062037593347312694  0.5498305588373141  0.08697582312542806  1.0000
  H   H7        1.0  0.9700345183299816  0.36879453815752317  0.49619595083608203  1.0000
  H   H8        1.0  0.3033536301578294  0.5038075756600618  0.8725973832097863  1.0000
  H   H9        1.0  0.637044821971962  0.12740919888406668  0.6312403258758579  1.0000
  H   H10       1.0  0.029964785820652696  0.4961970891244787  0.368795192053426  1.0000
  H   H11       1.0  0.6966472257783992  0.8725974957201499  0.5038088696164635  1.0000
  H   H12       1.0  0.3629544684049009  0.6312393401951295  0.12740823422539893  1.0000
  H   H13       1.0  0.8342210542987799  0.4296453356817123  0.435267962635784  1.0000
  H   H14       1.0  0.1673183276642547  0.5647326601124547  0.9943441071959925  1.0000
  H   H15       1.0  0.501055549932346  0.005614724888815198  0.570369269790433  1.0000
  H   H16       1.0  0.16577824982454809  0.43526796273194185  0.42964505662700964  1.0000
  H   H17       1.0  0.8326825518026977  0.9943438104773958  0.5647342191486686  1.0000
  H   H18       1.0  0.49894371679057065  0.5703677075037061  0.00561398809683313  1.0000
  C   C1        1.0  0.6989090135893504  0.3725137084354485  0.5495519123215828  1.0000
  C   C2        1.0  0.03223642925863861  0.4504589464269557  0.8228942864876599  1.0000
  C   C3        1.0  0.3659606423642003  0.177075581129074  0.6275505645661283  1.0000
  C   C4        1.0  0.30109029792522074  0.5495516168645622  0.3725129957839286  1.0000
  C   C5        1.0  0.9677644134263587  0.8228944371277293  0.4504596197676208  1.0000
  C   C6        1.0  0.6340386539545123  0.6275504184945857  0.17707539559272326  1.0000
  C   C7        1.0  0.35452521540638327  0.383727051706927  0.6042338583683389  1.0000
  C   C8        1.0  0.6879421807301043  0.39574045509436206  0.7794411166174697  1.0000
  C   C9        1.0  0.021531583182181197  0.22051333756508018  0.6162709402301232  1.0000
  C   C10       1.0  0.6454755904949676  0.6042340255364493  0.38372693844042527  1.0000
  C   C11       1.0  0.31205864932402244  0.7794414469579181  0.39574076629657645  1.0000
  C   C12       1.0  0.9784677172867974  0.6162708983083717  0.22051328161833078  1.0000
  C   C13       1.0  0.49659285184561247  0.3954886457895056  0.5597915072493791  1.0000
  C   C14       1.0  0.8299387473817602  0.44016875661907306  0.8356325801163677  1.0000
  C   C15       1.0  0.1636264387422202  0.16432942956018334  0.604534699303862  1.0000
  C   C16       1.0  0.5034079498601612  0.5597912970480222  0.39548786473918807  1.0000
  C   C17       1.0  0.17006209565091976  0.8356329334495596  0.4401692561908133  1.0000
  C   C18       1.0  0.8363728528934898  0.604534147186932  0.1643296164042809  1.0000
  C   C19       1.0  0.42431167800111774  0.4316482421454635  0.5260015723898305  1.0000
  C   C20       1.0  0.7574718623316342  0.4739712242566725  0.9055864813290313  1.0000
  C   C21       1.0  0.09119836967366979  0.09437519974019888  0.568389681500591  1.0000
  C   C22       1.0  0.5756861522075667  0.526001678331532  0.43164806437334846  1.0000
  C   C23       1.0  0.24252899413743018  0.9055865842189303  0.4739710078929561  1.0000
  C   C24       1.0  0.9088009082865014  0.5683898018898432  0.094375768979198  1.0000
  C   C25       1.0  0.5408726972650938  0.4451027262808652  0.4813164504418809  1.0000
  C   C26       1.0  0.8738857326523545  0.5187312627172033  0.9637379220374382  1.0000
  C   C27       1.0  0.2077240137704521  0.0362382316310956  0.5549900493861201  1.0000
  C   C28       1.0  0.459128100711979  0.4813162024506069  0.44510193200898845  1.0000
  C   C29       1.0  0.1261136512594376  0.9637385117777552  0.5187310096807138  1.0000
  C   C30       1.0  0.792276740810081  0.5549886930002045  0.036237704758001095  1.0000
  C   C31       1.0  0.8163809840790321  0.38694569492563596  0.5046410154775671  1.0000
  C   C32       1.0  0.14962644180072718  0.49539207680591346  0.8822597566801775  1.0000
  C   C33       1.0  0.48340455144563776  0.11771870238639079  0.6131050796654449  1.0000
  C   C34       1.0  0.1836198093991115  0.5046391139046235  0.38694325917618494  1.0000
  C   C35       1.0  0.8503744143662358  0.8822604347797024  0.49539310490758476  1.0000
  C   C36       1.0  0.5165947353091835  0.6131040339116183  0.11771802455196938  1.0000
  C   C37       1.0  0.7398841774402171  0.4216604603377048  0.4713638716017669  1.0000
  C   C38       1.0  0.0729397530925411  0.5286922331566828  0.9502474620602755  1.0000
  C   C39       1.0  0.40678631671576676  0.04971789785833638  0.5784057095978028  1.0000
  C   C40       1.0  0.260115130327101  0.4713633768982745  0.42165951634609655  1.0000
  C   C41       1.0  0.9270611161790326  0.9502474496007662  0.5286922601395003  1.0000
  C   C42       1.0  0.5932129567318397  0.578404572068976  0.04971767927595752  1.0000
  O   O1        1.0  0.7852367765549033  0.3379947385775637  0.5793106650008966  1.0000
  O   O2        1.0  0.11858881210063292  0.4206619464118758  0.7586207013717825  1.0000
  O   O3        1.0  0.45224131905307974  0.2413659473960975  0.6620858115544833  1.0000
  O   O4        1.0  0.2147625343631532  0.5793115784503087  0.33799502022759503  1.0000
  O   O5        1.0  0.8814105326275268  0.7586211072102241  0.42066192722089796  1.0000
  O   O6        1.0  0.5477579900426051  0.662085685651398  0.2413655884053013  1.0000
  O   O7        1.0  0.1860816927586484  0.4149361520791642  0.6191220565555824  1.0000
  O   O8        1.0  0.5193995773286915  0.38090959794899243  0.7957645602412383  1.0000
  O   O9        1.0  0.8530247169851322  0.20419807700456968  0.5850964541498982  1.0000
  O   O10       1.0  0.8139176332127886  0.6191225252549372  0.414936253077407  1.0000
  O   O11       1.0  0.48060125292303  0.7957647866770541  0.3809097469587499  1.0000
  O   O12       1.0  0.1469760632336587  0.5850961042906915  0.20419780406000135  1.0000
  O   O13       1.0  0.39881557617123775  0.34044457502691466  0.6264288780143445  1.0000
  O   O14       1.0  0.7321762777058253  0.3735356497118403  0.7139563885275706  1.0000
  O   O15       1.0  0.0657981032996204  0.28600344719788495  0.65952983236037  1.0000
  O   O16       1.0  0.6011837411424066  0.6264296287142058  0.3404447513106135  1.0000
  O   O17       1.0  0.267823055158992  0.7139565500549663  0.3735355170286495  1.0000
  O   O18       1.0  0.9342012112013193  0.6595298434825306  0.2860035652332015  1.0000
