data_image0
_chemical_formula_structural       Al2H10C22S2O16
_chemical_formula_sum              "Al2 H10 C22 S2 O16"
_cell_length_a       6.612758272254451
_cell_length_b       11.130708394663547
_cell_length_c       12.52782896221893
_cell_angle_alpha    82.53785960517212
_cell_angle_beta     77.93473183020896
_cell_angle_gamma    72.07789093627997

_space_group_name_H-M_alt    "P 1"
_space_group_IT_number       1

loop_
  _space_group_symop_operation_xyz
  'x, y, z'

loop_
  _atom_site_type_symbol
  _atom_site_label
  _atom_site_symmetry_multiplicity
  _atom_site_fract_x
  _atom_site_fract_y
  _atom_site_fract_z
  _atom_site_occupancy
  Al  Al1       1.0  0.4806972567621418  0.5077230543380935  0.506147658559094  1.0000
  Al  Al2       1.0  0.9846185128055822  0.5057733792115542  0.5049627307744232  1.0000
  H   H1        1.0  0.28236275969360497  0.3529258685547489  0.5736723616416344  1.0000
  H   H2        1.0  0.6838746370144551  0.6595625886832863  0.4405175003329236  1.0000
  H   H3        1.0  0.19869269497370112  0.24604079286508818  0.3456391123129024  1.0000
  H   H4        1.0  0.527619943376216  0.12998658593527776  0.22603055179857998  1.0000
  H   H5        1.0  0.40827139934730666  0.7747588196911009  0.35191179471245  1.0000
  H   H6        1.0  0.6302717769618625  0.8937391639863678  0.22793118749804367  1.0000
  H   H7        1.0  0.32658295708430535  0.44387936614091233  0.7588664387543178  1.0000
  H   H8        1.0  0.8344921049547268  0.5654825997277586  0.12245760637028982  1.0000
  H   H9        1.0  0.002680574484117086  0.7926618257034619  0.7129732601902108  1.0000
  H   H10       1.0  0.7693764292906451  0.14416095376570584  0.733454613741202  1.0000
  C   C1        1.0  0.8453686778176107  0.28301430272249223  0.4894951938687557  1.0000
  C   C2        1.0  0.6676121387764766  0.5010028068410721  0.703617655385962  1.0000
  C   C3        1.0  0.12131899668531793  0.7332347788210714  0.5133010512909666  1.0000
  C   C4        1.0  0.30168046957219735  0.5140600476696947  0.30943140223325133  1.0000
  C   C5        1.0  0.4205021643224712  0.47335504727718836  0.8816947562884396  1.0000
  C   C6        1.0  0.5582595248658252  0.5358764578040365  0.12955429274104804  1.0000
  C   C7        1.0  0.6052164142322954  0.5030317914864143  0.8211956101308859  1.0000
  C   C8        1.0  0.3729379272781869  0.5094112518050197  0.1916606985320612  1.0000
  C   C9        1.0  0.5757755016190843  0.5204683798554229  0.01669778180100678  1.0000
  C   C10       1.0  0.405475525674575  0.48284772583872393  0.9950410658813669  1.0000
  C   C11       1.0  0.9169222427271964  0.14139227385341263  0.4895213763160414  1.0000
  C   C12       1.0  0.11336641216575324  0.07719600028949002  0.4220714488025267  1.0000
  C   C13       1.0  0.7906786306054984  0.07449242453388649  0.5598735750174557  1.0000
  C   C14       1.0  0.24433083871645075  0.14313916207697022  0.34849611248043294  1.0000
  C   C15       1.0  0.4285728228882775  0.07782097564085431  0.2816545069708667  1.0000
  C   C16       1.0  0.051278700451057216  0.8753484179065935  0.504202142853643  1.0000
  C   C17       1.0  0.8626993957261464  0.9400378201549061  0.5704076730773056  1.0000
  C   C18       1.0  0.17755049341761978  0.9413368548841775  0.42658668206551204  1.0000
  C   C19       1.0  0.3641292404763168  0.8773513764631601  0.35351952150035976  1.0000
  C   C20       1.0  0.4874413954980744  0.9443344916802802  0.28322074701170413  1.0000
  C   C21       1.0  0.7365078487095931  0.8707369372941047  0.6568156742540625  1.0000
  C   C22       1.0  0.5859043145707757  0.14452873072211497  0.6322291432452829  1.0000
  S   S1        1.0  0.7573101105534765  0.5427111888975205  0.901319760282661  1.0000
  S   S2        1.0  0.22483194596072306  0.46279107665997554  0.11223859188670104  1.0000
  O   O1        1.0  0.6554267407159386  0.33949043160023257  0.47237236183222825  1.0000
  O   O2        1.0  0.8456206652525893  0.5207262674959736  0.6567813828813346  1.0000
  O   O3        1.0  0.9901705392051102  0.6795228358971528  0.49387796676613516  1.0000
  O   O4        1.0  0.42167888862854846  0.5456729730056582  0.36184495460415184  1.0000
  O   O5        1.0  0.3050700912159103  0.6781925039385542  0.5392244844180925  1.0000
  O   O6        1.0  0.12439257698557787  0.48873345173537075  0.3523445527988543  1.0000
  O   O7        1.0  0.9771251856386415  0.33467512699624546  0.510976964976507  1.0000
  O   O8        1.0  0.5325603219179199  0.47552274510564996  0.6543916868940303  1.0000
  O   O9        1.0  0.24613012795075662  0.444179103375305  0.5533933593333986  1.0000
  O   O10       1.0  0.7179721649494796  0.569507860734092  0.4612380005321129  1.0000
  O   O11       1.0  0.27591762675858444  0.44103379887128813  0.839861032300391  1.0000
  O   O12       1.0  0.6964146445388409  0.573964956134219  0.17299951099342795  1.0000
  O   O13       1.0  0.8520241771785567  0.7912367220739471  0.7295533734441267  1.0000
  O   O14       1.0  0.5439535227953625  0.8853745561839832  0.6665656843443204  1.0000
  O   O15       1.0  0.6153742297291559  0.172396054785203  0.7296637657578344  1.0000
  O   O16       1.0  0.40633633127502833  0.17714442403750044  0.6092306160498709  1.0000
