data_image0
_chemical_formula_structural       Cd4H16C36N8O16
_chemical_formula_sum              "Cd4 H16 C36 N8 O16"
_cell_length_a       5.7992791400390304
_cell_length_b       10.743983047918892
_cell_length_c       13.733770209955605
_cell_angle_alpha    95.34440496158622
_cell_angle_beta     90.00028574584529
_cell_angle_gamma    90.00023810348306

_space_group_name_H-M_alt    "P 1"
_space_group_IT_number       1

loop_
  _space_group_symop_operation_xyz
  'x, y, z'

loop_
  _atom_site_type_symbol
  _atom_site_label
  _atom_site_symmetry_multiplicity
  _atom_site_fract_x
  _atom_site_fract_y
  _atom_site_fract_z
  _atom_site_occupancy
  Cd  Cd1       1.0  0.7852865884597621  0.7460706779859263  0.6566188860330159  1.0000
  Cd  Cd2       1.0  0.28529278248134204  0.7539291215870847  0.8433846363254249  1.0000
  Cd  Cd3       1.0  0.21470880219685995  0.25393240039760195  0.34338328163727283  1.0000
  Cd  Cd4       1.0  0.714711229918372  0.24607021875561227  0.15661652706848636  1.0000
  H   H1        1.0  0.18272158002236688  0.08534169800847739  0.054457811636034116  1.0000
  H   H2        1.0  0.6827232594433283  0.41465803316790323  0.4455373455817482  1.0000
  H   H3        1.0  0.8172807080272478  0.9146604492077653  0.9455421028520877  1.0000
  H   H4        1.0  0.3172704068638695  0.5853469160594498  0.5544642321650529  1.0000
  H   H5        1.0  0.40459043219060226  0.14178795152215423  0.9076236489847463  1.0000
  H   H6        1.0  0.9045911431575535  0.358211190798741  0.5923735005913644  1.0000
  H   H7        1.0  0.5954118558463862  0.858208584368434  0.09237730722451692  1.0000
  H   H8        1.0  0.09540597181021579  0.641785348723978  0.40762527148225314  1.0000
  H   H9        1.0  0.344574164285497  0.33024011772331346  0.7657013028013824  1.0000
  H   H10       1.0  0.8445735269788842  0.16975979267802188  0.7342935890235512  1.0000
  H   H11       1.0  0.655428123723688  0.6697545545999543  0.23429587507031616  1.0000
  H   H12       1.0  0.15541841495444694  0.830240483677265  0.2657069153737056  1.0000
  H   H13       1.0  0.6386639484558431  0.42609164595206994  0.973829714765252  1.0000
  H   H14       1.0  0.13864979896412422  0.07391140581535179  0.5261729722369426  1.0000
  H   H15       1.0  0.36134178828228153  0.5739095700919917  0.026167946536610004  1.0000
  H   H16       1.0  0.8613369699264485  0.9260926097988144  0.47382780839762983  1.0000
  C   C1        1.0  0.946129241415321  0.31235254105157384  0.9510861109509607  1.0000
  C   C2        1.0  0.44611265726568666  0.18765792604503415  0.5489185184766259  1.0000
  C   C3        1.0  0.05388511711182531  0.6876505385720362  0.0489153286987118  1.0000
  C   C4        1.0  0.5538879064406856  0.8123432827127243  0.4510835110780819  1.0000
  C   C5        1.0  0.1292735476226667  0.15905839175434264  0.010004008137819702  1.0000
  C   C6        1.0  0.6292614527305674  0.34094398605853365  0.4899948693962133  1.0000
  C   C7        1.0  0.8707356378365961  0.8409428194419771  0.9899965653408034  1.0000
  C   C8        1.0  0.3707373866200642  0.6590562878802257  0.5100070910955739  1.0000
  C   C9        1.0  0.6630717409811595  0.5642748471263912  0.8216165473015098  1.0000
  C   C10       1.0  0.16305828276902903  0.9357320888613357  0.6783843247977971  1.0000
  C   C11       1.0  0.33693916883249403  0.4357291709483633  0.17838277727543073  1.0000
  C   C12       1.0  0.8369371078429992  0.06426351584237719  0.3216143782129067  1.0000
  C   C13       1.0  0.1923141869025429  0.35033091589789217  0.8109869293870492  1.0000
  C   C14       1.0  0.6923060006620433  0.14967042097305233  0.6890142909606923  1.0000
  C   C15       1.0  0.8076984472583888  0.6496684244570473  0.18901423401710826  1.0000
  C   C16       1.0  0.3076876656178912  0.8503261136921335  0.3109873932814865  1.0000
  C   C17       1.0  0.14357906678652915  0.2851799238247708  0.8919084804519105  1.0000
  C   C18       1.0  0.6435703858556111  0.2148287508027522  0.6080946326070348  1.0000
  C   C19       1.0  0.8564318430333062  0.7148212849476748  0.10809354911509672  1.0000
  C   C20       1.0  0.35642500476058103  0.7851668526878014  0.3919047984468308  1.0000
  C   C21       1.0  0.8389520695727058  0.4713432143526432  0.8489160037165109  1.0000
  C   C22       1.0  0.33894422332988233  0.028658542432651795  0.6510833811147807  1.0000
  C   C23       1.0  0.16105884023047423  0.5286579992724396  0.15108311367783503  1.0000
  C   C24       1.0  0.6610408212021285  0.9713426675162395  0.34891792037831254  1.0000
  C   C25       1.0  0.038693564082741716  0.44452663029642275  0.790406891264745  1.0000
  C   C26       1.0  0.5386867136691934  0.055475202869715176  0.7095954890185683  1.0000
  C   C27       1.0  0.9613138969991581  0.5554689732112691  0.20959253980346665  1.0000
  C   C28       1.0  0.4612983308906139  0.9445278706464961  0.2904095908120895  1.0000
  C   C29       1.0  0.08861158603070152  0.5170615293857139  0.7045465416464866  1.0000
  C   C30       1.0  0.5885964804875955  0.9829405187137109  0.795455264213459  1.0000
  C   C31       1.0  0.911399323777985  0.48293781096678134  0.2954546217556242  1.0000
  C   C32       1.0  0.4113954614610478  0.0170616248483739  0.20454683439186994  1.0000
  C   C33       1.0  0.7926896695074678  0.4058406631874618  0.9298545453820213  1.0000
  C   C34       1.0  0.29267443331338683  0.09416749869497917  0.5701495811426514  1.0000
  C   C35       1.0  0.20732124031452062  0.5941633524609742  0.0701462352812499  1.0000
  C   C36       1.0  0.7073192329721892  0.9058327776627589  0.42985092325665875  1.0000
  N   N1        1.0  0.2535133274463491  0.18816939865369153  0.931927730262281  1.0000
  N   N2        1.0  0.7535031067544794  0.31183305161516717  0.5680707924642975  1.0000
  N   N3        1.0  0.7464906849450373  0.811829944115331  0.06807197704529241  1.0000
  N   N4        1.0  0.24649400821328982  0.6881634879075519  0.4319279796093199  1.0000
  N   N5        1.0  0.943373329338691  0.23163251356508843  0.024693056971187805  1.0000
  N   N6        1.0  0.44335698846088434  0.26837542149626603  0.47531200889599773  1.0000
  N   N7        1.0  0.05663930484320191  0.7683724356891941  0.9753085207981588  1.0000
  N   N8        1.0  0.5566418508814267  0.731624854868812  0.524688495509466  1.0000
  O   O1        1.0  0.6327019896996832  0.5807848742876442  0.7317773850103111  1.0000
  O   O2        1.0  0.13269807230290812  0.9192088904947507  0.7682209919617266  1.0000
  O   O3        1.0  0.36730029831998223  0.41921260248528813  0.2682200000439893  1.0000
  O   O4        1.0  0.8672800747678765  0.08078391216113799  0.23177604775955277  1.0000
  O   O5        1.0  0.11752830829794902  0.45905484015938197  0.6219680422430971  1.0000
  O   O6        1.0  0.6175129438394863  0.040945348370122786  0.8780336592846256  1.0000
  O   O7        1.0  0.8824774284638153  0.5409482406651518  0.3780326693531536  1.0000
  O   O8        1.0  0.3824824468199567  0.9590596008596745  0.1219679184642217  1.0000
  O   O9        1.0  0.5455370269473648  0.6190848743648871  0.8918543133329424  1.0000
  O   O10       1.0  0.0455206771055572  0.8809207919324535  0.6081469383216105  1.0000
  O   O11       1.0  0.45446526106665897  0.38090886071550045  0.10814425156422663  1.0000
  O   O12       1.0  0.9544764378213845  0.11908043865728496  0.3918419864520077  1.0000
  O   O13       1.0  0.09969620731746434  0.6384757071278101  0.7190143245952998  1.0000
  O   O14       1.0  0.5996973751948858  0.8615282384552783  0.7809898298874745  1.0000
  O   O15       1.0  0.9003009076789115  0.36152737489764764  0.2809856589475431  1.0000
  O   O16       1.0  0.4002945667760543  0.13847764194671439  0.21901400104764693  1.0000
