data_image0
_chemical_formula_structural       Ag4H12C20S4Br4N4O12
_chemical_formula_sum              "Ag4 H12 C20 S4 Br4 N4 O12"
_cell_length_a       5.18015206614548
_cell_length_b       9.971581553701348
_cell_length_c       15.957336525340908
_cell_angle_alpha    71.49541530398014
_cell_angle_beta     80.69257253149793
_cell_angle_gamma    75.00975726865681

_space_group_name_H-M_alt    "P 1"
_space_group_IT_number       1

loop_
  _space_group_symop_operation_xyz
  'x, y, z'

loop_
  _atom_site_type_symbol
  _atom_site_label
  _atom_site_symmetry_multiplicity
  _atom_site_fract_x
  _atom_site_fract_y
  _atom_site_fract_z
  _atom_site_occupancy
  Ag  Ag1       1.0  0.5311331027515609  0.3568386423635701  0.9886077130632389  1.0000
  Ag  Ag2       1.0  0.8769139506065007  0.1434830708953285  0.5116749020142635  1.0000
  Ag  Ag3       1.0  0.46886681576324946  0.6431614446287455  0.011392705943713112  1.0000
  Ag  Ag4       1.0  0.12306950983816771  0.856522461052364  0.4883270626235473  1.0000
  H   H1        1.0  0.4042680672730939  0.2177160691666344  0.19315722258843954  1.0000
  H   H2        1.0  0.8142858917945547  0.28233645491861387  0.3069054054988527  1.0000
  H   H3        1.0  0.5957396534234932  0.7822861383783957  0.806838000710144  1.0000
  H   H4        1.0  0.18570260853596934  0.7176658268402676  0.6930973477078481  1.0000
  H   H5        1.0  0.06710559887867645  0.858669043793405  0.2861485285709477  1.0000
  H   H6        1.0  0.21143831629239448  0.641836234327627  0.21366010422996604  1.0000
  H   H7        1.0  0.9328944860520777  0.14133214212312584  0.7138530472286676  1.0000
  H   H8        1.0  0.7885571038371921  0.35816275700739203  0.7863395820387711  1.0000
  H   H9        1.0  0.054687616385855634  0.13219483200474255  0.014259837435354005  1.0000
  H   H10       1.0  0.20167470682363156  0.36836450746162797  0.4854998275653699  1.0000
  H   H11       1.0  0.9453258521131581  0.8678008784295839  0.9857373870554795  1.0000
  H   H12       1.0  0.7983030912893632  0.6316442811161875  0.5145019742780121  1.0000
  C   C1        1.0  0.6002566154513858  0.14891921332361588  0.18290227804897807  1.0000
  C   C2        1.0  0.9310118222848942  0.3514391274828342  0.31712128189327876  1.0000
  C   C3        1.0  0.3997498477778123  0.8510830280151607  0.817096174981991  1.0000
  C   C4        1.0  0.06897686961305999  0.6485642113780159  0.6828786717392249  1.0000
  C   C5        1.0  0.7209556881267574  0.03354137158230229  0.250938911917487  1.0000
  C   C6        1.0  0.004060258235831906  0.4669522042921556  0.24906443100896786  1.0000
  C   C7        1.0  0.27905300494884955  0.9664554265733402  0.7490585410115145  1.0000
  C   C8        1.0  0.9959326846862099  0.5330467918969716  0.7509357801742385  1.0000
  C   C9        1.0  0.9707309929843294  0.9481246710096796  0.23343278298170136  1.0000
  C   C10       1.0  0.15134542325853317  0.5525215258951164  0.2664474555085405  1.0000
  C   C11       1.0  0.029276868976722752  0.05187867728182029  0.7665675534764135  1.0000
  C   C12       1.0  0.8486528194862405  0.44747963752308806  0.7335520412476343  1.0000
  C   C13       1.0  0.0920076916520288  0.9833806600616127  0.14728601280755535  1.0000
  C   C14       1.0  0.22217232641990156  0.5174172106718087  0.3525280442718711  1.0000
  C   C15       1.0  0.9080039904547091  0.016619409101437596  0.8527124074015405  1.0000
  C   C16       1.0  0.7778203394639507  0.48258396889593763  0.6474731280877108  1.0000
  C   C17       1.0  0.9634932083206139  0.10007224400902709  0.0818833610928564  1.0000
  C   C18       1.0  0.1454084255848899  0.40048380855292715  0.41794435888323284  1.0000
  C   C19       1.0  0.03652014955616058  0.8999267487281344  0.9181159813670166  1.0000
  C   C20       1.0  0.8545820230282929  0.5995227932868301  0.5820558353948827  1.0000
  S   S1        1.0  0.5717054125915128  0.9964728981718807  0.36294975883379277  1.0000
  S   S2        1.0  0.9307108005289065  0.5034648274586572  0.13700586833716952  1.0000
  S   S3        1.0  0.42829295787680627  0.0035173821469882977  0.6370481617729098  1.0000
  S   S4        1.0  0.06928531041595  0.4965385177509772  0.8629944887353673  1.0000
  Br  Br1       1.0  0.4343229404934166  0.8717366257077047  0.11951319604603577  1.0000
  Br  Br2       1.0  0.42566361470716907  0.6290765236865636  0.38030221300837047  1.0000
  Br  Br3       1.0  0.5657076823817562  0.12826245851741896  0.8804943411131704  1.0000
  Br  Br4       1.0  0.5743172956349414  0.3709322326847014  0.61969645996264  1.0000
  N   N1        1.0  0.7206686216316174  0.1799762988600833  0.1000148841934987  1.0000
  N   N2        1.0  0.0003875468131724653  0.3203766616392655  0.39994943400716926  1.0000
  N   N3        1.0  0.27934164916752763  0.8200226842613744  0.8999836307718782  1.0000
  N   N4        1.0  0.9995999001931397  0.6796266901042003  0.6000517711742859  1.0000
  O   O1        1.0  0.7177544486759045  0.8500865804693872  0.40801819065879397  1.0000
  O   O2        1.0  0.9755744788648002  0.6498696524955321  0.09180340966502602  1.0000
  O   O3        1.0  0.28224185739676244  0.14989819719988867  0.5919732193500951  1.0000
  O   O4        1.0  0.02442824968945709  0.35013262749109936  0.9081987980127907  1.0000
  O   O5        1.0  0.6073721068024867  0.11171937171356919  0.3953014335344704  1.0000
  O   O6        1.0  0.11465620257641262  0.3880636678982725  0.10510198393465942  1.0000
  O   O7        1.0  0.3926436689635015  0.8882600960827887  0.6047011274386519  1.0000
  O   O8        1.0  0.8853388550442318  0.6119407472959467  0.8948968251126248  1.0000
  O   O9        1.0  0.28490278259879176  0.0020982409412724006  0.35801073898461067  1.0000
  O   O10       1.0  0.6449363446383175  0.49737056292440945  0.1415826121994215  1.0000
  O   O11       1.0  0.7150925520600359  0.997903990874327  0.6419871088863048  1.0000
  O   O12       1.0  0.35505994529823703  0.5026338602983174  0.8584169234823449  1.0000
