data_image0
_chemical_formula_structural       Zn4H32C64N32
_chemical_formula_sum              "Zn4 H32 C64 N32"
_cell_length_a       10.103823501505442
_cell_length_b       10.942906513
_cell_length_c       14.1351
_cell_angle_alpha    90.0
_cell_angle_beta     101.10850670425921
_cell_angle_gamma    90.0

_space_group_name_H-M_alt    "P 1"
_space_group_IT_number       1

loop_
  _space_group_symop_operation_xyz
  'x, y, z'

loop_
  _atom_site_type_symbol
  _atom_site_label
  _atom_site_symmetry_multiplicity
  _atom_site_fract_x
  _atom_site_fract_y
  _atom_site_fract_z
  _atom_site_occupancy
  Zn  Zn1       1.0  0.8494380845788784  0.1272239690932295  0.2535259128331617  1.0000
  Zn  Zn2       1.0  0.15056101109081513  0.627223671503188  0.2464753775403281  1.0000
  Zn  Zn3       1.0  0.15056201971261632  0.8727772633946815  0.7464741015298203  1.0000
  Zn  Zn4       1.0  0.8494380845788784  0.3727748194827357  0.753525205374423  1.0000
  H   H1        1.0  0.6947094481961359  0.3759047009232149  0.1927122545022257  1.0000
  H   H2        1.0  0.3052876302299481  0.875905317167174  0.30728805059858644  1.0000
  H   H3        1.0  0.3052886388517493  0.6240956177306956  0.8072874820468172  1.0000
  H   H4        1.0  0.6947104568179441  0.1240950014867437  0.6927123934091952  1.0000
  H   H5        1.0  0.4635363567067898  0.43513942062313765  0.10285650295180199  1.0000
  H   H6        1.0  0.5364597130974929  0.9351391230330961  0.3971443707007793  1.0000
  H   H7        1.0  0.5364617303410952  0.5648608980307728  0.8971432335972479  1.0000
  H   H8        1.0  0.46353837395039943  0.0648602817868209  0.6028560733069952  1.0000
  H   H9        1.0  0.2956744558211  0.2705195366955948  0.044130112249490594  1.0000
  H   H10       1.0  0.7043236312267922  0.7705201529395539  0.45586750192333625  1.0000
  H   H11       1.0  0.7043256484703946  0.7294798681243223  0.9558684871960139  1.0000
  H   H12       1.0  0.2956754644429012  0.22948107954835714  0.5441309586151988  1.0000
  H   H13       1.0  0.2435347603126488  0.04299040656530911  0.031831698905946795  1.0000
  H   H14       1.0  0.7564663526006541  0.5429910228092609  0.4681663319877885  1.0000
  H   H15       1.0  0.7564653439788458  0.9570089982546152  0.9681661930808261  1.0000
  H   H16       1.0  0.2435347603126488  0.4570092958446565  0.5318316989059468  1.0000
  H   H17       1.0  0.3219520796668363  0.8281574908123304  0.0649438401175715  1.0000
  H   H18       1.0  0.6780490332464595  0.328157788402372  0.43505631315237997  1.0000
  H   H19       1.0  0.6780490332464595  0.1718419140075866  0.9350556056936411  1.0000
  H   H20       1.0  0.3219520796668363  0.6718416164175454  0.5649438401175715  1.0000
  H   H21       1.0  0.5078108193917998  0.6820920923643854  0.1315636370378428  1.0000
  H   H22       1.0  0.49218928489969477  0.1820923899544269  0.3684349624076617  1.0000
  H   H23       1.0  0.4921882762778936  0.3179073124555316  0.8684369458769081  1.0000
  H   H24       1.0  0.5078108193917998  0.8179070148654973  0.6315643444965815  1.0000
  H   H25       1.0  0.7496430261001947  0.6523330882448519  0.2170614347297644  1.0000
  H   H26       1.0  0.2503580868131081  0.15233247200089292  0.2829387185401799  1.0000
  H   H27       1.0  0.2503560695694986  0.3476681442430589  0.7829398556437184  1.0000
  H   H28       1.0  0.7496430261001947  0.8476678466530174  0.7170614347297644  1.0000
  H   H29       1.0  0.8920493299099733  0.8369193311776968  0.26893298169444785  1.0000
  H   H30       1.0  0.10794976575972022  0.33691962876773834  0.23106760122030323  1.0000
  H   H31       1.0  0.10794976575972022  0.1630809874762207  0.7310661863028327  1.0000
  H   H32       1.0  0.8920503385317744  0.6630806898861792  0.7689324131426788  1.0000
  C   C1        1.0  0.6190345715255745  0.3071277266243087  0.16496114068505818  1.0000
  C   C2        1.0  0.38096553276592  0.8071274290342674  0.335040288595394  1.0000
  C   C3        1.0  0.38096755000952953  0.692870764361615  0.8350398589505943  1.0000
  C   C4        1.0  0.6190355801473757  0.19287288961965032  0.6649612795920277  1.0000
  C   C5        1.0  0.489673782121848  0.3391649188989092  0.11481688549645948  1.0000
  C   C6        1.0  0.5103253135478454  0.8391655351428682  0.38518511233576896  1.0000
  C   C7        1.0  0.5103253135478454  0.6608335720870074  0.8851822825008214  1.0000
  C   C8        1.0  0.48967579936545047  0.16083478351104932  0.6148157483929211  1.0000
  C   C9        1.0  0.3967867743751086  0.24802459901998472  0.08301935451044068  1.0000
  C   C10       1.0  0.6032123212945777  0.7480261290979371  0.41697981348683294  1.0000
  C   C11       1.0  0.603213329916386  0.7519738919659389  0.9169792449350639  1.0000
  C   C12       1.0  0.3967877829969169  0.25197418955598044  0.5830202008761489  1.0000
  C   C13       1.0  0.4339736516471575  0.12434356433398362  0.1007639017897617  1.0000
  C   C14       1.0  0.5660254440225359  0.6243450944119361  0.39923455874877334  1.0000
  C   C15       1.0  0.566026452644337  0.875654926651933  0.8992339901970042  1.0000
  C   C16       1.0  0.4339756688907599  0.3756552242419744  0.6007641796037007  1.0000
  C   C17       1.0  0.34578984736998564  0.023251592225314303  0.0701192195370552  1.0000
  C   C18       1.0  0.6542102569215089  0.5232531223032666  0.4298793799084492  1.0000
  C   C19       1.0  0.6542122741651113  0.9767478125946029  0.9298796577223882  1.0000
  C   C20       1.0  0.3457908559917939  0.4767471963506509  0.5701193584440247  1.0000
  C   C21       1.0  0.3887641965503335  0.9053782912455759  0.08746591719482667  1.0000
  C   C22       1.0  0.6112348991193601  0.40537950266961087  0.4125325433437084  1.0000
  C   C23       1.0  0.6112369163629694  0.0946201997403477  0.9125328211576474  1.0000
  C   C24       1.0  0.38876520517213464  0.5946217298183002  0.5874667635605347  1.0000
  C   C25       1.0  0.5236371041100085  0.8790351986076602  0.1364563305409163  1.0000
  C   C26       1.0  0.47636199155968484  0.379036410031695  0.36354212999762575  1.0000
  C   C27       1.0  0.47636300018148603  0.12096512004625741  0.8635429763633269  1.0000
  C   C28       1.0  0.5236381127318097  0.6209639086222155  0.6364564694478858  1.0000
  C   C29       1.0  0.574798436469095  0.7591950082119823  0.1543291961362598  1.0000
  C   C30       1.0  0.4252016678223995  0.2591953058020238  0.3456701107679834  1.0000
  C   C31       1.0  0.4252016678223995  0.24080439660793476  0.8456715256854607  1.0000
  C   C32       1.0  0.574798436469095  0.7408050128518938  0.6543291961362597  1.0000
  C   C33       1.0  0.7067634873693791  0.7430822871729674  0.20170584895701182  1.0000
  C   C34       1.0  0.2932366169221155  0.24308167092900856  0.2982941654059701  1.0000
  C   C35       1.0  0.2932366169221155  0.25691803148095  0.7982948728647087  1.0000
  C   C36       1.0  0.7067634873693791  0.7569186477249021  0.7017051414982731  1.0000
  C   C37       1.0  0.7876307490841941  0.8460110656160539  0.23127286164422148  1.0000
  C   C38       1.0  0.212370363829109  0.3460122770400957  0.2687272916257299  1.0000
  C   C39       1.0  0.212370363829109  0.1539892530378566  0.7687265841669912  1.0000
  C   C40       1.0  0.7876307490841941  0.6539871277798213  0.7312728616442216  1.0000
  C   C41       1.0  0.6128234784598234  0.9770356703037281  0.1682847103344258  1.0000
  C   C42       1.0  0.3871756172098699  0.4770359678937695  0.3317151651215866  1.0000
  C   C43       1.0  0.3871766258316711  0.022964648350182408  0.8317138891110786  1.0000
  C   C44       1.0  0.6128244870816246  0.522964350760141  0.6682841417826565  1.0000
  C   C45       1.0  0.5673517816940932  0.10107186776073011  0.15059124918735733  1.0000
  C   C46       1.0  0.43264731397559336  0.6010706563366953  0.349408626268648  1.0000
  C   C47       1.0  0.43264731397559336  0.8989284508931804  0.849406503892439  1.0000
  C   C48       1.0  0.5673537989377024  0.39892874848322185  0.6505915270012962  1.0000
  C   C49       1.0  0.1023287164489943  0.0206581313412002  0.3987004878449341  1.0000
  C   C50       1.0  0.8976713878425003  0.5206550922491644  0.10130235635299557  1.0000
  C   C51       1.0  0.8976713878425003  0.9793440149807111  0.6013016488942569  1.0000
  C   C52       1.0  0.1023287164489943  0.4793424849027588  0.8986997803861954  1.0000
  C   C53       1.0  0.248321679391907  0.9439850361262075  0.5309175631469643  1.0000
  C   C54       1.0  0.7516784248995877  0.44398259221425473  0.9690845735922339  1.0000
  C   C55       1.0  0.7516794335213959  0.0560180240296972  0.4690854199579348  1.0000
  C   C56       1.0  0.24832067077009873  0.5560158987716619  0.030917424239994794  1.0000
  C   C57       1.0  0.9543589590627874  0.3206460729452091  0.39788904913501716  1.0000
  C   C58       1.0  0.0456391279851047  0.820644861521167  0.1021113948727645  1.0000
  C   C59       1.0  0.0456391279851047  0.6793569872106957  0.6021106874140258  1.0000
  C   C60       1.0  0.9543579504409792  0.17935454329875003  0.8978896176867863  1.0000
  C   C61       1.0  0.9742963862519292  0.3495734881272697  0.5608940360654628  1.0000
  C   C62       1.0  0.0257037180395656  0.8495722767032278  0.9391066857562578  1.0000
  C   C63       1.0  0.0257006921741549  0.6504277443606412  0.4391062690353493  1.0000
  C   C64       1.0  0.9742963862519292  0.1504271281166893  0.06089474352420154  1.0000
  N   N1        1.0  0.6563959403696205  0.1915286398097393  0.1817994106301839  1.0000
  N   N2        1.0  0.3436021466782648  0.691528342219698  0.3182010333775978  1.0000
  N   N3        1.0  0.3436041639218743  0.8084707650101778  0.8181998962740593  1.0000
  N   N4        1.0  0.6563959403696205  0.3084710626002193  0.6817987031714451  1.0000
  N   N5        1.0  0.7416517155513205  0.9594114678333059  0.2145516170122193  1.0000
  N   N6        1.0  0.2583473801183729  0.45941085158935385  0.2854489659025318  1.0000
  N   N7        1.0  0.2583493973619754  0.0405879369866113  0.7854478287989934  1.0000
  N   N8        1.0  0.7416527241731217  0.5405885532305633  0.7145503410017114  1.0000
  N   N9        1.0  0.0012476651708866  0.0375969583136992  0.34295610252738845  1.0000
  N   N10       1.0  0.9987524391206082  0.537594833055664  0.1570467416705412  1.0000
  N   N11       1.0  0.9987524391206082  0.9624042741742117  0.6570453267530709  1.0000
  N   N12       1.0  0.0012476651708866  0.4624027440962594  0.842954687609911  1.0000
  N   N13       1.0  0.21959108732013283  0.009292777917750102  0.45295141724249527  1.0000
  N   N14       1.0  0.7804100255931702  0.5092915664937082  0.04705085840367218  1.0000
  N   N15       1.0  0.7804100255931702  0.9907084545701609  0.5470501509449334  1.0000
  N   N16       1.0  0.2195900786983245  0.49070783832620896  0.9529498634180484  1.0000
  N   N17       1.0  0.2874027484108623  0.8890818895731131  0.6028659989866654  1.0000
  N   N18       1.0  0.7125983645024405  0.3890794456611673  0.8971362766594949  1.0000
  N   N19       1.0  0.7126003817460429  0.1109220844167851  0.39713655447343393  1.0000
  N   N20       1.0  0.2874017397890541  0.6109181314907559  0.10286586007970301  1.0000
  N   N21       1.0  0.9019570218854298  0.2975836443573172  0.31775308949805486  1.0000
  N   N22       1.0  0.09804207378425643  0.7975833467672828  0.1822474934166962  1.0000
  N   N23       1.0  0.0980430824060647  0.7024175881305936  0.6822462174061882  1.0000
  N   N24       1.0  0.9019550046418274  0.2024151442186408  0.8177535191428547  1.0000
  N   N25       1.0  0.0221967400289103  0.3473336810000731  0.4823680023402375  1.0000
  N   N26       1.0  0.9778023556407831  0.8473324695760385  0.01763258057451368  1.0000
  N   N27       1.0  0.9777993297753724  0.6526693791558317  0.5176321638536052  1.0000
  N   N28       1.0  0.0221977486507114  0.1526678490778792  0.9823681412472067  1.0000
  N   N29       1.0  0.9436796714076722  0.3538136778743777  0.6370207740119228  1.0000
  N   N30       1.0  0.0563204328838225  0.8538133802843362  0.8629799478097979  1.0000
  N   N31       1.0  0.05631841564022011  0.6461848131115461  0.362979669995859  1.0000
  N   N32       1.0  0.9436806800294733  0.1461860245355808  0.13702162037762378  1.0000
