data_image0
_chemical_formula_structural       Cu12H72C84N28
_chemical_formula_sum              "Cu12 H72 C84 N28"
_cell_length_a       29.039849095978255
_cell_length_b       29.786876660302127
_cell_length_c       30.478674285232316
_cell_angle_alpha    87.82356245986395
_cell_angle_beta     87.35751958274099
_cell_angle_gamma    89.5559241375342

_space_group_name_H-M_alt    "P 1"
_space_group_IT_number       1

loop_
  _space_group_symop_operation_xyz
  'x, y, z'

loop_
  _atom_site_type_symbol
  _atom_site_label
  _atom_site_symmetry_multiplicity
  _atom_site_fract_x
  _atom_site_fract_y
  _atom_site_fract_z
  _atom_site_occupancy
  Cu  Cu1       1.0  0.1222546880084323  0.9150765971286319  0.1458232906395693  1.0000
  Cu  Cu2       1.0  0.1590658148535056  0.8748434913432989  0.05583488186724849  1.0000
  Cu  Cu3       1.0  0.06985297357736188  0.8337674857509472  0.10617469639937127  1.0000
  Cu  Cu4       1.0  0.8787707581020996  0.5743872437172329  0.6633031313567699  1.0000
  Cu  Cu5       1.0  0.8350536493611289  0.6228868247316016  0.5805573736016213  1.0000
  Cu  Cu6       1.0  0.9209632508504486  0.6661652799657531  0.6245437971487391  1.0000
  Cu  Cu7       1.0  0.6269346041291187  0.08722190917947611  0.3407262755178593  1.0000
  Cu  Cu8       1.0  0.6742400157931671  0.13437422366884993  0.41835666667446253  1.0000
  Cu  Cu9       1.0  0.5816052784293221  0.17492993570489554  0.3806727292442816  1.0000
  Cu  Cu10      1.0  0.37607611067448943  0.4172347236775663  0.845392435832899  1.0000
  Cu  Cu11      1.0  0.33161692552154426  0.37594950033918206  0.9347220053154713  1.0000
  Cu  Cu12      1.0  0.42142028756686767  0.3311134028455315  0.8902498164299075  1.0000
  H   H1        1.0  0.19585573745779072  0.9915183491514198  0.1565943172190174  1.0000
  H   H2        1.0  0.2414712505687007  0.9416899068507832  0.029997819660735583  1.0000
  H   H3        1.0  0.9864567950147389  0.8214130169893039  0.17724620575727104  1.0000
  H   H4        1.0  0.05896247886328613  0.9320580177507481  0.2306375218527279  1.0000
  H   H5        1.0  0.1711183021461338  0.8080907145642655  0.9769291335602333  1.0000
  H   H6        1.0  0.04781278099458321  0.7544190400017642  0.04449741593260371  1.0000
  H   H7        1.0  0.814576000119459  0.4886744302644247  0.676018712433283  1.0000
  H   H8        1.0  0.7553191482326017  0.554757174970604  0.5625180777945147  1.0000
  H   H9        1.0  0.0003263646351783002  0.6805535151289491  0.6916324642595272  1.0000
  H   H10       1.0  0.9425289859914303  0.5544811812056166  0.7429854489818837  1.0000
  H   H11       1.0  0.8173745259371901  0.6958434616921066  0.5048911820070786  1.0000
  H   H12       1.0  0.9364275783083472  0.7529716483321282  0.5621686130813259  1.0000
  H   H13       1.0  0.6964532851252445  0.0069923401833734  0.323736868015601  1.0000
  H   H14       1.0  0.7620941394574389  0.07073478948701252  0.4297890319339359  1.0000
  H   H15       1.0  0.4958900494321058  0.1882946114026893  0.3201277584924683  1.0000
  H   H16       1.0  0.5559769410841042  0.066478654792526  0.268463778636189  1.0000
  H   H17       1.0  0.6912531333903831  0.20204605516760668  0.4931216167694998  1.0000
  H   H18       1.0  0.5645166099456774  0.2570861121725089  0.44327435119601694  1.0000
  H   H19       1.0  0.3068398811820218  0.4983106637855458  0.8270689055453104  1.0000
  H   H20       1.0  0.2468605167928359  0.44208643313398  0.9497191431724161  1.0000
  H   H21       1.0  0.5048410350263666  0.3132026997454033  0.8207475234501587  1.0000
  H   H22       1.0  0.44386528607807213  0.43335253339471785  0.7627513481735733  1.0000
  H   H23       1.0  0.31675924631557717  0.3113097508162994  0.019807975882386603  1.0000
  H   H24       1.0  0.4398942049284642  0.252551734018482  0.9594298955931748  1.0000
  H   H25       1.0  0.335860958787265  0.07900920542269321  0.08018525279184273  1.0000
  H   H26       1.0  0.2735720483521363  0.031551201983418806  0.15375999669848284  1.0000
  H   H27       1.0  0.3356553168866371  0.08032837203379731  0.18184160697181542  1.0000
  H   H28       1.0  0.28649409951489707  0.019832134945346504  0.053944734749237014  1.0000
  H   H29       1.0  0.6626666432649557  0.41704259889679923  0.5548686050366315  1.0000
  H   H30       1.0  0.7108255093951075  0.4835660218426555  0.5564726603775088  1.0000
  H   H31       1.0  0.6589338594958037  0.42050309078736353  0.6560224651322671  1.0000
  H   H32       1.0  0.7378049851068412  0.4457561248625411  0.6470618185565228  1.0000
  H   H33       1.0  0.8372532462581574  0.9163416655278311  0.30832294984508474  1.0000
  H   H34       1.0  0.7696905298889762  0.9648604856697817  0.31352551982018173  1.0000
  H   H35       1.0  0.8317261344533123  0.9136914487516706  0.4097272808640042  1.0000
  H   H36       1.0  0.8063022604088985  0.9921303007953457  0.4016939246371649  1.0000
  H   H37       1.0  0.14566509443785242  0.5755198775698034  0.9497883219568166  1.0000
  H   H38       1.0  0.19868185487402462  0.511714724057434  0.9515549020013622  1.0000
  H   H39       1.0  0.14832080142141282  0.5649832953647548  0.8492151054743218  1.0000
  H   H40       1.0  0.22667202503397024  0.5413818011136159  0.8563485658959067  1.0000
  H   H41       1.0  0.9187505220624034  0.946371450004307  0.3287792141705097  1.0000
  H   H42       1.0  0.9869413885350939  0.9429559490500595  0.27774848132833807  1.0000
  H   H43       1.0  0.9318764132597582  0.8436031447425094  0.3363131204004404  1.0000
  H   H44       1.0  0.9482939991189526  0.8506139745872047  0.2574150030410465  1.0000
  H   H45       1.0  0.5844552363048906  0.4424012853781535  0.6669602055577287  1.0000
  H   H46       1.0  0.5181998106361548  0.4408178104824003  0.7193117407819827  1.0000
  H   H47       1.0  0.568171976115977  0.3404591937053496  0.6619156229682092  1.0000
  H   H48       1.0  0.5472107053258598  0.34304835201623257  0.7398910521345315  1.0000
  H   H49       1.0  0.0702950852627637  0.5466388197816985  0.8418721640392377  1.0000
  H   H50       1.0  0.0093401804936022  0.549616016828999  0.7899231770283848  1.0000
  H   H51       1.0  0.06161168334173793  0.6501212528387584  0.8418850896820942  1.0000
  H   H52       1.0  0.04125580235321991  0.6461995565953063  0.7667611798745994  1.0000
  H   H53       1.0  0.4156889555238976  0.0557713599174221  0.1853862338840813  1.0000
  H   H54       1.0  0.48146593411456  0.058335080457411  0.23209552501596423  1.0000
  H   H55       1.0  0.42812740497087287  0.15845504658030762  0.1727148512648071  1.0000
  H   H56       1.0  0.4512586426175461  0.1556831241369565  0.2484684046746679  1.0000
  H   H57       1.0  0.0370875301308615  0.6580307699842578  0.916971010546277  1.0000
  H   H58       1.0  0.0390387403421357  0.7103949909778678  0.9768790509721299  1.0000
  H   H59       1.0  0.14260893236834707  0.6520454022829938  0.9255365806271527  1.0000
  H   H60       1.0  0.13782691235952882  0.7305470502378169  0.9412229608337626  1.0000
  H   H61       1.0  0.694866831517196  0.3388969308962261  0.5790860711553449  1.0000
  H   H62       1.0  0.6950953036346592  0.2719971053140426  0.5347683564705576  1.0000
  H   H63       1.0  0.59053320473042  0.32134311685525324  0.5915676469759321  1.0000
  H   H64       1.0  0.5961214683582768  0.3011942326549786  0.5151188828891834  1.0000
  H   H65       1.0  0.44899036895051136  0.16104847815049791  0.0967330311021328  1.0000
  H   H66       1.0  0.4469928383469083  0.2100570681501637  0.0307518977788561  1.0000
  H   H67       1.0  0.3429402716077306  0.15854859227227544  0.0919334050500211  1.0000
  H   H68       1.0  0.34899056399625294  0.23484179509551956  0.0646436235051056  1.0000
  H   H69       1.0  0.8074614434399126  0.8408526831629147  0.42104437011984436  1.0000
  H   H70       1.0  0.8075811745638435  0.7732626126609574  0.4694772815687358  1.0000
  H   H71       1.0  0.9117692475148476  0.8216774910736859  0.4083270998734391  1.0000
  H   H72       1.0  0.9074547551024281  0.7992279334373793  0.48577201813510834  1.0000
  C   C1        1.0  0.20171043204916123  0.9736216878946564  0.1264677778143621  1.0000
  C   C2        1.0  0.23482829205445205  0.9811416804550747  0.09177944879174049  1.0000
  C   C3        1.0  0.22446363500859695  0.9485579587462637  0.0615259080537029  1.0000
  C   C4        1.0  0.009691242353163406  0.8482500385455508  0.18452449940165394  1.0000
  C   C5        1.0  0.0073267821661389025  0.8775937299003758  0.21971385499342228  1.0000
  C   C6        1.0  0.046381420236258505  0.9049728120730548  0.2117043525080433  1.0000
  C   C7        1.0  0.1412307909753707  0.8005742261512836  0.9986118096424831  1.0000
  C   C8        1.0  0.10831686386050883  0.7664398861420452  0.9960975162586507  1.0000
  C   C9        1.0  0.07806718389733192  0.7732499502342095  0.032771690912838394  1.0000
  C   C10       1.0  0.8054711708913234  0.5105146317683663  0.6483852823387367  1.0000
  C   C11       1.0  0.7702596936285816  0.5056759866579411  0.6187044249814946  1.0000
  C   C12       1.0  0.7752844200285197  0.5439621038048017  0.5902815536948083  1.0000
  C   C13       1.0  0.9809380497890888  0.6498787091990438  0.6986197332168445  1.0000
  C   C14       1.0  0.9864079145567289  0.6167332988512017  0.7321729230478411  1.0000
  C   C15       1.0  0.9517239896976835  0.5854047428430249  0.7248543831075978  1.0000
  C   C16       1.0  0.8462452653148207  0.7042506690673918  0.5243411726063698  1.0000
  C   C17       1.0  0.8762796268581428  0.7412240268185714  0.5197666784438509  1.0000
  C   C18       1.0  0.9073486018172403  0.7330584243512134  0.5533108866727404  1.0000
  C   C19       1.0  0.7070090848282718  0.0280681057696839  0.3496857107070284  1.0000
  C   C20       1.0  0.7457087702727493  0.024292117746654195  0.3758784601588019  1.0000
  C   C21       1.0  0.7401918126626086  0.0605107996706522  0.4040645205541723  1.0000
  C   C22       1.0  0.5163805755186673  0.15871973253177168  0.3125106047674535  1.0000
  C   C23       1.0  0.5095219111669281  0.12639868567406154  0.28098957190717044  1.0000
  C   C24       1.0  0.5467045053746347  0.09630653815402472  0.286300898053625  1.0000
  C   C25       1.0  0.6603657440396377  0.21025638967574167  0.475704039676522  1.0000
  C   C26       1.0  0.6280090419621231  0.24514497425634124  0.4822238549468097  1.0000
  C   C27       1.0  0.595535176251076  0.23807298536913638  0.4503260161544205  1.0000
  C   C28       1.0  0.2979637952502401  0.4790986394711255  0.8572314993845183  1.0000
  C   C29       1.0  0.26132973782206653  0.4856249207908263  0.8882347480920956  1.0000
  C   C30       1.0  0.26738281677399567  0.450695831608968  0.9199930968324637  1.0000
  C   C31       1.0  0.4842879187728998  0.34259974848341573  0.8122403498445224  1.0000
  C   C32       1.0  0.4902611761530694  0.37356983054266385  0.776417490731589  1.0000
  C   C33       1.0  0.4535629545979135  0.40419725230851367  0.7827538920080812  1.0000
  C   C34       1.0  0.3467352316517562  0.30234879301195144  0.999282035778144  1.0000
  C   C35       1.0  0.3789841884605778  0.26747508488151084  0.005714446942114612  1.0000
  C   C36       1.0  0.40978478737418567  0.2724070140035835  0.9687801576370275  1.0000
  C   C37       1.0  0.3439345149386527  0.09014492271946041  0.1475232664450772  1.0000
  C   C38       1.0  0.3235202323804671  0.07056391630158744  0.11392700104461541  1.0000
  C   C39       1.0  0.28751886764609225  0.03798495681724749  0.12011432200576169  1.0000
  C   C40       1.0  0.27100276443643884  0.0141794540506623  0.08710856745208422  1.0000
  C   C41       1.0  0.6530270160891974  0.4080692208788861  0.623493548933574  1.0000
  C   C42       1.0  0.6735193189691345  0.4275396365788425  0.5867363383070553  1.0000
  C   C43       1.0  0.708091859970935  0.46202031141619676  0.5863507283296271  1.0000
  C   C44       1.0  0.7375426960775329  0.469409658718547  0.6187069400793348  1.0000
  C   C45       1.0  0.8448816789812669  0.9074308847143797  0.37633101366455424  1.0000
  C   C46       1.0  0.8258823733637686  0.9275958765206269  0.34078566129826265  1.0000
  C   C47       1.0  0.7909717499279554  0.9621629725929568  0.3422209211604397  1.0000
  C   C48       1.0  0.7828080087356782  0.991715053120629  0.3746588042386065  1.0000
  C   C49       1.0  0.14042823600026114  0.5794532891465495  0.8810763180686578  1.0000
  C   C50       1.0  0.15962117035913792  0.5634572429910564  0.9184405152435602  1.0000
  C   C51       1.0  0.19594370785436155  0.5302670745095811  0.9200812499933946  1.0000
  C   C52       1.0  0.22676783341963616  0.5206538730044202  0.8867768323118455  1.0000
  C   C53       1.0  0.9160811549705913  0.8763767475493582  0.3419920606287975  1.0000
  C   C54       1.0  0.932134963101497  0.913567571213683  0.3193748399307452  1.0000
  C   C55       1.0  0.965918151665889  0.9127383425296784  0.2832536804943473  1.0000
  C   C56       1.0  0.9722729343835824  0.8788613407800342  0.25485301385170095  1.0000
  C   C57       1.0  0.5849035324503052  0.37293205113087424  0.6558964696678515  1.0000
  C   C58       1.0  0.5704116583333346  0.4097197905627398  0.677895717825443  1.0000
  C   C59       1.0  0.5365206688118462  0.4090822965178447  0.7139641088535669  1.0000
  C   C60       1.0  0.5262761876609902  0.3736628735209138  0.742099505242571  1.0000
  C   C61       1.0  0.07515236192703163  0.6164709894709475  0.8489400061779051  1.0000
  C   C62       1.0  0.059583444362651505  0.5797153344342053  0.8291875416356049  1.0000
  C   C63       1.0  0.02818691532278451  0.5807747319049524  0.7938802288457582  1.0000
  C   C64       1.0  0.020235086547721406  0.6159795839554433  0.7654583157143051  1.0000
  C   C65       1.0  0.41281075380265264  0.1253025103740271  0.1705881512981051  1.0000
  C   C66       1.0  0.4283787580783597  0.08871586366893071  0.19363524492445092  1.0000
  C   C67       1.0  0.4624190743703451  0.0897403513131536  0.2265193037704378  1.0000
  C   C68       1.0  0.47264051543810853  0.125352704122669  0.2508542155753162  1.0000
  C   C69       1.0  0.1088876113798065  0.6467494702796089  0.9122697154841575  1.0000
  C   C70       1.0  0.07063887947929  0.6691058168741294  0.9271170610617006  1.0000
  C   C71       1.0  0.07106741126548143  0.7052030837598624  0.9573090952018504  1.0000
  C   C72       1.0  0.10710773909303842  0.7328549312269106  0.9632371692806458  1.0000
  C   C73       1.0  0.6234071835539154  0.33819711633115185  0.5946322691924236  1.0000
  C   C74       1.0  0.6618538485857997  0.32405732835260187  0.5720916591627088  1.0000
  C   C75       1.0  0.6624709029692611  0.29024158022641444  0.5394825134401631  1.0000
  C   C76       1.0  0.6273383720472766  0.2803858606295506  0.5135242058807563  1.0000
  C   C77       1.0  0.3770054663757989  0.15281193806986695  0.1048746077477531  1.0000
  C   C78       1.0  0.41539402396138314  0.17260939705344208  0.0859340061406684  1.0000
  C   C79       1.0  0.4151036148868031  0.20682428582140489  0.051201607002077806  1.0000
  C   C80       1.0  0.37956948016269376  0.2352070639103943  0.04224885888847751  1.0000
  C   C81       1.0  0.8789675664836097  0.8393430665768948  0.40509480126504377  1.0000
  C   C82       1.0  0.8405845734025094  0.8257748308640275  0.4291037108021882  1.0000
  C   C83       1.0  0.840268566845346  0.790989355584486  0.46331721253586267  1.0000
  C   C84       1.0  0.8761534242177619  0.7788888106981633  0.4884454596595305  1.0000
  N   N1        1.0  0.6211801940256054  0.3728929130774077  0.6243607333387972  1.0000
  N   N2        1.0  0.3769975106828198  0.1239106388385309  0.14184537914640324  1.0000
  N   N3        1.0  0.10908806227570982  0.6150782882034634  0.8797911353230816  1.0000
  N   N4        1.0  0.8804312360028848  0.8753316211756541  0.3745339600049604  1.0000
  N   N5        1.0  0.1884024722590354  0.9235533039606665  0.0771522897182493  1.0000
  N   N6        1.0  0.17415305741867831  0.9393116328964838  0.11739165623761491  1.0000
  N   N7        1.0  0.0696684227856039  0.8929101682270612  0.1747150999006735  1.0000
  N   N8        1.0  0.04689372345421821  0.8576879087609514  0.1577187138008398  1.0000
  N   N9        1.0  0.0919375419562698  0.8086469563199119  0.05491661611596041  1.0000
  N   N10       1.0  0.13116571168430372  0.8257282333072311  0.03368542054162299  1.0000
  N   N11       1.0  0.8106510536258541  0.569114815370405  0.602193426922341  1.0000
  N   N12       1.0  0.8294625812427513  0.5483623779281855  0.6383039655942043  1.0000
  N   N13       1.0  0.9279757545587801  0.598911389931324  0.6897440761662637  1.0000
  N   N14       1.0  0.9460763865266699  0.6389756684545774  0.6733553235276872  1.0000
  N   N15       1.0  0.896408784687033  0.6946283963512202  0.5761133175161248  1.0000
  N   N16       1.0  0.858476125976047  0.6767175399133406  0.5580016418295842  1.0000
  N   N17       1.0  0.7015742520868501  0.0839171144957547  0.3951571677098897  1.0000
  N   N18       1.0  0.6810059345028421  0.0636700684207625  0.3613679470224795  1.0000
  N   N19       1.0  0.5731369120368016  0.10971041832230102  0.31849015374829287  1.0000
  N   N20       1.0  0.5542936114073456  0.14846735673583566  0.3348711907511516  1.0000
  N   N21       1.0  0.607759664055344  0.2021186174244748  0.4267259160376753  1.0000
  N   N22       1.0  0.6480508115770789  0.18486488987792876  0.4425718908638814  1.0000
  N   N23       1.0  0.304715476780224  0.4258396340664988  0.9087191274696027  1.0000
  N   N24       1.0  0.3237845191947529  0.44346438060304655  0.8697386049928754  1.0000
  N   N25       1.0  0.4282763459051608  0.392411541526542  0.8194684672060291  1.0000
  N   N26       1.0  0.44732691623314486  0.3541839941850639  0.8379095785517379  1.0000
  N   N27       1.0  0.39685024861995544  0.30746385070528953  0.9428645745593656  1.0000
  N   N28       1.0  0.35768593725264713  0.3261818711501476  0.9617804257947213  1.0000
