data_image0
_chemical_formula_structural       Ag4H26C48O8F28
_chemical_formula_sum              "Ag4 H26 C48 O8 F28"
_cell_length_a       10.806928219071
_cell_length_b       11.103590176451007
_cell_length_c       12.437651589992287
_cell_angle_alpha    102.19103334392713
_cell_angle_beta     99.12522707098783
_cell_angle_gamma    115.00305087078053

_space_group_name_H-M_alt    "P 1"
_space_group_IT_number       1

loop_
  _space_group_symop_operation_xyz
  'x, y, z'

loop_
  _atom_site_type_symbol
  _atom_site_label
  _atom_site_symmetry_multiplicity
  _atom_site_fract_x
  _atom_site_fract_y
  _atom_site_fract_z
  _atom_site_occupancy
  Ag  Ag1       1.0  0.8876793312773187  0.572960425654941  0.4327124561776897  1.0000
  Ag  Ag2       1.0  0.11231943652824583  0.42703801172686456  0.5672867650166185  1.0000
  Ag  Ag3       1.0  0.6886276016142644  0.637894608113271  0.5398276125746407  1.0000
  Ag  Ag4       1.0  0.3113731192071896  0.36210592129464914  0.4601714782571379  1.0000
  H   H1        1.0  0.7949581596911557  0.7498379076491234  0.3036451964536937  1.0000
  H   H2        1.0  0.20504255749563777  0.25016261552392643  0.6963546966976397  1.0000
  H   H3        1.0  0.6909806021707822  0.837061693391128  0.44291659353477547  1.0000
  H   H4        1.0  0.3090196040183812  0.16293777802435025  0.5570838301210586  1.0000
  H   H5        1.0  0.06293809600747845  0.9609244112426798  0.716810630307187  1.0000
  H   H6        1.0  0.9370621138163386  0.039075066407662014  0.28318899102909273  1.0000
  H   H7        1.0  0.17064557409448602  0.8818464368973551  0.5758608724408562  1.0000
  H   H8        1.0  0.829354635729338  0.11815304075298634  0.42413874889542313  1.0000
  H   H9        1.0  0.16360066220467223  0.7984309314763467  0.36519688730836464  1.0000
  H   H10       1.0  0.8363991203268312  0.20156959695087556  0.6348028775160659  1.0000
  H   H11       1.0  0.013934802663435233  0.7621089676305675  0.25683176498712623  1.0000
  H   H12       1.0  0.9860654071603888  0.2378905100197812  0.7431678563491533  1.0000
  H   H13       1.0  0.7214404860036581  0.9769907200436097  0.6381549404389589  1.0000
  H   H14       1.0  0.2785592965278525  0.023009808383619705  0.36184482438547155  1.0000
  H   H15       1.0  0.8651547513024623  0.017890189155480102  0.75425356063149  1.0000
  H   H16       1.0  0.13484545852135463  0.9821092884948617  0.24574606070478927  1.0000
  H   H17       1.0  0.5907906066129129  0.9731534177879699  0.19847499168527358  1.0000
  H   H18       1.0  0.4092086721902816  0.0268460713514145  0.8015236990045338  1.0000
  H   H19       1.0  0.38006511971720874  0.6106270463725283  0.30522530272323684  1.0000
  H   H20       1.0  0.6199332207960426  0.3893724417861649  0.6947740619592225  1.0000
  H   H21       1.0  0.4810460427814079  0.7157847546938358  0.16174846657180816  1.0000
  H   H22       1.0  0.5189527286588175  0.28421368892284  0.8382499523029381  1.0000
  H   H23       1.0  0.32583575607564796  0.6380322901674021  0.4922108913030031  1.0000
  H   H24       1.0  0.674162584437603  0.3619671979912909  0.5077884733794563  1.0000
  H   H25       1.0  0.6636056632095375  0.2105301841930185  0.32646025422069164  1.0000
  H   H26       1.0  0.3363936119589964  0.7894692987114951  0.6735392387886777  1.0000
  C   C1        1.0  0.853207841088853  0.7917832941457521  0.3942781885582036  1.0000
  C   C2        1.0  0.1467923651003105  0.20821617726972624  0.6057222350976305  1.0000
  C   C3        1.0  0.7911122219383204  0.8371978765682474  0.47515039163192807  1.0000
  C   C4        1.0  0.20888849161381273  0.16280264036994654  0.5248503038389744  1.0000
  C   C5        1.0  0.8722434390219007  0.9133037866633205  0.5906348339220956  1.0000
  C   C6        1.0  0.12775634350960272  0.08669674176390885  0.40936493090232773  1.0000
  C   C7        1.0  0.0030220048805773554  0.9136296830641939  0.6264576589316917  1.0000
  C   C8        1.0  0.9969782013085863  0.0863697883512842  0.3735427647241495  1.0000
  C   C9        1.0  0.06357357542479045  0.8681820567919732  0.5470900477715902  1.0000
  C   C10       1.0  0.936426630764373  0.13181741462350527  0.45291037588425104  1.0000
  C   C11       1.0  0.996074289837466  0.8193225069719221  0.4275051016376566  1.0000
  C   C12       1.0  0.003924985331067899  0.1806769759325988  0.5724943913717127  1.0000
  C   C13       1.0  0.08315040304922405  0.8314636256057568  0.34249898221086994  1.0000
  C   C14       1.0  0.9168503105029159  0.16853689133242974  0.6575017132600324  1.0000
  C   C15       1.0  0.8363459360998746  0.013278500393667507  0.6642636002269527  1.0000
  C   C16       1.0  0.1636547774522584  0.9867220165445193  0.3357370952439427  1.0000
  C   C17       1.0  0.5549584296858683  0.40188865572615395  0.2984531684816788  1.0000
  C   C18       1.0  0.4450408418480123  0.5981108209434965  0.7015471268472526  1.0000
  C   C19       1.0  0.9209674218845052  0.5789546291152804  0.6886961495468428  1.0000
  C   C20       1.0  0.07903380629992546  0.42104694581534136  0.311303213099997  1.0000
  C   C21       1.0  0.4347003743026007  0.28271200864224266  0.19150205133018972  1.0000
  C   C22       1.0  0.5652988972312727  0.717287468027408  0.8084982439987344  1.0000
  C   C23       1.0  0.40034846086787457  0.33908520124158065  0.09227126066084422  1.0000
  C   C24       1.0  0.5996508143006593  0.6609142816629402  0.9077282323485252  1.0000
  C   C25       1.0  0.2735557450783475  0.23118640535152224  0.9850526281515217  1.0000
  C   C26       1.0  0.7264444647454766  0.7688130722988192  0.014946993184757664  1.0000
  C   C27       1.0  0.9968963328162131  0.5849035564422423  0.8091543543082126  1.0000
  C   C28       1.0  0.003104380735926807  0.4150969604959443  0.19084634116268265  1.0000
  C   C29       1.0  0.11621884663269823  0.7362906423679195  0.8788015539761818  1.0000
  C   C30       1.0  0.8837813595564654  0.26370882904755893  0.12119886967965242  1.0000
  C   C31       1.0  0.1999055931743712  0.7573580082988799  0.0017070384957519774  1.0000
  C   C32       1.0  0.8000931709965328  0.24264042284806217  0.998292985018111  1.0000
  C   C33       1.0  0.5477106641164583  0.9273835430958077  0.2621043528218437  1.0000
  C   C34       1.0  0.45229005307033526  0.0726169800772496  0.7378955403294967  1.0000
  C   C35       1.0  0.5543933455069378  0.016018518848333902  0.36452605237032293  1.0000
  C   C36       1.0  0.4456040639856837  0.9839809807993947  0.6354723816656644  1.0000
  C   C37       1.0  0.4965609162339104  0.9561506534211831  0.4475499544442627  1.0000
  C   C38       1.0  0.5034392935899135  0.043848824229158416  0.5524496668920094  1.0000
  C   C39       1.0  0.43218844273232543  0.808003903999918  0.42517162233529154  1.0000
  C   C40       1.0  0.567810317803918  0.19199452091216074  0.5748292034981333  1.0000
  C   C41       1.0  0.42825171735379547  0.7234082327804717  0.3217098066435399  1.0000
  C   C42       1.0  0.5717456921388262  0.27659126686726415  0.6782886273924548  1.0000
  C   C43       1.0  0.48579517425616087  0.7830824348051311  0.2415665667832841  1.0000
  C   C44       1.0  0.5142031662570828  0.2169170533535621  0.7584327978991754  1.0000
  C   C45       1.0  0.3749354536445111  0.7511343680334266  0.5099642381847858  1.0000
  C   C46       1.0  0.6250614448504805  0.24886407985673029  0.49003472635570233  1.0000
  C   C47       1.0  0.6189211718934615  0.16498744904600934  0.3894997115866517  1.0000
  C   C48       1.0  0.38107810327507263  0.8350120338585119  0.6104997814227178  1.0000
  O   O1        1.0  0.6779787475102096  0.4361405650787519  0.28892133665547703  1.0000
  O   O2        1.0  0.32202052402366393  0.5638589115908986  0.711078958673454  1.0000
  O   O3        1.0  0.5156072219681178  0.4499998311749567  0.3804158790623263  1.0000
  O   O4        1.0  0.48439205320041606  0.5499996517295642  0.619583613947043  1.0000
  O   O5        1.0  0.8224780186489226  0.6102172200504513  0.688245386072616  1.0000
  O   O6        1.0  0.1775221911748943  0.38978225759989027  0.3117542352636562  1.0000
  O   O7        1.0  0.9693466486895089  0.5470884715835781  0.6068249591848841  1.0000
  O   O8        1.0  0.030657543602082147  0.452917280183705  0.393175619049103  1.0000
  F   F1        1.0  0.31175501477745365  0.2146586075961494  0.22058727656919794  1.0000
  F   F2        1.0  0.6882451877770491  0.7853408575844655  0.7794139494061982  1.0000
  F   F3        1.0  0.47614032114287846  0.18534852717686334  0.14998376993160895  1.0000
  F   F4        1.0  0.5238599687516015  0.8146530467730743  0.8500162667078756  1.0000
  F   F5        1.0  0.37025973873660684  0.4445459572539647  0.1342925651805871  1.0000
  F   F6        1.0  0.6297400437948966  0.5554545711732645  0.8657071996438434  1.0000
  F   F7        1.0  0.5180264515636425  0.39263102730829064  0.05405401247434584  1.0000
  F   F8        1.0  0.48197468201148996  0.6073684263832817  0.9459481441475219  1.0000
  F   F9        1.0  0.259947520384415  0.2975829471549147  0.9071896929561165  1.0000
  F   F10       1.0  0.7400541350923291  0.7024175769988261  0.09280952620257209  1.0000
  F   F11       1.0  0.29823377443760535  0.12583735164605514  0.9349553304368573  1.0000
  F   F12       1.0  0.7017660080938981  0.8741631767811743  0.06504443438757339  1.0000
  F   F13       1.0  0.14961901584336354  0.17580228714965077  0.011541308569690007  1.0000
  F   F14       1.0  0.8503807703228006  0.8241982475124419  0.9884576539351785  1.0000
  F   F15       1.0  0.9011824089181744  0.5421316235794081  0.8708781983746123  1.0000
  F   F16       1.0  0.09881593522973733  0.45786787081414826  0.12912036398828525  1.0000
  F   F17       1.0  0.057617300952799225  0.49791100573354924  0.7990399465800382  1.0000
  F   F18       1.0  0.9423814668527654  0.5020874316482563  0.20095927461426302  1.0000
  F   F19       1.0  0.057983283764400505  0.8245667848080915  0.889843177297138  1.0000
  F   F20       1.0  0.942016411427133  0.17543163484981514  0.11015777686319694  1.0000
  F   F21       1.0  0.21337732566627907  0.778091280805903  0.81799725956693  1.0000
  F   F22       1.0  0.7866228805228843  0.22190819060957528  0.18200316408890427  1.0000
  F   F23       1.0  0.3019564629241671  0.8926095833364304  0.04798525498272716  1.0000
  F   F24       1.0  0.6980422939774229  0.10738883534077813  0.9520163731702596  1.0000
  F   F25       1.0  0.11266468854941546  0.7289976625119794  0.07034276126385924  1.0000
  F   F26       1.0  0.8873330572608893  0.2709986713546827  0.9296575209394506  1.0000
  F   F27       1.0  0.26236887807199594  0.6747446852955081  0.9983816273090869  1.0000
  F   F28       1.0  0.7376303861925633  0.32525477890441573  0.0016202726589539724  1.0000
