data_image0
_chemical_formula_structural       Zn2Cr4H48C66N4O20
_chemical_formula_sum              "Zn2 Cr4 H48 C66 N4 O20"
_cell_length_a       12.007296276867363
_cell_length_b       12.007293428521104
_cell_length_c       12.259619197717186
_cell_angle_alpha    72.9932825743921
_cell_angle_beta     72.9934973747564
_cell_angle_gamma    74.73632902835288

_space_group_name_H-M_alt    "P 1"
_space_group_IT_number       1

loop_
  _space_group_symop_operation_xyz
  'x, y, z'

loop_
  _atom_site_type_symbol
  _atom_site_label
  _atom_site_symmetry_multiplicity
  _atom_site_fract_x
  _atom_site_fract_y
  _atom_site_fract_z
  _atom_site_occupancy
  Zn  Zn1       1.0  0.07963024387715478  0.22427595682912477  0.17132615319932404  1.0000
  Zn  Zn2       1.0  0.7757235571129613  0.9203688572010904  0.8286759061632479  1.0000
  Cr  Cr1       1.0  0.9979172189957808  0.7389423931657076  0.2823376228831479  1.0000
  Cr  Cr2       1.0  0.26105876827192287  0.0020801346040074  0.7176594512769866  1.0000
  Cr  Cr3       1.0  0.2456013948004596  0.5189787691257735  0.7595981207307574  1.0000
  Cr  Cr4       1.0  0.4810254379541733  0.7543968017514687  0.24040180731913813  1.0000
  H   H1        1.0  0.21587905692109638  0.8440225761902909  0.16368153379072953  1.0000
  H   H2        1.0  0.15597716561853756  0.7841188683519462  0.8363167030181701  1.0000
  H   H3        1.0  0.23205291390875968  0.6420594663979527  0.1353380739830926  1.0000
  H   H4        1.0  0.3579412379768598  0.7679444298466933  0.864659613157741  1.0000
  H   H5        1.0  0.0545817748187076  0.5865080416881554  0.10870291450757463  1.0000
  H   H6        1.0  0.41349278061183287  0.9454166069090488  0.8912934130859186  1.0000
  H   H7        1.0  0.8651396861640567  0.734400538324877  0.10867357676463019  1.0000
  H   H8        1.0  0.26560175390031293  0.13485970750653556  0.8913215452690864  1.0000
  H   H9        1.0  0.8512355704914897  0.9389294263464548  0.13401254754669617  1.0000
  H   H10       1.0  0.061073944796973506  0.1487620606184166  0.8659848423830638  1.0000
  H   H11       1.0  0.02289757707883671  0.643424355441411  0.8989618908567252  1.0000
  H   H12       1.0  0.3565720593548534  0.9771043316177594  0.1010386166483317  1.0000
  H   H13       1.0  0.08157273436643928  0.7571430248081085  0.6923842516219593  1.0000
  H   H14       1.0  0.2428593944595008  0.9184264359682502  0.30761848088513943  1.0000
  H   H15       1.0  0.17588614114290377  0.6467489276214097  0.531966147966088  1.0000
  H   H16       1.0  0.35325700617920575  0.8241134312113233  0.4680325440033356  1.0000
  H   H17       1.0  0.19730984051646067  0.42722652629132796  0.5770711111484204  1.0000
  H   H18       1.0  0.5727783298358347  0.8026920399331345  0.42292764095437013  1.0000
  H   H19       1.0  0.13605585710153179  0.3147126531975887  0.7853684597167927  1.0000
  H   H20       1.0  0.6852891572399644  0.8639492655045233  0.21462950833507932  1.0000
  H   H21       1.0  0.8911615861374784  0.935554553677001  0.5829038001499214  1.0000
  H   H22       1.0  0.0644442865197163  0.10883659760047243  0.4170997070428157  1.0000
  H   H23       1.0  0.8371938636260909  0.020776225433870397  0.3896312867456826  1.0000
  H   H24       1.0  0.979227259375051  0.1628033682725487  0.6103710068822111  1.0000
  H   H25       1.0  0.5148891660869098  0.21927861487329642  0.5672022098584079  1.0000
  H   H26       1.0  0.7807225635898406  0.4851102887918799  0.4328000257560659  1.0000
  H   H27       1.0  0.5789155815725735  0.12198606684191303  0.7537150927984229  1.0000
  H   H28       1.0  0.8780122528953173  0.4210833380653511  0.2462884006870425  1.0000
  H   H29       1.0  0.7007029035538821  0.13173214800371372  0.2799471143969258  1.0000
  H   H30       1.0  0.8682691784604728  0.299295106582548  0.720056782477883  1.0000
  H   H31       1.0  0.5519207753314745  0.128022566130781  0.3602568553215661  1.0000
  H   H32       1.0  0.8719806755482792  0.4480769909747124  0.6397463089735496  1.0000
  H   H33       1.0  0.6720992072424109  0.34186750385329395  0.3001188396050837  1.0000
  H   H34       1.0  0.6581346732751856  0.32790263359662924  0.699879215833448  1.0000
  H   H35       1.0  0.5220296761087441  0.3394245031400658  0.3708902020908269  1.0000
  H   H36       1.0  0.6605796991466804  0.47797125160585097  0.6291089092228077  1.0000
  H   H37       1.0  0.5594774706948584  0.43711944429202987  0.15372717598384605  1.0000
  H   H38       1.0  0.5628799159504682  0.44052161694263253  0.846271313440731  1.0000
  H   H39       1.0  0.6417902190561621  0.3002394852589844  0.12244341568039369  1.0000
  H   H40       1.0  0.6997588088262532  0.3582094304657844  0.8775588599227432  1.0000
  H   H41       1.0  0.15971894248078664  0.3397557634459929  0.3159210416394203  1.0000
  H   H42       1.0  0.660244686362745  0.8402802862637561  0.6840806496893349  1.0000
  H   H43       1.0  0.3416850280224324  0.3882475735983846  0.3274428473189274  1.0000
  H   H44       1.0  0.6117516934826386  0.658315969183242  0.672558089306797  1.0000
  H   H45       1.0  0.5296975654091584  0.22462890438886526  0.03641038851249332  1.0000
  H   H46       1.0  0.7753702890086063  0.47030145824818687  0.9635925609535362  1.0000
  H   H47       1.0  0.33823913929673927  0.18692077935178017  0.033391293350028675  1.0000
  H   H48       1.0  0.8130784750065843  0.6617599393051989  0.9666113576213105  1.0000
  C   C1        1.0  0.031797440278125984  0.9047012636578843  0.15021865953159613  1.0000
  C   C2        1.0  0.09530065766785609  0.9682010217330799  0.8497783712158553  1.0000
  C   C3        1.0  0.1408471198623928  0.820462554955853  0.14923590471604345  1.0000
  C   C4        1.0  0.1795368320468711  0.8591509070703014  0.8507623164452198  1.0000
  C   C5        1.0  0.14959523866077262  0.7068318039517791  0.13367405189571002  1.0000
  C   C6        1.0  0.29316899591352563  0.8504016759668148  0.866323477767409  1.0000
  C   C7        1.0  0.049918165714004294  0.6751926730084817  0.11817425916837723  1.0000
  C   C8        1.0  0.3248091811474653  0.9500804026205782  0.8818215557588545  1.0000
  C   C9        1.0  0.9425568940478828  0.7586319905242787  0.11791851714273353  1.0000
  C   C10       1.0  0.24137101660483049  0.05744039363380439  0.8820787295418313  1.0000
  C   C11       1.0  0.9334077188610267  0.873366935685418  0.13372030201129795  1.0000
  C   C12       1.0  0.126635930436052  0.0665903586055592  0.8662773595180864  1.0000
  C   C13       1.0  0.0193183486945188  0.0261256976252326  0.16972432996363548  1.0000
  C   C14       1.0  0.9738761897376522  0.9806804349963232  0.8302757420782143  1.0000
  C   C15       1.0  0.04740937495462559  0.5903323060103958  0.3648376501714665  1.0000
  C   C16       1.0  0.4096686751532347  0.9525958544783107  0.6351590828292829  1.0000
  C   C17       1.0  0.8517246325825385  0.7262417102909425  0.3773743437443213  1.0000
  C   C18       1.0  0.2737555438316194  0.14827646398706656  0.6226241791201872  1.0000
  C   C19       1.0  0.02357264704354385  0.7978388386115967  0.3907651134684329  1.0000
  C   C20       1.0  0.2021630454593506  0.9764232917401047  0.6092328264886859  1.0000
  C   C21       1.0  0.0719087670246594  0.471149554206818  0.8561375952849488  1.0000
  C   C22       1.0  0.5288486689421604  0.9280955503115322  0.14386289197369004  1.0000
  C   C23       1.0  0.05779489392225659  0.5972672321847129  0.8281796843213982  1.0000
  C   C24       1.0  0.4027309517559202  0.9422052159074283  0.17181852441903808  1.0000
  C   C25       1.0  0.09193281696854427  0.6610881262901673  0.7117062679552646  1.0000
  C   C26       1.0  0.33891300502339305  0.9080655484808916  0.2882948050937486  1.0000
  C   C27       1.0  0.14390488717147323  0.5987756537732382  0.6211751023918951  1.0000
  C   C28       1.0  0.4012285827373178  0.856094037182835  0.378822662817015  1.0000
  C   C29       1.0  0.15603639083155943  0.4746498780892097  0.6462998140702895  1.0000
  C   C30       1.0  0.5253535279610873  0.8439643892477237  0.35369952141608957  1.0000
  C   C31       1.0  0.12140947519469593  0.4110743300171862  0.7640393685838518  1.0000
  C   C32       1.0  0.5889269736962388  0.8785964841551318  0.23595831283930124  1.0000
  C   C33       1.0  0.04576596547659051  0.40448418623574867  0.9823912236849209  1.0000
  C   C34       1.0  0.5955124543128179  0.9542381429936884  0.017608219217308298  1.0000
  C   C35       1.0  0.35605532832148873  0.3828464931796632  0.7677226010112648  1.0000
  C   C36       1.0  0.6171569064329392  0.6439393547985404  0.23227492104077643  1.0000
  C   C37       1.0  0.28389298587206463  0.532147061397815  0.8878111188236772  1.0000
  C   C38       1.0  0.4678512518160148  0.7161039283868786  0.11219092418868828  1.0000
  C   C39       1.0  0.363743370238801  0.5973824721202163  0.667926187582836  1.0000
  C   C40       1.0  0.4026180264111758  0.6362570516280924  0.3320726057721828  1.0000
  C   C41       1.0  0.807990757180555  0.998060006859461  0.5758021341268958  1.0000
  C   C42       1.0  0.0019408848280520023  0.1920086167456532  0.42419937043192857  1.0000
  C   C43       1.0  0.7774299327376893  0.04565806894924409  0.4684434591932316  1.0000
  C   C44       1.0  0.9543445695199466  0.22256876732864586  0.5315593246971488  1.0000
  C   C45       1.0  0.6691112183187826  0.1245637923826806  0.4617030489739519  1.0000
  C   C46       1.0  0.8754375731502506  0.330887657706633  0.5382997288604799  1.0000
  C   C47       1.0  0.5992705512575967  0.15676342279230232  0.5656437062258418  1.0000
  C   C48       1.0  0.8432384190257098  0.4007278597524787  0.43436052383893303  1.0000
  C   C49       1.0  0.6342065755009401  0.10420138443037531  0.6705620071597878  1.0000
  C   C50       1.0  0.8957991448718018  0.3657929861922256  0.32944160476081663  1.0000
  C   C51       1.0  0.6295551453859716  0.16710599098855994  0.34827980069298553  1.0000
  C   C52       1.0  0.8328976069203264  0.3704429476999281  0.6517224171907898  1.0000
  C   C53       1.0  0.5969448711634797  0.3024874234455909  0.3064409355322937  1.0000
  C   C54       1.0  0.6975163866855212  0.40305663915443557  0.6935591293013915  1.0000
  C   C55       1.0  0.5673059576563233  0.34012289371286647  0.18545032031600772  1.0000
  C   C56       1.0  0.6598773923623399  0.4326945245332467  0.8145493113216914  1.0000
  C   C57       1.0  0.24324494612911712  0.31557194938984173  0.2550411455413908  1.0000
  C   C58       1.0  0.6844285861681031  0.7567551912011651  0.7449604444056632  1.0000
  C   C59       1.0  0.3464786886599073  0.3422578257409015  0.2612145717966783  1.0000
  C   C60       1.0  0.657742051462968  0.6535216416942405  0.7387856530573771  1.0000
  C   C61       1.0  0.45398640914137894  0.31011217539656133  0.18287102428301705  1.0000
  C   C62       1.0  0.6898884811826208  0.5460130934657812  0.8171302709606608  1.0000
  C   C63       1.0  0.4497952628504437  0.25245085776936804  0.10027482282494299  1.0000
  C   C64       1.0  0.7475502089210834  0.5502035320747821  0.899725834806148  1.0000
  C   C65       1.0  0.34252200677433103  0.23023529195234002  0.09833688640360091  1.0000
  C   C66       1.0  0.7697645504085742  0.6574775093821117  0.9016654012209244  1.0000
  N   N1        1.0  0.7362984625078752  0.024067073171735797  0.6763844327821146  1.0000
  N   N2        1.0  0.9759322193344033  0.26370072997858063  0.3236175098201953  1.0000
  N   N3        1.0  0.2400380889198459  0.2601497122116854  0.17513116920634536  1.0000
  N   N4        1.0  0.7398495424310527  0.7599605175353047  0.8248705067852027  1.0000
  O   O1        1.0  0.1158866696144756  0.049805754838665506  0.17755426766489527  1.0000
  O   O2        1.0  0.9501933701743326  0.8841113668148921  0.8224485745763418  1.0000
  O   O3        1.0  0.9214608964492828  0.09611689775992721  0.1756123456382567  1.0000
  O   O4        1.0  0.9038849037570175  0.07853723389705888  0.8243877428788409  1.0000
  O   O5        1.0  0.07912856681926433  0.49451648267496756  0.4190777697437511  1.0000
  O   O6        1.0  0.5054855804031392  0.9208787948287734  0.5809198866051304  1.0000
  O   O7        1.0  0.760377437360205  0.7137393982068546  0.44423399407514114  1.0000
  O   O8        1.0  0.2862573060892117  0.2396225600263477  0.5557640532338652  1.0000
  O   O9        1.0  0.040848712847847024  0.8370965101810556  0.460380768697533  1.0000
  O   O10       1.0  0.16290394575163702  0.959147757017007  0.5396165766442849  1.0000
  O   O11       1.0  0.0820173571063734  0.29064577188894697  0.0018369750457481225  1.0000
  O   O12       1.0  0.7093523684330946  0.9179839558215762  0.998160653585721  1.0000
  O   O13       1.0  0.994078822937958  0.4610431785896624  0.06030190731011931  1.0000
  O   O14       1.0  0.5389497712797678  0.005927091066332899  0.939700432695851  1.0000
  O   O15       1.0  0.42628199133165606  0.2934733261149347  0.7765389339315193  1.0000
  O   O16       1.0  0.7065260697438591  0.5737133219412839  0.2234582057669812  1.0000
  O   O17       1.0  0.31188577888648444  0.5362236700248245  0.970553986865589  1.0000
  O   O18       1.0  0.4637681154697474  0.6881068720684667  0.029451212592270914  1.0000
  O   O19       1.0  0.4419555582970744  0.6459945636895696  0.6098750016097725  1.0000
  O   O20       1.0  0.3540034606660926  0.5580438353177539  0.3901207754221971  1.0000
