data_image0
_chemical_formula_structural       ErH8C3N9O5
_chemical_formula_sum              "Er1 H8 C3 N9 O5"
_cell_length_a       6.81289895846773
_cell_length_b       6.3234323250834095
_cell_length_c       8.102353658033731
_cell_angle_alpha    103.24472609216848
_cell_angle_beta     106.29943730174597
_cell_angle_gamma    119.92122331847283

_space_group_name_H-M_alt    "P 1"
_space_group_IT_number       1

loop_
  _space_group_symop_operation_xyz
  'x, y, z'

loop_
  _atom_site_type_symbol
  _atom_site_label
  _atom_site_symmetry_multiplicity
  _atom_site_fract_x
  _atom_site_fract_y
  _atom_site_fract_z
  _atom_site_occupancy
  Er  Er1       1.0  0.5158465870509515  0.5214052647596787  0.07224310619291426  1.0000
  H   H1        1.0  0.39418402812837877  0.2658561849177801  0.6478263483810521  1.0000
  H   H2        1.0  0.2628951292582967  0.4132047906559535  0.6514021060741084  1.0000
  H   H3        1.0  0.20621272680496358  0.6871888280661124  0.8595127848206869  1.0000
  H   H4        1.0  0.7829824715657379  0.2956281347798679  0.09516878926874027  1.0000
  H   H5        1.0  0.2939535496722386  0.7838658362079799  0.09123529982229428  1.0000
  H   H6        1.0  0.6700611490160141  0.2054433335137418  0.8616503887012996  1.0000
  H   H7        1.0  0.965478943311922  0.9890066093896835  0.7804386274852888  1.0000
  H   H8        1.0  0.9584090664343987  0.7484040883637562  0.9510330169633574  1.0000
  C   C1        1.0  0.6750571441348184  0.903887113934175  0.5471786780089046  1.0000
  C   C2        1.0  0.8954794821035744  0.6976785373697184  0.5510812023459477  1.0000
  C   C3        1.0  0.003620465300670547  0.9395837518728668  0.04758052368933354  1.0000
  N   N1        1.0  0.5387243670701665  0.8037360603003664  0.3568493658329713  1.0000
  N   N2        1.0  0.7965468177627669  0.5556869701978967  0.3612713745491262  1.0000
  N   N3        1.0  0.4038207383271697  0.9068967696891548  0.33826063154010905  1.0000
  N   N4        1.0  0.9043434234694131  0.4241380244865668  0.3464186093540674  1.0000
  N   N5        1.0  0.4582758163659405  0.0584626915616084  0.5079241053085966  1.0000
  N   N6        1.0  0.05754700378009401  0.4857054096906807  0.5171947073125409  1.0000
  N   N7        1.0  0.6283759291169912  0.06103244738311991  0.6442236277475288  1.0000
  N   N8        1.0  0.05798516527374195  0.6587281454605077  0.6510518761611194  1.0000
  N   N9        1.0  0.8431202884845842  0.8606538845143773  0.6378214602597863  1.0000
  O   O1        1.0  0.1709299786209327  0.15975269482092358  0.0495194412557396  1.0000
  O   O2        1.0  0.880101174960451  0.9215809510404683  0.13976893140645782  1.0000
  O   O3        1.0  0.373540607927758  0.3822474019054951  0.7369832773380904  1.0000
  O   O4        1.0  0.28967836203791814  0.6734573565433237  0.9787255183646619  1.0000
  O   O5        1.0  0.676412275219718  0.3003514219327599  0.9848362424508038  1.0000
