data_image0
_chemical_formula_structural       Mn4H56C84N16O20
_chemical_formula_sum              "Mn4 H56 C84 N16 O20"
_cell_length_a       13.724172845175108
_cell_length_b       13.724051405896493
_cell_length_c       16.677973812225556
_cell_angle_alpha    91.95411513767037
_cell_angle_beta     91.95513586791516
_cell_angle_gamma    119.47715852761344

_space_group_name_H-M_alt    "P 1"
_space_group_IT_number       1

loop_
  _space_group_symop_operation_xyz
  'x, y, z'

loop_
  _atom_site_type_symbol
  _atom_site_label
  _atom_site_symmetry_multiplicity
  _atom_site_fract_x
  _atom_site_fract_y
  _atom_site_fract_z
  _atom_site_occupancy
  Mn  Mn1       1.0  0.6807908789333226  0.019123417247911365  0.9637116121878647  1.0000
  Mn  Mn2       1.0  0.9809030445288229  0.31921359642509356  0.53628326729023  1.0000
  Mn  Mn3       1.0  0.3192042407834421  0.9808942589712614  0.03628906244551189  1.0000
  Mn  Mn4       1.0  0.0191139431800309  0.6807930437263252  0.4637099450933987  1.0000
  H   H1        1.0  0.16604341319959567  0.959775636379369  0.8593530075416279  1.0000
  H   H2        1.0  0.0402235561642925  0.8339423372890947  0.640651745703316  1.0000
  H   H3        1.0  0.8339457520724595  0.04021353120104018  0.14065920101084117  1.0000
  H   H4        1.0  0.9597707841226963  0.16604508531983705  0.35934198039853976  1.0000
  H   H5        1.0  0.7682183636474137  0.24762411549031776  0.8764784024553477  1.0000
  H   H6        1.0  0.7523978137455458  0.23179163159269214  0.6235130523470216  1.0000
  H   H7        1.0  0.23177677001576313  0.7523826362630925  0.12352073809957889  1.0000
  H   H8        1.0  0.24762002270104946  0.7682234546926168  0.37647864650710966  1.0000
  H   H9        1.0  0.9315392446088424  0.37363131336868355  0.7968280169584147  1.0000
  H   H10       1.0  0.6263719002949912  0.06846342195367337  0.7031539237177568  1.0000
  H   H11       1.0  0.0684609774110854  0.6263612097888683  0.20316424744197548  1.0000
  H   H12       1.0  0.3736467414021476  0.9315542331092673  0.29684207593603407  1.0000
  H   H13       1.0  0.07718354227266391  0.31775759898994954  0.7685974584019133  1.0000
  H   H14       1.0  0.6822406920252888  0.9228152150821175  0.7313968189495837  1.0000
  H   H15       1.0  0.9228284033790005  0.6822414392503192  0.23139716468863009  1.0000
  H   H16       1.0  0.3177687188968861  0.0771956868985555  0.26859988926587863  1.0000
  H   H17       1.0  0.2942620762656318  0.12533258967823707  0.776170869301353  1.0000
  H   H18       1.0  0.8746625777342417  0.7057334725848461  0.7238298781623411  1.0000
  H   H19       1.0  0.7057136918896987  0.8746521545031667  0.22383839377854994  1.0000
  H   H20       1.0  0.1253392470230565  0.2942714726405242  0.27617181078209535  1.0000
  H   H21       1.0  0.9961264834374076  0.8259179226031532  0.9258728008527723  1.0000
  H   H22       1.0  0.17408170742115908  0.003862706191945548  0.5741362924869617  1.0000
  H   H23       1.0  0.0038559812209655  0.17407377120489534  0.07413808031775909  1.0000
  H   H24       1.0  0.8259185263317547  0.9961239948829212  0.4258545943704205  1.0000
  H   H25       1.0  0.8208785612877777  0.7196962689285301  0.9998102109771592  1.0000
  H   H26       1.0  0.28030893667665424  0.17909561310904817  0.5001854840179617  1.0000
  H   H27       1.0  0.179099774965735  0.2803058140485176  0.00019186823928409938  1.0000
  H   H28       1.0  0.719697167217568  0.8208910723129677  0.499805582570552  1.0000
  H   H29       1.0  0.6920049232573716  0.7995384409861612  0.014709393618417676  1.0000
  H   H30       1.0  0.20046303137525004  0.3079594417231347  0.4852775569955055  1.0000
  H   H31       1.0  0.3079784348907495  0.20046466066456498  0.9852940702446559  1.0000
  H   H32       1.0  0.7995481250443389  0.6920319391748107  0.5147108107919108  1.0000
  H   H33       1.0  0.6955784775640765  0.3321945651362057  0.11956829534035049  1.0000
  H   H34       1.0  0.6678147042360437  0.30443386157359953  0.38043588596889316  1.0000
  H   H35       1.0  0.3044267639956715  0.6678150173622582  0.8804252463525158  1.0000
  H   H36       1.0  0.33221217955062343  0.6955863357250108  0.619579032506337  1.0000
  H   H37       1.0  0.7732414443099601  0.48189994553690224  0.23219357369015364  1.0000
  H   H38       1.0  0.5181056273936236  0.2267642001762269  0.267816344785018  1.0000
  H   H39       1.0  0.2267712707273972  0.5180994378963533  0.7678100776948609  1.0000
  H   H40       1.0  0.4819145527586884  0.773254874184545  0.732197733819916  1.0000
  H   H41       1.0  0.026194889646483005  0.39523280193499494  0.2929522259949948  1.0000
  H   H42       1.0  0.6047581562241149  0.9738133686273827  0.20705537635352297  1.0000
  H   H43       1.0  0.9737960203492123  0.6047492406705857  0.7070514229642554  1.0000
  H   H44       1.0  0.3952277120975438  0.02620263846807081  0.792948560667689  1.0000
  H   H45       1.0  0.9452338621070099  0.2417912944288645  0.18370856329280366  1.0000
  H   H46       1.0  0.7582002260039717  0.05476197638711268  0.31629531463629224  1.0000
  H   H47       1.0  0.05476290025566751  0.7581892562756067  0.8162976179638902  1.0000
  H   H48       1.0  0.2417974642736596  0.9452249120198671  0.6836990975187404  1.0000
  H   H49       1.0  0.5152677873702558  0.9208489494753778  0.07222752372360469  1.0000
  H   H50       1.0  0.07917734618326482  0.48475090226921935  0.4277740146938028  1.0000
  H   H51       1.0  0.48472316726956416  0.07916814077958621  0.9277694074267159  1.0000
  H   H52       1.0  0.9208337102976003  0.515258609302819  0.5722268986023521  1.0000
  H   H53       1.0  0.48437264404642394  0.8451018033882958  0.9938388184190996  1.0000
  H   H54       1.0  0.1549148513978054  0.5156618242991015  0.5061688105909922  1.0000
  H   H55       1.0  0.5156157940957941  0.15491695965930316  0.006158086817208594  1.0000
  H   H56       1.0  0.845095362877693  0.4843560199304093  0.49383233259735687  1.0000
  C   C1        1.0  0.8339271016186699  0.22745863299703462  0.8635989156371263  1.0000
  C   C2        1.0  0.7725493390306613  0.1660738985462232  0.6363972745754579  1.0000
  C   C3        1.0  0.16607307044862554  0.7725535293257833  0.13639934644694307  1.0000
  C   C4        1.0  0.227462640272428  0.8339324656617748  0.36359277755571634  1.0000
  C   C5        1.0  0.9253733532985962  0.2973161587653266  0.8192166422713425  1.0000
  C   C6        1.0  0.7026902782020555  0.0746191189599229  0.680773404703956  1.0000
  C   C7        1.0  0.07463777283991391  0.7026919640749368  0.18077523646020666  1.0000
  C   C8        1.0  0.2973233487317799  0.9253916907405254  0.31922043208288636  1.0000
  C   C9        1.0  0.005935683868280303  0.26723225123465255  0.8041317861923712  1.0000
  C   C10       1.0  0.7327773284599106  0.9940642214057219  0.6958555224916266  1.0000
  C   C11       1.0  0.9940611139016797  0.7327621902504902  0.19586942604212243  1.0000
  C   C12       1.0  0.2672363159320454  0.005948793454855691  0.3041359840911113  1.0000
  C   C13       1.0  0.9942420603659559  0.16754615059962674  0.8341447066157599  1.0000
  C   C14       1.0  0.8324708920063274  0.005762532555948593  0.6658493244184456  1.0000
  C   C15       1.0  0.005747973281906101  0.8324274182352838  0.16586405180905928  1.0000
  C   C16       1.0  0.16753520222696497  0.9942358108498298  0.3341426992880442  1.0000
  C   C17       1.0  0.8989235693815943  0.10118149805678213  0.8782694692176418  1.0000
  C   C18       1.0  0.8988337194912575  0.10108001182708662  0.6217224590793504  1.0000
  C   C19       1.0  0.10106388302891395  0.8987944079967959  0.12174767617287327  1.0000
  C   C20       1.0  0.10117240885102062  0.898913990350394  0.3782652351951512  1.0000
  C   C21       1.0  0.0724010803672286  0.12841857893132408  0.8236858234033944  1.0000
  C   C22       1.0  0.8715729840069458  0.9275884070283666  0.6763159407204283  1.0000
  C   C23       1.0  0.9275965239180908  0.8715755156839862  0.17631960018192666  1.0000
  C   C24       1.0  0.1284280929334187  0.0724089223098616  0.3236740990167632  1.0000
  C   C25       1.0  0.0540891238346717  0.0275440016883621  0.8550625275144838  1.0000
  C   C26       1.0  0.9724573502051257  0.9458989604385836  0.6449419112055137  1.0000
  C   C27       1.0  0.9459034161922875  0.9724512195336955  0.14494697241494947  1.0000
  C   C28       1.0  0.02754289419080891  0.054095043573362006  0.35504740130588885  1.0000
  C   C29       1.0  0.2142348137249002  0.11092414662189748  0.796658236156169  1.0000
  C   C30       1.0  0.8890777120979508  0.7857594361208767  0.7033427850328022  1.0000
  C   C31       1.0  0.7857535361446395  0.8890646297042222  0.20335093732862927  1.0000
  C   C32       1.0  0.11092498946474902  0.21424231567914384  0.29665403597345363  1.0000
  C   C33       1.0  0.9586614463562527  0.9577259968974304  0.8984053019592863  1.0000
  C   C34       1.0  0.04227766198088289  0.041326544562224385  0.6015930168702395  1.0000
  C   C35       1.0  0.04133448237202229  0.042264353500513586  0.10159995526864658  1.0000
  C   C36       1.0  0.9577217501868133  0.9586634052115597  0.398395546053173  1.0000
  C   C37       1.0  0.9364290841046882  0.8561575091319611  0.9316448337538218  1.0000
  C   C38       1.0  0.1438550142609358  0.06356487906737837  0.5683509370466665  1.0000
  C   C39       1.0  0.06353571694815939  0.1438188646057128  0.068372829811814  1.0000
  C   C40       1.0  0.8561435607606498  0.9364217407739872  0.4316374979736465  1.0000
  C   C41       1.0  0.8402958766616708  0.7980269360377434  0.9729687003942825  1.0000
  C   C42       1.0  0.2019768726837867  0.15968393459183966  0.5270266835112024  1.0000
  C   C43       1.0  0.15967066215834794  0.2019583487862064  0.02704089554666919  1.0000
  C   C44       1.0  0.7980284164403315  0.8403009017521441  0.47296130328522407  1.0000
  C   C45       1.0  0.7679464406934927  0.8422538713494349  0.9817334792172115  1.0000
  C   C46       1.0  0.15775276122106163  0.23203314282697823  0.5182569140900525  1.0000
  C   C47       1.0  0.2320377098487398  0.1577495985249229  0.018276016326929292  1.0000
  C   C48       1.0  0.8422592342418582  0.7679571945321795  0.48173144742722224  1.0000
  C   C49       1.0  0.8809044338131856  0.9966251923593317  0.9101353809791987  1.0000
  C   C50       1.0  0.0033931501455484007  0.11908946329456428  0.5898602978253463  1.0000
  C   C51       1.0  0.1190931531888495  0.0033769064681407972  0.08987208655842946  1.0000
  C   C52       1.0  0.9966113059765648  0.8809037149191565  0.41012672021791724  1.0000
  C   C53       1.0  0.7627296431036401  0.18275712670002536  0.08286634723443599  1.0000
  C   C54       1.0  0.8172480756030752  0.23728028014840422  0.41713685872016265  1.0000
  C   C55       1.0  0.23726469718335613  0.8172302959088994  0.9171273788674198  1.0000
  C   C56       1.0  0.18278388702076853  0.7627264082539541  0.5828724046080892  1.0000
  C   C57       1.0  0.815357710827769  0.2779467183911279  0.1450730317424629  1.0000
  C   C58       1.0  0.7220431759295424  0.1846400641221068  0.35491582133510485  1.0000
  C   C59       1.0  0.18465162137476912  0.7220546248248922  0.8549341735725376  1.0000
  C   C60       1.0  0.2779553610137739  0.8153494345176854  0.6450774977154693  1.0000
  C   C61       1.0  0.7684265266517728  0.34730911169224754  0.15749961695242115  1.0000
  C   C62       1.0  0.6526716842818132  0.23157276239899002  0.3424989252308208  1.0000
  C   C63       1.0  0.23158613477988152  0.6527077195645388  0.8425105643523378  1.0000
  C   C64       1.0  0.3473209406474851  0.7684283776344997  0.6574993664653518  1.0000
  C   C65       1.0  0.8116423860759099  0.4303344931834233  0.21949550588689695  1.0000
  C   C66       1.0  0.5696516861569378  0.18834757480741618  0.2804948222517395  1.0000
  C   C67       1.0  0.18837530406545971  0.569678258970086  0.7805153042063606  1.0000
  C   C68       1.0  0.4303468395444271  0.8116572263754804  0.7194995657278439  1.0000
  C   C69       1.0  0.903791654472734  0.4467386206286506  0.2688800263828881  1.0000
  C   C70       1.0  0.5532541124334003  0.09621167039280455  0.23111447841949934  1.0000
  C   C71       1.0  0.09621510759303221  0.5532606955470953  0.7311342330792243  1.0000
  C   C72       1.0  0.4467444180444815  0.9038033447685123  0.7688790239856117  1.0000
  C   C73       1.0  0.9539547848456708  0.3806676424788691  0.25439017164099903  1.0000
  C   C74       1.0  0.6192971187628658  0.046040425729415795  0.24560349628358574  1.0000
  C   C75       1.0  0.046048594069070206  0.6193343623915265  0.7456276641133072  1.0000
  C   C76       1.0  0.38066707670110855  0.9539612897636329  0.7543831474029898  1.0000
  C   C77       1.0  0.9091732925016984  0.29607300881264104  0.19347687850335393  1.0000
  C   C78       1.0  0.703902159509454  0.09080805900351403  0.30651038605964936  1.0000
  C   C79       1.0  0.09084100971212912  0.7039322180570978  0.8065383934565701  1.0000
  C   C80       1.0  0.2960780099896425  0.9091738614954252  0.6934719432356359  1.0000
  C   C81       1.0  0.9444181641691644  0.531549573422417  0.33814902256365525  1.0000
  C   C82       1.0  0.4684557242846594  0.05559911953076827  0.161854959571059  1.0000
  C   C83       1.0  0.0555786616684628  0.4684332285034927  0.6618488352621411  1.0000
  C   C84       1.0  0.5315619360666661  0.9444398550254859  0.8381590528523403  1.0000
  N   N1        1.0  0.8210436721949608  0.13248583651446222  0.8919980014369812  1.0000
  N   N2        1.0  0.8675328849361676  0.1789623460339412  0.6079956899460439  1.0000
  N   N3        1.0  0.17893291757906135  0.8675168066244653  0.10801303543551198  1.0000
  N   N4        1.0  0.13247825356773293  0.8210384968999022  0.3919947665180884  1.0000
  N   N5        1.0  0.7882489232918176  0.9388794665294141  0.9519849556818796  1.0000
  N   N6        1.0  0.06112639476414471  0.21173073379505067  0.5480036453963633  1.0000
  N   N7        1.0  0.2117276983777714  0.061123937764293076  0.0480219082940607  1.0000
  N   N8        1.0  0.9388831068933925  0.7882620282992573  0.45198171595571063  1.0000
  N   N9        1.0  0.17289013199795286  0.17944971639960264  0.7871303883792747  1.0000
  N   N10       1.0  0.8205403007319134  0.8271005000974512  0.712872333427171  1.0000
  N   N11       1.0  0.8271158657413765  0.8205375919932718  0.2128744849930655  1.0000
  N   N12       1.0  0.1794640782850436  0.17290062244872925  0.28712451976323183  1.0000
  N   N13       1.0  0.1457192005012686  0.017705076183538906  0.8364212877092283  1.0000
  N   N14       1.0  0.9822980268249354  0.8542709653367666  0.6635792317353832  1.0000
  N   N15       1.0  0.8542649425599722  0.982283801635063  0.16358955855882576  1.0000
  N   N16       1.0  0.017699678064993  0.14572468843715566  0.33641305147540373  1.0000
  O   O1        1.0  0.6826201615227419  0.1704767796130611  0.03525577138816519  1.0000
  O   O2        1.0  0.8295398271342335  0.3173931639099406  0.4647461819038908  1.0000
  O   O3        1.0  0.3173808838717278  0.8295402073149558  0.9647378687419914  1.0000
  O   O4        1.0  0.17046876157032645  0.6826224445933845  0.535248247102018  1.0000
  O   O5        1.0  0.8000867757154639  0.11333792096530017  0.07821178746146978  1.0000
  O   O6        1.0  0.886660522038028  0.19990694224652839  0.4217897144609422  1.0000
  O   O7        1.0  0.1999040579488565  0.8866396698648485  0.9218019158100929  1.0000
  O   O8        1.0  0.113343111974352  0.8000588565492492  0.5781958384037296  1.0000
  O   O9        1.0  0.8868653570211579  0.576864907483504  0.35764631527548113  1.0000
  O   O10       1.0  0.4231374972579118  0.11314315444127483  0.14237032933004903  1.0000
  O   O11       1.0  0.11314227436902513  0.42311662321113613  0.6423644269723565  1.0000
  O   O12       1.0  0.5768692848290726  0.8868736832560984  0.8576408708889359  1.0000
  O   O13       1.0  0.03794932661823941  0.5581016467543378  0.3769357352700026  1.0000
  O   O14       1.0  0.44191561713944344  0.9620774400269737  0.12306071849362607  1.0000
  O   O15       1.0  0.9620449551451672  0.4419039479838673  0.6230651424364735  1.0000
  O   O16       1.0  0.5580870994186995  0.03797464354101268  0.8769328509234169  1.0000
  O   O17       1.0  0.5483475359347096  0.8911244738612325  0.031759057699069594  1.0000
  O   O18       1.0  0.10889492332433552  0.4516816649801426  0.46825625322141207  1.0000
  O   O19       1.0  0.45164676693988787  0.10888551737883027  0.9682389575672514  1.0000
  O   O20       1.0  0.8911186385535431  0.5483305380582095  0.5317460188073467  1.0000
