data_image0
_chemical_formula_structural       Zn2H12C12N4O12
_chemical_formula_sum              "Zn2 H12 C12 N4 O12"
_cell_length_a       7.345880665442701
_cell_length_b       8.069223262544861
_cell_length_c       11.286750566653632
_cell_angle_alpha    58.09611531585448
_cell_angle_beta     53.810461992211565
_cell_angle_gamma    59.91094860023289

_space_group_name_H-M_alt    "P 1"
_space_group_IT_number       1

loop_
  _space_group_symop_operation_xyz
  'x, y, z'

loop_
  _atom_site_type_symbol
  _atom_site_label
  _atom_site_symmetry_multiplicity
  _atom_site_fract_x
  _atom_site_fract_y
  _atom_site_fract_z
  _atom_site_occupancy
  Zn  Zn1       1.0  0.8895787063145802  0.7806728059536565  0.7437267428910418  1.0000
  Zn  Zn2       1.0  0.11041350781877672  0.21933917258574095  0.25627986303513955  1.0000
  H   H1        1.0  0.9230619499538052  0.36846727723605716  0.7464973601087408  1.0000
  H   H2        1.0  0.0769243955290477  0.6315392899794007  0.2535136909724612  1.0000
  H   H3        1.0  0.7796589471877341  0.056618398125984  0.9686072196556312  1.0000
  H   H4        1.0  0.22035823914036717  0.9433686407668558  0.03137717483276249  1.0000
  H   H5        1.0  0.7045333011268439  0.11117339018822041  0.5648583088792238  1.0000
  H   H6        1.0  0.29546504070447804  0.8888320458578178  0.4351453820282885  1.0000
  H   H7        1.0  0.5778550543820916  0.16396037921355594  0.7221547090829289  1.0000
  H   H8        1.0  0.4221374390665602  0.8360394686318882  0.2778453182284863  1.0000
  H   H9        1.0  0.8143242037517098  0.7280958592781988  0.5636165629859777  1.0000
  H   H10       1.0  0.18567064788364002  0.2719157557425902  0.4363831115342834  1.0000
  H   H11       1.0  0.06541689248392402  0.7793491655538674  0.4685842357069705  1.0000
  H   H12       1.0  0.9345785730657781  0.22066841095143994  0.5314167477189857  1.0000
  C   C1        1.0  0.8465148286860468  0.3476575950204648  0.8690235432749704  1.0000
  C   C2        1.0  0.15349540654326435  0.6523391229016794  0.1309673912874772  1.0000
  C   C3        1.0  0.7753995150952024  0.17545697389164874  0.9907401804931695  1.0000
  C   C4        1.0  0.22459922761845527  0.8245615318946448  0.009246879438897916  1.0000
  C   C5        1.0  0.6843534098767635  0.29516637833345527  0.17001992113497275  1.0000
  C   C6        1.0  0.3156395353835394  0.7048145843155851  0.8300076849450522  1.0000
  C   C7        1.0  0.7339334692451446  0.4775366130185859  0.05054295901459229  1.0000
  C   C8        1.0  0.2660743505794799  0.5224245964287845  0.9494569282885336  1.0000
  C   C9        1.0  0.6919433268826793  0.6620159876265889  0.07635410328850152  1.0000
  C   C10       1.0  0.30805163866271107  0.3379942307321285  0.9236505829180431  1.0000
  C   C11       1.0  0.6152787224887463  0.24689900274407958  0.3386786271115342  1.0000
  C   C12       1.0  0.3847400536660004  0.7530955922549438  0.661315311495976  1.0000
  N   N1        1.0  0.8175451041676426  0.49853381780181383  0.9019946114620937  1.0000
  N   N2        1.0  0.18245396742229758  0.501469701493697  0.09799233395263238  1.0000
  N   N3        1.0  0.6977917259277223  0.148487364233965  0.13937961305094143  1.0000
  N   N4        1.0  0.30222136749260664  0.8515284790101061  0.8606072659397624  1.0000
  O   O1        1.0  0.7845262517393433  0.18789701877295076  0.3711045239440411  1.0000
  O   O2        1.0  0.2154743765555908  0.8121034370007931  0.6288849247647406  1.0000
  O   O3        1.0  0.4089030905497069  0.250384594369315  0.4388724827288615  1.0000
  O   O4        1.0  0.5911105226168162  0.7495895508837407  0.5611247963154824  1.0000
  O   O5        1.0  0.5982800042638987  0.6513225685813778  0.21494472775742685  1.0000
  O   O6        1.0  0.4016799221577685  0.3486597361146835  0.7850903808969393  1.0000
  O   O7        1.0  0.7537500129905793  0.8136446018265318  0.9544196539726075  1.0000
  O   O8        1.0  0.24625434810845098  0.1863511965799418  0.04557591798740648  1.0000
  O   O9        1.0  0.7219564294879606  0.07654428301633232  0.6576770147297067  1.0000
  O   O10       1.0  0.2780387345843423  0.9234658209384532  0.3423231220008561  1.0000
  O   O11       1.0  0.9571287829245773  0.7053086627582555  0.5700471647050592  1.0000
  O   O12       1.0  0.04286812542007112  0.2947072468873486  0.4299513103286614  1.0000
