data_image0
_chemical_formula_structural       Zn16H24C100S16Cl8O60
_chemical_formula_sum              "Zn16 H24 C100 S16 Cl8 O60"
_cell_length_a       19.63390012342912
_cell_length_b       19.682416632255123
_cell_length_c       33.28308096909003
_cell_angle_alpha    79.16664879840377
_cell_angle_beta     79.3094184063853
_cell_angle_gamma    64.07515425386696

_space_group_name_H-M_alt    "P 1"
_space_group_IT_number       1

loop_
  _space_group_symop_operation_xyz
  'x, y, z'

loop_
  _atom_site_type_symbol
  _atom_site_label
  _atom_site_symmetry_multiplicity
  _atom_site_fract_x
  _atom_site_fract_y
  _atom_site_fract_z
  _atom_site_occupancy
  Zn  Zn1       1.0  0.0561251543661996  0.4004337183300566  0.4791130879680878  1.0000
  Zn  Zn2       1.0  0.9850171567953583  0.48382099068300005  0.5599858191762338  1.0000
  Zn  Zn3       1.0  0.056390495759288214  0.564882029809425  0.4824746378583101  1.0000
  Zn  Zn4       1.0  0.9000289729378751  0.555016715587236  0.4788826457084099  1.0000
  Zn  Zn5       1.0  0.6930887541918482  0.35100670557611113  0.27108527881382827  1.0000
  Zn  Zn6       1.0  0.6861089820669477  0.19337676829471218  0.26684497874410334  1.0000
  Zn  Zn7       1.0  0.7701012623952652  0.2642781731657707  0.1894900785675802  1.0000
  Zn  Zn8       1.0  0.8461138657890575  0.19622465805059622  0.2731126009652272  1.0000
  Zn  Zn9       1.0  0.2673164801257712  0.7678509007891278  0.6892287992547281  1.0000
  Zn  Zn10      1.0  0.35026747311039236  0.6969751512711896  0.770427499446285  1.0000
  Zn  Zn11      1.0  0.19227572745388244  0.8480723184934718  0.7722662153075177  1.0000
  Zn  Zn12      1.0  0.19330672006311292  0.6866806969269987  0.7664647045525969  1.0000
  Zn  Zn13      1.0  0.5612692891681306  0.059472068370745146  0.9828831837852691  1.0000
  Zn  Zn14      1.0  0.40103817394273733  0.05600245644988172  0.9779336254651624  1.0000
  Zn  Zn15      1.0  0.5543963830615156  0.901420381328947  0.9780298417478547  1.0000
  Zn  Zn16      1.0  0.4845028696524808  0.9818417492462431  0.06030943354903682  1.0000
  H   H1        1.0  0.9547426202673179  0.25400585150257654  0.34761577858822784  1.0000
  H   H2        1.0  0.7406912107407565  0.4500343205947461  0.3569956037305104  1.0000
  H   H3        1.0  0.003443968518290301  0.30214694387417756  0.39587279593439456  1.0000
  H   H4        1.0  0.09333339989719043  0.6027740746210244  0.6995500944947466  1.0000
  H   H5        1.0  0.21182253505516263  0.6917638264865502  0.5974110526367866  1.0000
  H   H6        1.0  0.0456453410829383  0.5555933506908558  0.6503271937992707  1.0000
  H   H7        1.0  0.4614696990254714  0.24283689686459559  0.34140528465547954  1.0000
  H   H8        1.0  0.4804186564602234  0.6952403555110395  0.5993744210798653  1.0000
  H   H9        1.0  0.20667738548161205  0.9801694427122666  0.6027419766050458  1.0000
  H   H10       1.0  0.9457655366407635  0.9701008638839426  0.3453474919913191  1.0000
  H   H11       1.0  0.5558468229759299  0.04416226173486857  0.15265495088809902  1.0000
  H   H12       1.0  0.642242946271722  0.16200809540212904  0.048954013794606524  1.0000
  H   H13       1.0  0.6045291853240613  0.09351182702508962  0.20027233605593864  1.0000
  H   H14       1.0  0.5516391484345746  0.7684137090101972  0.14820658403940715  1.0000
  H   H15       1.0  0.1627498353448971  0.14601051167073828  0.04138022261151519  1.0000
  H   H16       1.0  0.4965560525913873  0.7943129393965547  0.9020686340641006  1.0000
  H   H17       1.0  0.3005960105696275  0.008539866522568215  0.8935033763105551  1.0000
  H   H18       1.0  0.44744150845594544  0.747622156696984  0.8533593567198635  1.0000
  H   H19       1.0  0.30268527449103294  0.28098334336509356  0.9011591018138105  1.0000
  H   H20       1.0  0.7856866824474411  0.010097680367856274  0.9055657680993648  1.0000
  H   H21       1.0  0.7868142396025563  0.5738652622533069  0.36187850433119456  1.0000
  H   H22       1.0  0.10807959567752332  0.7484023483963255  0.5337275109704223  1.0000
  H   H23       1.0  0.7858649217595187  0.14614548939148628  0.07253933223049101  1.0000
  H   H24       1.0  0.17697359011773983  0.9667007335624901  0.8897674820962322  1.0000
  C   C1        1.0  0.0603904267946405  0.3168758775354519  0.5627048464892681  1.0000
  C   C2        1.0  0.07006761769581261  0.5705309324373857  0.5684459023484081  1.0000
  C   C3        1.0  0.18243264358320493  0.4413988092175742  0.43958616638393977  1.0000
  C   C4        1.0  0.9337002710769513  0.6857665254505252  0.43829138813731555  1.0000
  C   C5        1.0  0.9314884686736066  0.43060191193052305  0.4308591682279257  1.0000
  C   C6        1.0  0.8180053029651263  0.5599234682213279  0.5620863551437125  1.0000
  C   C7        1.0  0.5647270689986286  0.3132951190800241  0.31256564819052823  1.0000
  C   C8        1.0  0.6811108621676071  0.18069398136895395  0.18072170255591397  1.0000
  C   C9        1.0  0.6882675102575676  0.43152108428895986  0.1866923715944608  1.0000
  C   C10       1.0  0.9367825639929707  0.18907522477878294  0.1913064017415564  1.0000
  C   C11       1.0  0.8165056019105138  0.3217263542170413  0.3201386214279863  1.0000
  C   C12       1.0  0.8079237134136933  0.06658145354516877  0.3099255014221285  1.0000
  C   C13       1.0  0.43400466367182133  0.6866411002737391  0.6867329539856543  1.0000
  C   C14       1.0  0.31841617974846775  0.8205428380556865  0.8186338742338961  1.0000
  C   C15       1.0  0.19090560344271523  0.9343752062318704  0.6894461502054269  1.0000
  C   C16       1.0  0.06525216104773082  0.8064597408236267  0.8101231621852136  1.0000
  C   C17       1.0  0.18247965987417564  0.679953893548408  0.6800152693721415  1.0000
  C   C18       1.0  0.31607056974850434  0.567504457153241  0.8123747505473772  1.0000
  C   C19       1.0  0.439323720700486  0.18420535875210933  0.9384239628816289  1.0000
  C   C20       1.0  0.4293841676089444  0.9321233822080758  0.9299376236281276  1.0000
  C   C21       1.0  0.684301168155919  0.9381495015600765  0.9385080669651343  1.0000
  C   C22       1.0  0.5615185233873775  0.8151484642775203  0.061167171406708576  1.0000
  C   C23       1.0  0.5694918291524118  0.0696357115765879  0.06935626719815251  1.0000
  C   C24       1.0  0.31642508290921273  0.060676449432726494  0.061273381314684607  1.0000
  C   C25       1.0  0.8996940737949971  0.40254001207396317  0.40331621830897296  1.0000
  C   C26       1.0  0.8453310530552332  0.3498798607584845  0.34919336069420137  1.0000
  C   C27       1.0  0.8247895583957927  0.4448617137119302  0.392787221023177  1.0000
  C   C28       1.0  0.9191898933583645  0.30735023680509943  0.3603296323114479  1.0000
  C   C29       1.0  0.7984486953198984  0.418371412241541  0.36546092061789887  1.0000
  C   C30       1.0  0.9459709717697393  0.3338821718924621  0.38708839348794294  1.0000
  C   C31       1.0  0.10186674243674793  0.5972548226513866  0.5966020754560333  1.0000
  C   C32       1.0  0.1544408784246301  0.6508059372738799  0.6511093618399997  1.0000
  C   C33       1.0  0.1493561617736603  0.6353853203810047  0.5811316140130599  1.0000
  C   C34       1.0  0.10832656080420831  0.6117354789196411  0.6664156613593804  1.0000
  C   C35       1.0  0.17477585997331602  0.6624002594655566  0.6086077554468973  1.0000
  C   C36       1.0  0.08219859713844362  0.5854735733236821  0.6391969498335186  1.0000
  C   C37       1.0  0.30449011617682237  0.4563108156179395  0.40308183611044507  1.0000
  C   C38       1.0  0.4448818061671886  0.2991688747477426  0.34984352809633623  1.0000
  C   C39       1.0  0.2575842941318528  0.41771706848685125  0.41511753233582743  1.0000
  C   C40       1.0  0.49028735745010016  0.3387328313907857  0.3378572061662766  1.0000
  C   C41       1.0  0.37688059360857556  0.34200580017616034  0.3735433821241614  1.0000
  C   C42       1.0  0.3724285580935104  0.41306716712896463  0.379209380958727  1.0000
  C   C43       1.0  0.7264970871593166  0.5753153528138883  0.6299530628626542  1.0000
  C   C44       1.0  0.524848311278106  0.6680662796155944  0.6197393480241331  1.0000
  C   C45       1.0  0.7436612961514301  0.5827297117810206  0.5872507946334409  1.0000
  C   C46       1.0  0.5091292363838776  0.6604083567372143  0.6622231158657783  1.0000
  C   C47       1.0  0.6043034702926209  0.6364518887971967  0.607800678208612  1.0000
  C   C48       1.0  0.6469173210059013  0.6058415208729572  0.6416754238911722  1.0000
  C   C49       1.0  0.07573349345502581  0.22635624100654891  0.6311352079923791  1.0000
  C   C50       1.0  0.17689297710817442  0.02491665972761582  0.6226371921253389  1.0000
  C   C51       1.0  0.0856687129750924  0.2429577985191074  0.5884132662430588  1.0000
  C   C52       1.0  0.1661460933088463  0.009772977905584027  0.6651085803890665  1.0000
  C   C53       1.0  0.14424668196172521  0.1039962883703041  0.6101574283849303  1.0000
  C   C54       1.0  0.10928299331948921  0.14703580937167973  0.6435558200582107  1.0000
  C   C55       1.0  0.8387686013882104  0.8016875647055458  0.3959066367340967  1.0000
  C   C56       1.0  0.9012495289700839  0.9497226274744219  0.35007678517157365  1.0000
  C   C57       1.0  0.9076773453876684  0.7595133091533696  0.4124047900532943  1.0000
  C   C58       1.0  0.832284868130941  0.9911613336469852  0.33420897181341763  1.0000
  C   C59       1.0  0.9039539239199641  0.8803210344120062  0.3723870823562834  1.0000
  C   C60       1.0  0.8366915342914256  0.8707169203856965  0.3730271488599257  1.0000
  C   C61       1.0  0.6507592849536865  0.15474578828268182  0.1513863768969301  1.0000
  C   C62       1.0  0.5973364526716054  0.09947643478435715  0.09806303439555825  1.0000
  C   C63       1.0  0.6614422355579707  0.17502304825784884  0.10852055432045661  1.0000
  C   C64       1.0  0.5856588060072954  0.08052627469422183  0.1407125299193979  1.0000
  C   C65       1.0  0.6349987980931004  0.14672232142892477  0.08218372448164502  1.0000
  C   C66       1.0  0.6124103820397268  0.10801453491855285  0.16702507869923267  1.0000
  C   C67       1.0  0.6706861148387446  0.5224397053784245  0.11830272587719297  1.0000
  C   C68       1.0  0.5783869456047556  0.7240114926652623  0.12797089807764184  1.0000
  C   C69       1.0  0.6636235157919687  0.5055144942169177  0.1610645613388755  1.0000
  C   C70       1.0  0.5862713446251889  0.7397721908977032  0.08547653736817303  1.0000
  C   C71       1.0  0.609177999761009  0.6447424427199381  0.14006181920709798  1.0000
  C   C72       1.0  0.6396602700080862  0.6020321176518595  0.10638736513884346  1.0000
  C   C73       1.0  0.0846109031741022  0.1222276448687722  0.1795510659788917  1.0000
  C   C74       1.0  0.17084945624415582  0.1273625100380755  0.0737075441974895  1.0000
  C   C75       1.0  0.012186591847843403  0.1636401360718409  0.16693755921664175  1.0000
  C   C76       1.0  0.2422200691228724  0.08590930850409254  0.0869248498372741  1.0000
  C   C77       1.0  0.11315060693528521  0.14081513072446228  0.10748055447843541  1.0000
  C   C78       1.0  0.1422153429854092  0.10918091992822813  0.1456239617181723  1.0000
  C   C79       1.0  0.3468109827786848  0.8515208561225407  0.8463985829994839  1.0000
  C   C80       1.0  0.40074915765985253  0.9038269675461946  0.90088599725388  1.0000
  C   C81       1.0  0.304714848862325  0.9258113912743727  0.8573616667016423  1.0000
  C   C82       1.0  0.44296233873741653  0.8303976516887773  0.8894715398491542  1.0000
  C   C83       1.0  0.33190179107806034  0.9511457796853122  0.8848040672855007  1.0000
  C   C84       1.0  0.4158441042960987  0.8046815228519647  0.8624564937121377  1.0000
  C   C85       1.0  0.41015085652844624  0.450073562155275  0.8545678487634659  1.0000
  C   C86       1.0  0.347191352344936  0.30118894451963024  0.8973242561172441  1.0000
  C   C87       1.0  0.3419992911753837  0.49286147401155495  0.8374251037626266  1.0000
  C   C88       1.0  0.41545908398025944  0.2594150838977712  0.9138792412235333  1.0000
  C   C89       1.0  0.3451365709326453  0.37081734871766503  0.8756154832255304  1.0000
  C   C90       1.0  0.41198725779680256  0.38034721414709344  0.8763080865452864  1.0000
  C   C91       1.0  0.9447839640255397  0.7909673405148184  0.8495064625411786  1.0000
  C   C92       1.0  0.8030351707930097  0.952373829904381  0.8990044326806129  1.0000
  C   C93       1.0  0.9902815286718794  0.8304290814451178  0.834881520837044  1.0000
  C   C94       1.0  0.7587757825492006  0.9121016484618211  0.9132408578584403  1.0000
  C   C95       1.0  0.8709357178816362  0.9083484572172223  0.8756121580455344  1.0000
  C   C96       1.0  0.8766191657887604  0.8354830021163693  0.8727150194502826  1.0000
  C   C97       1.0  0.7684949101493788  0.5148596520990408  0.41231714119469126  1.0000
  C   C98       1.0  0.1798847863137709  0.6433057276189659  0.5362667051190968  1.0000
  C   C99       1.0  0.6945534968096823  0.23154380207208186  0.08943551157658194  1.0000
  C   C100      1.0  0.23426973319519115  0.9824670867572892  0.838167871224634  1.0000
  S   S1        1.0  0.2970637547302744  0.3288381055020509  0.3974518552752783  1.0000
  S   S2        1.0  0.4511931465469346  0.4276099842462173  0.3553226265055613  1.0000
  S   S3        1.0  0.6625078256064044  0.626277360430386  0.5616764389346613  1.0000
  S   S4        1.0  0.5899961219661165  0.6149246599122405  0.6879836438599227  1.0000
  S   S5        1.0  0.13615274497927743  0.16144886780998036  0.563721794005815  1.0000
  S   S6        1.0  0.11695824612979784  0.09080736779277737  0.6901935550514507  1.0000
  S   S7        1.0  0.9696649658598346  0.8040719288247762  0.39962935360649243  1.0000
  S   S8        1.0  0.7704384570301315  0.9464288471357707  0.3460638734393342  1.0000
  S   S9        1.0  0.6188709760342236  0.5867249500979242  0.1863288191330028  1.0000
  S   S10       1.0  0.6307090817659643  0.658946445683547  0.05995984589300461  1.0000
  S   S11       1.0  0.015006253155533503  0.18646271298058545  0.1136386853022628  1.0000
  S   S12       1.0  0.24000199964143584  0.06311224832636944  0.1401480163094817  1.0000
  S   S13       1.0  0.2806262540273324  0.4475471868093523  0.8479891094489246  1.0000
  S   S14       1.0  0.47740801059310917  0.30400075009960414  0.9033623628112651  1.0000
  S   S15       1.0  0.9494307062570186  0.9217467744727015  0.849564045432345  1.0000
  S   S16       1.0  0.7988184682636545  0.8210145300734267  0.8984241723663616  1.0000
  Cl  Cl1       1.0  0.28655729583607586  0.5435683601986695  0.4148251537330978  1.0000
  Cl  Cl2       1.0  0.7901192235220338  0.5347541489673657  0.6654835619080613  1.0000
  Cl  Cl3       1.0  0.0297981950978041  0.2902497076357733  0.6660429079272063  1.0000
  Cl  Cl4       1.0  0.7644288794649158  0.7764981660696936  0.4011100370336463  1.0000
  Cl  Cl5       1.0  0.7098536670122971  0.4586488769858832  0.08329378443767868  1.0000
  Cl  Cl6       1.0  0.10567318173227852  0.08923458978964045  0.2289715358799924  1.0000
  Cl  Cl7       1.0  0.4846649017247914  0.47453563951047056  0.850789931421545  1.0000
  Cl  Cl8       1.0  0.9649520634660862  0.7004736331186764  0.8417598649000126  1.0000
  O   O1        1.0  0.00012729502170570007  0.5003403616790862  0.49958103133588583  1.0000
  O   O2        1.0  0.08073265760688741  0.31514205117684213  0.5238439657751783  1.0000
  O   O3        1.0  0.042784756922365816  0.5223313866441046  0.5846579070983465  1.0000
  O   O4        1.0  0.15445223932865562  0.506199893120673  0.4525490616340662  1.0000
  O   O5        1.0  0.02065574375626511  0.37585955903358576  0.580982024358633  1.0000
  O   O6        1.0  0.15183197126938103  0.393914186664631  0.44549296343640776  1.0000
  O   O7        1.0  0.0717423438518026  0.5992417187580656  0.5307716765385493  1.0000
  O   O8        1.0  0.0025090457129124007  0.6584654040632785  0.4468188229320161  1.0000
  O   O9        1.0  0.8946169439787824  0.5003983020527445  0.43662251376768774  1.0000
  O   O10       1.0  0.8863369082446227  0.6558794225248266  0.45007823584685974  1.0000
  O   O11       1.0  0.9928030190106089  0.3832863018560032  0.44559125899581176  1.0000
  O   O12       1.0  0.8771382453900998  0.534096314068677  0.5807915662445069  1.0000
  O   O13       1.0  0.8161527143344287  0.5689110987849731  0.5230879142309277  1.0000
  O   O14       1.0  0.7485850706450209  0.25150379389695127  0.2499980736631713  1.0000
  O   O15       1.0  0.5958787211161437  0.3602606493748368  0.3037964198431737  1.0000
  O   O16       1.0  0.6541996534272414  0.17537418704606011  0.21848430811797212  1.0000
  O   O17       1.0  0.7220890014033401  0.37197340245065663  0.1683985330265259  1.0000
  O   O18       1.0  0.5916318991370348  0.24670738086844318  0.3015549921151859  1.0000
  O   O19       1.0  0.6732621991732942  0.4342784009999433  0.2257299273921518  1.0000
  O   O20       1.0  0.7322924537678974  0.20472257009848957  0.16544848982497481  1.0000
  O   O21       1.0  0.8798601415420394  0.2257277668304171  0.1704922933493904  1.0000
  O   O22       1.0  0.859549217743144  0.25543178300226527  0.3098824434320021  1.0000
  O   O23       1.0  0.9342157836985339  0.17286539328487277  0.23031465439323986  1.0000
  O   O24       1.0  0.7517997950080615  0.3660613131520306  0.30804353756029457  1.0000
  O   O25       1.0  0.7423838640835854  0.09366663719164599  0.29709029204904164  1.0000
  O   O26       1.0  0.854164705607154  0.09818268018933923  0.3039779833996407  1.0000
  O   O27       1.0  0.2503665293195283  0.7501988873317061  0.7496552462401951  1.0000
  O   O28       1.0  0.37563770593601487  0.7229411198378984  0.6672238736616548  1.0000
  O   O29       1.0  0.3670213788276231  0.7613941600073555  0.8026129338806385  1.0000
  O   O30       1.0  0.17458952809663944  0.9334407695534283  0.7285394705650461  1.0000
  O   O31       1.0  0.4342657345882587  0.6705639962347479  0.7258556376682107  1.0000
  O   O32       1.0  0.22602513308780914  0.8768593747199348  0.6693618926549263  1.0000
  O   O33       1.0  0.24778554035251696  0.8552155897168487  0.8139644389752192  1.0000
  O   O34       1.0  0.09272149997691771  0.8564742246882062  0.8012867667678092  1.0000
  O   O35       1.0  0.16799521857881672  0.6614619131977904  0.7184091015149363  1.0000
  O   O36       1.0  0.0961569801967386  0.7393194790792562  0.7998009103231921  1.0000
  O   O37       1.0  0.21831189885538296  0.7208795092193369  0.663780226853426  1.0000
  O   O38       1.0  0.35925320698807184  0.6024546518559716  0.8059330503053275  1.0000
  O   O39       1.0  0.25120239596491706  0.5906418955511583  0.7992469472048995  1.0000
  O   O40       1.0  0.4999061008683088  0.00011316557338858953  0.9998449177689535  1.0000
  O   O41       1.0  0.5060207024949366  0.15604924631328734  0.9499275926997086  1.0000
  O   O42       1.0  0.38595866393241357  0.9977194872530647  0.9410237943743242  1.0000
  O   O43       1.0  0.6526392470936601  0.8916492160853192  0.9467280077401483  1.0000
  O   O44       1.0  0.39184721902094577  0.1538523392023095  0.9460579065786164  1.0000
  O   O45       1.0  0.6580294666018603  0.004283939905654688  0.9499779106838844  1.0000
  O   O46       1.0  0.494848236168494  0.8881529419178021  0.9411921197059598  1.0000
  O   O47       1.0  0.5746367779824341  0.8158048757030799  0.021974504904747547  1.0000
  O   O48       1.0  0.531536121718631  0.030829796454398078  0.0857885009983335  1.0000
  O   O49       1.0  0.5293437502057118  0.8730292073806326  0.08106214179174744  1.0000
  O   O50       1.0  0.5863265357682721  0.0853688465436663  0.03089254836490342  1.0000
  O   O51       1.0  0.3155504363397341  0.07779015044848596  0.022344592188062517  1.0000
  O   O52       1.0  0.3751928669213314  0.023672353406155436  0.08059370421377568  1.0000
  O   O53       1.0  0.7522186822407024  0.5824514772230742  0.3874606363920705  1.0000
  O   O54       1.0  0.7343235823274342  0.5124623934383906  0.4464650413864105  1.0000
  O   O55       1.0  0.1503280902647504  0.7153034199921532  0.5159086785219743  1.0000
  O   O56       1.0  0.23147599748779163  0.5918722308396839  0.5194883718530291  1.0000
  O   O57       1.0  0.7656859596919647  0.201629754127552  0.06816322054832111  1.0000
  O   O58       1.0  0.6594622706555813  0.2997412162790453  0.08957207619503288  1.0000
  O   O59       1.0  0.16743168413448475  0.0004065670690067977  0.8638754980365846  1.0000
  O   O60       1.0  0.23570441544866585  0.015292294607853309  0.8035728048865778  1.0000
