data_image0
_chemical_formula_structural       Ag4H36C24N12Cl4O16
_chemical_formula_sum              "Ag4 H36 C24 N12 Cl4 O16"
_cell_length_a       8.33798143598683
_cell_length_b       9.97171268899598
_cell_length_c       12.425277802001839
_cell_angle_alpha    89.99999991251168
_cell_angle_beta     90.00006128514191
_cell_angle_gamma    98.41551814054414

_space_group_name_H-M_alt    "P 1"
_space_group_IT_number       1

loop_
  _space_group_symop_operation_xyz
  'x, y, z'

loop_
  _atom_site_type_symbol
  _atom_site_label
  _atom_site_symmetry_multiplicity
  _atom_site_fract_x
  _atom_site_fract_y
  _atom_site_fract_z
  _atom_site_occupancy
  Ag  Ag1       1.0  0.773687985349767  0.782967561907398  0.8998328660211069  1.0000
  Ag  Ag2       1.0  0.2736873206210931  0.2829666872975807  0.600166957875089  1.0000
  Ag  Ag3       1.0  0.22631645796569444  0.21703012080308773  0.10016604837097987  1.0000
  Ag  Ag4       1.0  0.7263127406611434  0.7170331003075745  0.399827127649523  1.0000
  H   H1        1.0  0.7546974179523289  0.17060936043743172  0.7765020216401691  1.0000
  H   H2        1.0  0.2547023369723362  0.6706100706952682  0.7234994006949619  1.0000
  H   H3        1.0  0.2452978605059641  0.8293905049326254  0.22350091680351614  1.0000
  H   H4        1.0  0.7452987196206919  0.3293886839038009  0.27649951369589587  1.0000
  H   H5        1.0  0.581609622033156  0.046414141482401305  0.7938400039696202  1.0000
  H   H6        1.0  0.0816127224240972  0.5464179273314541  0.7061612971554041  1.0000
  H   H7        1.0  0.4183864513316777  0.9535836773154427  0.206163739285344  1.0000
  H   H8        1.0  0.9183899306773357  0.45358283495778556  0.29383600761404677  1.0000
  H   H9        1.0  0.6768165834316023  0.9974624919755473  0.9805730761611496  1.0000
  H   H10       1.0  0.17681638757581913  0.49746463949259123  0.5194266738184297  1.0000
  H   H11       1.0  0.32318526806928116  0.002534216051493798  0.019428252662954993  1.0000
  H   H12       1.0  0.8231876616350322  0.5025371169214452  0.48057143576248496  1.0000
  H   H13       1.0  0.6284274635976104  0.16306561817594195  0.9606298517027552  1.0000
  H   H14       1.0  0.12842789920986772  0.6630694045453325  0.539369870806709  1.0000
  H   H15       1.0  0.371575784013352  0.8369320839759734  0.039373086743800884  1.0000
  H   H16       1.0  0.8715791426188064  0.33693535368366406  0.46062743396426925  1.0000
  H   H17       1.0  0.8235610215912531  0.8426698739748701  0.6454007449383851  1.0000
  H   H18       1.0  0.3235637664863376  0.3426720596993249  0.8546007229938863  1.0000
  H   H19       1.0  0.17643585337412301  0.15733199908518  0.3545989742619253  1.0000
  H   H20       1.0  0.6764360943995557  0.6573267143408047  0.14539899620752544  1.0000
  H   H21       1.0  0.6205306925930857  0.8650618110678466  0.6746442838064295  1.0000
  H   H22       1.0  0.12053338955841751  0.3650639900662185  0.8253562335392811  1.0000
  H   H23       1.0  0.3794681729859661  0.1349379959789232  0.3253554353946129  1.0000
  H   H24       1.0  0.8794678674355795  0.6349357780985087  0.17464268085164034  1.0000
  H   H25       1.0  0.662337495562177  0.09830179610519  0.6045114685861888  1.0000
  H   H26       1.0  0.16233532181991717  0.5983016490007601  0.89548988919811  1.0000
  H   H27       1.0  0.33766077551261736  0.9017010710796498  0.3954890554255924  1.0000
  H   H28       1.0  0.8376609519425744  0.40169718336228044  0.10450983000201566  1.0000
  H   H29       1.0  0.7140354007591229  0.9839792159179837  0.50611126317996  1.0000
  H   H30       1.0  0.21403817354232757  0.48398042011305614  0.9938893185355224  1.0000
  H   H31       1.0  0.28595888238969286  0.016021682458337197  0.49388845601943376  1.0000
  H   H32       1.0  0.7859630834510015  0.5160193480515858  0.006108791044418599  1.0000
  H   H33       1.0  0.9193812002025867  0.9970673321258517  0.7795112599735884  1.0000
  H   H34       1.0  0.4193809330778465  0.49706749875560524  0.7204894684138735  1.0000
  H   H35       1.0  0.08061667006962378  0.002933507927558299  0.22048845922709145  1.0000
  H   H36       1.0  0.5806189278080396  0.5029312752845244  0.2795102507875383  1.0000
  C   C1        1.0  0.7091817568930452  0.0739813892352643  0.8160898536651117  1.0000
  C   C2        1.0  0.20918561572465683  0.5739831233947754  0.6839131477874643  1.0000
  C   C3        1.0  0.29081551217892354  0.9260164101215126  0.1839130847792987  1.0000
  C   C4        1.0  0.7908180326869144  0.4260166058882929  0.3160881810372587  1.0000
  C   C5        1.0  0.7144385221728841  0.09416733818955686  0.9380935661650367  1.0000
  C   C6        1.0  0.21443999003072634  0.5941700967359935  0.5619094386164746  1.0000
  C   C7        1.0  0.28556213362218597  0.9058293892787292  0.06191017709158328  1.0000
  C   C8        1.0  0.785565254890564  0.4058316402374373  0.43809189020878836  1.0000
  C   C9        1.0  0.8724043568982865  0.1511808002610522  0.9786383896097204  1.0000
  C   C10       1.0  0.3724083501188247  0.6511845241656075  0.5213615077545626  1.0000
  C   C11       1.0  0.1275937070769189  0.8488149525230497  0.021361329591080395  1.0000
  C   C12       1.0  0.6276018780326497  0.34881814860932536  0.4786374066395424  1.0000
  C   C13       1.0  0.746018724358784  0.916475941614152  0.6707667488582344  1.0000
  C   C14       1.0  0.24602122727702647  0.41647710793851195  0.8292322475687823  1.0000
  C   C15       1.0  0.25397795020629144  0.0835249178803181  0.3292337751529928  1.0000
  C   C16       1.0  0.7539800297149882  0.5835226602259382  0.17076425238920478  1.0000
  C   C17       1.0  0.7499651070781255  0.029516537892575904  0.5848354818472925  1.0000
  C   C18       1.0  0.24996855001845117  0.5295203718123034  0.9151651353101823  1.0000
  C   C19       1.0  0.2500321619925217  0.9704812614640161  0.41516584697515657  1.0000
  C   C20       1.0  0.7500335085800531  0.4704834506151982  0.08483458389196126  1.0000
  C   C21       1.0  0.9080288418588155  0.10948523659948249  0.5739029852022239  1.0000
  C   C22       1.0  0.408027720286917  0.6094901643632298  0.926097743358049  1.0000
  C   C23       1.0  0.09197141982833296  0.8905155645718918  0.4260959291883353  1.0000
  C   C24       1.0  0.5919731426024628  0.39051367750505506  0.07390036622170727  1.0000
  N   N1        1.0  0.7966878087200585  0.963828232021761  0.7795385800006611  1.0000
  N   N2        1.0  0.29668794235173124  0.46383042577646444  0.7204612564834746  1.0000
  N   N3        1.0  0.2033110568583396  0.036171575024916094  0.2204603343894006  1.0000
  N   N4        1.0  0.7033123193347633  0.5361703753948178  0.279536853096097  1.0000
  N   N5        1.0  4.0492168139406564e-05  0.19788447442248724  0.009554713846497996  1.0000
  N   N6        1.0  0.5000401096985031  0.6978853893139245  0.49044473914126013  1.0000
  N   N7        1.0  0.9999651468584219  0.8021131888474853  0.9904482246009106  1.0000
  N   N8        1.0  0.49996493481918963  0.30211533409347163  0.509553370440031  1.0000
  N   N9        1.0  0.0356226278296319  0.17425665145510996  0.5685040002940693  1.0000
  N   N10       1.0  0.5356223491456334  0.6742585663539842  0.9314956555609225  1.0000
  N   N11       1.0  0.9643766385513429  0.825745182722997  0.43149571890710076  1.0000
  N   N12       1.0  0.4643783133414631  0.3257442619484507  0.06850084439681577  1.0000
  Cl  Cl1       1.0  0.7475167936049375  0.4684358994728725  0.756034063048929  1.0000
  Cl  Cl2       1.0  0.24751556723244758  0.9684356980776841  0.7439689573913878  1.0000
  Cl  Cl3       1.0  0.2524872489099295  0.5315597561064607  0.24396646096499805  1.0000
  Cl  Cl4       1.0  0.7524763245007692  0.031565239180587006  0.2560307618071532  1.0000
  O   O1        1.0  0.8360416017712994  0.384076607093604  0.6885378180101325  1.0000
  O   O2        1.0  0.3360406864174976  0.8840774347873008  0.8114580242891376  1.0000
  O   O3        1.0  0.16395387038537027  0.6159181710064915  0.31145948675681717  1.0000
  O   O4        1.0  0.6639510049147574  0.11592248890529794  0.1885416949093397  1.0000
  O   O5        1.0  0.8632255387668694  0.5482767476703644  0.8295052979274968  1.0000
  O   O6        1.0  0.3632166260469774  0.0482821261577584  0.6704962046883621  1.0000
  O   O7        1.0  0.1367810821712467  0.45170768092310704  0.17049844533138264  1.0000
  O   O8        1.0  0.6367774634021475  0.9517238594883325  0.3295075385657994  1.0000
  O   O9        1.0  0.670054768461192  0.5609705477689958  0.6885699491626054  1.0000
  O   O10       1.0  0.1700406892984887  0.0609607940682366  0.8114314149394911  1.0000
  O   O11       1.0  0.3299586527149927  0.4390361403874082  0.3114354037204307  1.0000
  O   O12       1.0  0.8299444222938704  0.9390361861324973  0.1885707186896042  1.0000
  O   O13       1.0  0.624478942585661  0.38315322210895897  0.8189404605373196  1.0000
  O   O14       1.0  0.12447302397726652  0.8831479967390266  0.6810544255667492  1.0000
  O   O15       1.0  0.3755195221901531  0.6168445578062887  0.18105764904164795  1.0000
  O   O16       1.0  0.8755212591682524  0.1168529016368325  0.3189412695777491  1.0000
