data_image0
_chemical_formula_structural       Na4H8C8N20O8
_chemical_formula_sum              "Na4 H8 C8 N20 O8"
_cell_length_a       3.6056414931514786
_cell_length_b       9.982009936377379
_cell_length_c       15.943841143008717
_cell_angle_alpha    90.00010851961365
_cell_angle_beta     89.99994438802332
_cell_angle_gamma    97.83011734225276

_space_group_name_H-M_alt    "P 1"
_space_group_IT_number       1

loop_
  _space_group_symop_operation_xyz
  'x, y, z'

loop_
  _atom_site_type_symbol
  _atom_site_label
  _atom_site_symmetry_multiplicity
  _atom_site_fract_x
  _atom_site_fract_y
  _atom_site_fract_z
  _atom_site_occupancy
  Na  Na1       1.0  0.7018390062097737  0.9028152828119005  0.08242664616872022  1.0000
  Na  Na2       1.0  0.2981693264946585  0.5971851413733518  0.5824270974127048  1.0000
  Na  Na3       1.0  0.29816714853720333  0.0971840001911772  0.9175718898793974  1.0000
  Na  Na4       1.0  0.7018419800495792  0.4028131226163509  0.417573320238624  1.0000
  H   H1        1.0  0.1803343777503343  0.9303018949460194  0.22374272160455183  1.0000
  H   H2        1.0  0.819664719824729  0.5696979364810631  0.7237430401707527  1.0000
  H   H3        1.0  0.819666233113871  0.0696973958500493  0.7762558144441061  1.0000
  H   H4        1.0  0.1803275752129849  0.4303013660062973  0.2762567502815827  1.0000
  H   H5        1.0  0.2012143090160166  0.06935074350167979  0.17458028548873733  1.0000
  H   H6        1.0  0.7987858146092393  0.4306487291125264  0.6745804036805083  1.0000
  H   H7        1.0  0.7987835299032966  0.9306485511935917  0.8254201321644886  1.0000
  H   H8        1.0  0.201219948052227  0.5693495426701745  0.3254200139713603  1.0000
  C   C1        1.0  0.1463554842111918  0.5708550791184379  0.88261134689121  1.0000
  C   C2        1.0  0.8536370846941705  0.9291442061759336  0.3826096428363074  1.0000
  C   C3        1.0  0.8536368108230121  0.42914422337162955  0.11739032516542384  1.0000
  C   C4        1.0  0.1463579822849255  0.07085509241493783  0.6173901476157583  1.0000
  C   C5        1.0  0.2107161594967693  0.43535480026158524  0.8722442488577329  1.0000
  C   C6        1.0  0.7892784669636156  0.06464727156320287  0.3722440118484372  1.0000
  C   C7        1.0  0.7892820715068751  0.5646455056549655  0.12775491439317935  1.0000
  C   C8        1.0  0.21071343599210476  0.9353510197010733  0.6277557786033442  1.0000
  N   N1        1.0  0.25263552091783487  0.6452148591924357  0.9515289007773973  1.0000
  N   N2        1.0  0.747357182950161  0.8547856357036848  0.4515277573000845  1.0000
  N   N3        1.0  0.74737183743904  0.3547803750245108  0.0484715168725387  1.0000
  N   N4        1.0  0.2526410480546559  0.1452146702119705  0.5484707787493975  1.0000
  N   N5        1.0  0.14414401207259434  0.7636629678285728  0.9316661384450171  1.0000
  N   N6        1.0  0.8558554860263071  0.7363404957708183  0.431666089722377  1.0000
  N   N7        1.0  0.8558494592122725  0.23633936832715108  0.06833302480755073  1.0000
  N   N8        1.0  0.14415304857889308  0.26365777211358205  0.568333073526361  1.0000
  N   N9        1.0  0.9796472233929733  0.7638360809869053  0.8551029520228823  1.0000
  N   N10       1.0  0.020351384101196978  0.7361641285586913  0.35510369127872826  1.0000
  N   N11       1.0  0.02034941191057982  0.23616726249901626  0.14489872003569812  1.0000
  N   N12       1.0  0.9796559468894158  0.2638381881154572  0.644896099173927  1.0000
  N   N13       1.0  0.9821012087790493  0.6408666054256997  0.8240419832377202  1.0000
  N   N14       1.0  0.01789432320779838  0.8591395898423073  0.32404223981045294  1.0000
  N   N15       1.0  0.017891086258664788  0.35913269706166057  0.1759578072146155  1.0000
  N   N16       1.0  0.9821126157008209  0.1408617156087502  0.6759575506416411  1.0000
  N   N17       1.0  0.27019993064325826  0.3244221985741405  0.8634376428462789  1.0000
  N   N18       1.0  0.7297737567561456  0.17557583028342796  0.363436920038474  1.0000
  N   N19       1.0  0.7297959205021627  0.6755791224610943  0.13656089320403456  1.0000
  N   N20       1.0  0.27020983037542123  0.8244224726703352  0.6365628704141174  1.0000
  O   O1        1.0  0.19054716450487771  0.8679845790574134  0.9794263297345724  1.0000
  O   O2        1.0  0.8094707748322064  0.6320169722996737  0.4794280493558105  1.0000
  O   O3        1.0  0.8094625463427859  0.1320167224989532  0.020574715120119404  1.0000
  O   O4        1.0  0.1905476439215974  0.3679853287902971  0.5205729954986325  1.0000
  O   O5        1.0  0.24531839895224986  0.9745555214894988  0.16889585761914824  1.0000
  O   O6        1.0  0.7546840672695083  0.5254451593884752  0.6688961368694067  1.0000
  O   O7        1.0  0.7546798320502222  0.025444784427961102  0.8311039328332086  1.0000
  O   O8        1.0  0.24531377164980478  0.47455413530680346  0.33110428078382637  1.0000
