data_image0
_chemical_formula_structural       Nd2H54C56N2O24
_chemical_formula_sum              "Nd2 H54 C56 N2 O24"
_cell_length_a       10.805704998530645
_cell_length_b       11.61318689529291
_cell_length_c       13.793
_cell_angle_alpha    95.3785005217531
_cell_angle_beta     103.36184512060791
_cell_angle_gamma    108.3905937947212

_space_group_name_H-M_alt    "P 1"
_space_group_IT_number       1

loop_
  _space_group_symop_operation_xyz
  'x, y, z'

loop_
  _atom_site_type_symbol
  _atom_site_label
  _atom_site_symmetry_multiplicity
  _atom_site_fract_x
  _atom_site_fract_y
  _atom_site_fract_z
  _atom_site_occupancy
  Nd  Nd1       1.0  0.7993597626321005  0.4705099068490739  0.5649030808072837  1.0000
  Nd  Nd2       1.0  0.20063929711834316  0.5294891344893742  0.43509580329698144  1.0000
  H   H1        1.0  0.49274991368991294  0.23751575616093853  0.5323797945136874  1.0000
  H   H2        1.0  0.5072420263010927  0.7624795948241359  0.4676196843398302  1.0000
  H   H3        1.0  0.517077612178774  0.4370024207918277  0.20981502314434414  1.0000
  H   H4        1.0  0.4829218007330098  0.5629975431349692  0.7901868977326245  1.0000
  H   H5        1.0  0.38630320558171866  0.4047275127618448  0.2714120028449187  1.0000
  H   H6        1.0  0.613694549821709  0.5952706059882616  0.7285880223087206  1.0000
  H   H7        1.0  0.30834368694217323  0.4762530192890253  0.11973211463151764  1.0000
  H   H8        1.0  0.6916552645099259  0.5237432542843976  0.8802672564358361  1.0000
  H   H9        1.0  0.21570307516331877  0.31400755574260597  0.09889068762896615  1.0000
  H   H10       1.0  0.7842965826114608  0.6859905630075006  0.9011082319348703  1.0000
  H   H11       1.0  0.13062530935457062  0.410258429882724  0.977448553474197  1.0000
  H   H12       1.0  0.8693827725266631  0.5897443018090982  0.022556605350814593  1.0000
  H   H13       1.0  0.021647276541735035  0.43241900189999444  0.8035156350048568  1.0000
  H   H14       1.0  0.9783577069194678  0.5675855749685184  0.19648983348537288  1.0000
  H   H15       1.0  0.44373002650375787  0.3298613138418887  0.8696705343572547  1.0000
  H   H16       1.0  0.5562692781096814  0.670135882319876  0.13032752345019114  1.0000
  H   H17       1.0  0.3318405440399347  0.35059095133797774  0.6949779460692723  1.0000
  H   H18       1.0  0.6681562601778098  0.6494071674121287  0.305021906873833  1.0000
  H   H19       1.0  0.621534266572624  0.30594228844140053  0.2916900587627325  1.0000
  H   H20       1.0  0.37846751017019636  0.6940613658387704  0.7083111313177426  1.0000
  H   H21       1.0  0.5398992630485894  0.1441848741288396  0.24015947525429485  1.0000
  H   H22       1.0  0.4601063184369495  0.8558187801513315  0.75984022865201  1.0000
  H   H23       1.0  0.6217739877635111  0.3485003661510007  0.11754198437947143  1.0000
  H   H24       1.0  0.378225180285277  0.6515014429524798  0.8824578627725758  1.0000
  H   H25       1.0  0.7211940480867014  0.2567305035965575  0.16237594112612191  1.0000
  H   H26       1.0  0.2788087881401466  0.7432759184486386  0.8376242091963564  1.0000
  H   H27       1.0  0.7434824438814048  0.3399710369128854  0.013234404940845924  1.0000
  H   H28       1.0  0.25652017574875435  0.6600298496022532  0.986765994302388  1.0000
  H   H29       1.0  0.7633205542300772  0.36193509761292836  0.8395802967175572  1.0000
  H   H30       1.0  0.23667684801201014  0.6380620985488363  0.16041886667969155  1.0000
  H   H31       1.0  0.37650765547469695  0.0247262902012864  0.887901875333789  1.0000
  H   H32       1.0  0.6234965133654812  0.9752736737255108  0.11210235660674077  1.0000
  H   H33       1.0  0.3898912444994665  0.05529348720695281  0.7131419016177317  1.0000
  H   H34       1.0  0.610106510903961  0.9447046315431608  0.2868617485630979  1.0000
  H   H35       1.0  0.34899916969822453  0.14424207460615432  0.3107073432946024  1.0000
  H   H36       1.0  0.651001439262231  0.855756044143952  0.6892931984906455  1.0000
  H   H37       1.0  0.23541694844837485  0.2044271252117582  0.23826969877776355  1.0000
  H   H38       1.0  0.7645827093263976  0.7955709935383481  0.7617299457915082  1.0000
  H   H39       1.0  0.316329020009846  0.9912086195990427  0.1573041090539889  1.0000
  H   H40       1.0  0.6836728932976258  0.0087904217394055  0.8426938416710072  1.0000
  H   H41       1.0  0.1604755121916669  0.9816026297637493  0.18676152146904468  1.0000
  H   H42       1.0  0.839526999140148  0.0183954889863571  0.8132350147046524  1.0000
  H   H43       1.0  0.10808471886710444  0.8214578998760942  0.07264296686010853  1.0000
  H   H44       1.0  0.8919105361406212  0.178541141462361  0.9273523283802592  1.0000
  H   H45       1.0  0.004931606242905698  0.6547720186311352  0.9215582669475282  1.0000
  H   H46       1.0  0.9950615015304721  0.34522886788401064  0.078437510168591  1.0000
  H   H47       1.0  0.1565259182158698  0.09223946002141761  0.8773207033135789  1.0000
  H   H48       1.0  0.8434818105040236  0.907762349082063  0.12267851871697397  1.0000
  H   H49       1.0  0.05818564415083223  0.9216722135410295  0.7255271308263502  1.0000
  H   H50       1.0  0.9418157794306481  0.07833051815079982  0.274470297475979  1.0000
  H   H51       1.0  0.8834485848627909  0.2970033299786508  0.4171146647247924  1.0000
  H   H52       1.0  0.11654797449195803  0.7029966339481462  0.5828831144933844  1.0000
  H   H53       1.0  0.725183217625066  0.2565090823940537  0.38149873675718743  1.0000
  H   H54       1.0  0.27481404805237014  0.7434927267094267  0.61850149097922  1.0000
  C   C1        1.0  0.4152629200161187  0.3732690954160988  0.2047973306632614  1.0000
  C   C2        1.0  0.5847361397343178  0.6267299459223494  0.7952030034518744  1.0000
  C   C3        1.0  0.31679236396078647  0.3840135592676006  0.11146269778534901  1.0000
  C   C4        1.0  0.6832072938139931  0.6159845594825059  0.8885383967948074  1.0000
  C   C5        1.0  0.2964324125888568  0.3713934733132191  0.9344214044950974  1.0000
  C   C6        1.0  0.7035715113883256  0.6286083357902612  0.06558002871506831  1.0000
  C   C7        1.0  0.17508094484662712  0.3972628504724298  0.9159389553858831  1.0000
  C   C8        1.0  0.8249228708322036  0.6027361908660183  0.08406296478737126  1.0000
  C   C9        1.0  0.11356537766556583  0.40884594712841965  0.8184889641775683  1.0000
  C   C10       1.0  0.8864373502629378  0.5911577071517514  0.18151529813518869  1.0000
  C   C11       1.0  0.35103123618466014  0.3514794039130251  0.8538708707614903  1.0000
  C   C12       1.0  0.6489703239614782  0.6485187148370813  0.14612911822885621  1.0000
  C   C13       1.0  0.28923106118490693  0.36351918179917675  0.7577423036163253  1.0000
  C   C14       1.0  0.7107696560738931  0.6364817047159619  0.24225992622213974  1.0000
  C   C15       1.0  0.17167523757592562  0.3952414594112383  0.7392482331193051  1.0000
  C   C16       1.0  0.8283254796828817  0.6047594271039003  0.26075399671916  1.0000
  C   C17       1.0  0.11911160082618014  0.42415722328156863  0.639136919690401  1.0000
  C   C18       1.0  0.8808844970688767  0.5758390502918546  0.3608641097616569  1.0000
  C   C19       1.0  0.5498397395772301  0.2372315989510554  0.22407161893388408  1.0000
  C   C20       1.0  0.45016358637561654  0.7627711327407668  0.7759290538112611  1.0000
  C   C21       1.0  0.6171145922934897  0.2584705052129053  0.1386281691760161  1.0000
  C   C22       1.0  0.382887537610678  0.7415340716556076  0.8613731576554217  1.0000
  C   C23       1.0  0.5578031920650091  0.1802294781314515  0.9611727683540111  1.0000
  C   C24       1.0  0.4422058410019076  0.8197732535603777  0.0388296626597935  1.0000
  C   C25       1.0  0.6675525470495317  0.2759424832671513  0.9481759752470325  1.0000
  C   C26       1.0  0.33244922969328883  0.7240611710130197  0.05182376482256503  1.0000
  C   C27       1.0  0.6786652313208635  0.2885828661650933  0.8512072510113099  1.0000
  C   C28       1.0  0.3213370351479555  0.7114170977617037  0.14879156147007683  1.0000
  C   C29       1.0  0.4605441382698957  0.09788570068526782  0.8758815864565862  1.0000
  C   C30       1.0  0.5394575301745874  0.9021151858298708  0.12412154059785513  1.0000
  C   C31       1.0  0.4691199178347604  0.11483457114860582  0.7792198938325259  1.0000
  C   C32       1.0  0.5308829466583946  0.8851644701898496  0.22078257913562999  1.0000
  C   C33       1.0  0.5788328641679642  0.2104922209836744  0.7656132858079587  1.0000
  C   C34       1.0  0.42116239083976853  0.7895068203547738  0.23438780947591206  1.0000
  C   C35       1.0  0.5901951011719007  0.23977702019151084  0.6662891357771343  1.0000
  C   C36       1.0  0.4098050180625635  0.7602247889119766  0.3337108835854465  1.0000
  C   C37       1.0  0.3126138401459145  0.16286452032507984  0.2337755824243501  1.0000
  C   C38       1.0  0.687385817628865  0.8371335984250267  0.7662247871503639  1.0000
  C   C39       1.0  0.244669304353117  0.04014919954402531  0.16121240590645408  1.0000
  C   C40       1.0  0.755333913301378  0.9598507643827716  0.8387858537800386  1.0000
  C   C41       1.0  0.138936196119687  0.9678994250937907  0.9841373856517492  1.0000
  C   C42       1.0  0.8610673746961555  0.0321014614213482  0.01586028578027055  1.0000
  C   C43       1.0  0.09696171941099155  0.8444506465794391  0.9972375161416168  1.0000
  C   C44       1.0  0.9030393510091559  0.1555511625240413  0.002758325398879402  1.0000
  C   C45       1.0  0.03945208985093981  0.7510625640700326  0.9126771284713371  1.0000
  C   C46       1.0  0.9605445778021533  0.24894016762179666  0.08732016378374406  1.0000
  C   C47       1.0  0.1234282597782866  0.9956656438877831  0.8857149078905878  1.0000
  C   C48       1.0  0.8765762622232317  0.0043352426273557  0.11428221074652364  1.0000
  C   C49       1.0  0.06947096267683864  0.900939808279908  0.8019240886889707  1.0000
  C   C50       1.0  0.930531412090325  0.09906292341191401  0.19807351182388544  1.0000
  C   C51       1.0  0.025735229957412332  0.7770297355936792  0.8143999639282671  1.0000
  C   C52       1.0  0.974262388881364  0.2229729960981501  0.1855975005373551  1.0000
  C   C53       1.0  0.9583220150136854  0.673244082450026  0.7274071400505947  1.0000
  C   C54       1.0  0.041674652639414916  0.32675864924180337  0.2725901522044865  1.0000
  C   C55       1.0  0.4657192659159863  0.43092440878309196  0.47353007530099944  1.0000
  C   C56       1.0  0.5342792240764211  0.56906817443695  0.5264703709839296  1.0000
  N   N1        1.0  0.4182528844992248  0.24913944670404933  0.20202883142777495  1.0000
  N   N2        1.0  0.5817465284125589  0.7508605172227478  0.7979716394383235  1.0000
  O   O1        1.0  0.19473006232475143  0.0648856382170919  0.0621562794431441  1.0000
  O   O2        1.0  0.8052741065154194  0.9351143257097051  0.9378443274701951  1.0000
  O   O3        1.0  0.5372255702173092  0.1621679661255371  0.05236268801267129  1.0000
  O   O4        1.0  0.4627790600825534  0.8378356881546338  0.9476411937157252  1.0000
  O   O5        1.0  0.3686760265306149  0.36493812267188735  0.026556520166302316  1.0000
  O   O6        1.0  0.6313255336155238  0.6350599960782191  0.9734449188349219  1.0000
  O   O7        1.0  0.4773625809011008  0.1915062754573071  0.5896168519806579  1.0000
  O   O8        1.0  0.5226300654125922  0.8084909207044575  0.4103836253802201  1.0000
  O   O9        1.0  0.6982736403643629  0.3102028014129203  0.6552854555026074  1.0000
  O   O10       1.0  0.3017180547636543  0.6897943947488444  0.3447119496259817  1.0000
  O   O11       1.0  0.8777434570905243  0.572575855319954  0.742020059725533  1.0000
  O   O12       1.0  0.12225380858690474  0.42742595378353343  0.2579772679891263  1.0000
  O   O13       1.0  0.976971959583807  0.6837874220425846  0.6393936310340038  1.0000
  O   O14       1.0  0.023025795819620498  0.31621069670752183  0.3606042191033296  1.0000
  O   O15       1.0  0.1977233726388974  0.4423912593077618  0.5814531715559568  1.0000
  O   O16       1.0  0.8022667732790937  0.5576068594423447  0.41854402590251993  1.0000
  O   O17       1.0  0.0024806042129057087  0.4341377839844327  0.6156027807116757  1.0000
  O   O18       1.0  0.9975113357780998  0.5658575670006485  0.3844039481962156  1.0000
  O   O19       1.0  0.5436526607184007  0.36681005442139286  0.4798711858714029  1.0000
  O   O20       1.0  0.456342730853983  0.6331843739753397  0.5201223200243633  1.0000
  O   O21       1.0  0.34121498625889773  0.39317762928623523  0.4290226034531202  1.0000
  O   O22       1.0  0.6587758942480804  0.6068149539338138  0.5709800901747002  1.0000
  O   O23       1.0  0.8022583956028697  0.290719580769256  0.44163664752872483  1.0000
  O   O24       1.0  0.19773992955858694  0.7092849960992568  0.5583618154442505  1.0000
