data_image0
_chemical_formula_structural       Ba4P8H60C24N4Cl8O32
_chemical_formula_sum              "Ba4 P8 H60 C24 N4 Cl8 O32"
_cell_length_a       6.146361674
_cell_length_b       8.580907455678807
_cell_length_c       28.8664
_cell_angle_alpha    98.39458050964978
_cell_angle_beta     90.0
_cell_angle_gamma    90.0

_space_group_name_H-M_alt    "P 1"
_space_group_IT_number       1

loop_
  _space_group_symop_operation_xyz
  'x, y, z'

loop_
  _atom_site_type_symbol
  _atom_site_label
  _atom_site_symmetry_multiplicity
  _atom_site_fract_x
  _atom_site_fract_y
  _atom_site_fract_z
  _atom_site_occupancy
  Ba  Ba1       1.0  0.822330391226501  0.8335225132680932  0.9528303491209942  1.0000
  Ba  Ba2       1.0  0.322330527404624  0.6664799249538618  0.5471698606181619  1.0000
  Ba  Ba3       1.0  0.1776677094384738  0.1664783268806644  0.0471697566238447  1.0000
  Ba  Ba4       1.0  0.6776708272179022  0.3335232711925329  0.4528303473704653  1.0000
  P   P1        1.0  0.341060307086643  0.10340120220066502  0.9259444530950561  1.0000
  P   P2        1.0  0.8410520360146307  0.3966027518701694  0.5740543674489444  1.0000
  P   P3        1.0  0.6589361665995597  0.8965972819504628  0.07405520398246782  1.0000
  P   P4        1.0  0.1589428106927926  0.6034016222750367  0.4259448523910052  1.0000
  P   P5        1.0  0.3064609764127582  0.7593615977145589  0.8723241893485891  1.0000
  P   P6        1.0  0.8064673481497451  0.7406408405073961  0.6276756739670404  1.0000
  P   P7        1.0  0.6935354972734374  0.2406368864365618  0.1276761605759873  1.0000
  P   P8        1.0  0.193540514387891  0.2593611776401801  0.3723244828996926  1.0000
  H   H1        1.0  0.7437847368042796  0.4505833696817022  0.9842975119874426  1.0000
  H   H2        1.0  0.2437864999611818  0.049419406390306606  0.5157026431287619  1.0000
  H   H3        1.0  0.2562101099031437  0.549421004463504  0.015704479240689295  1.0000
  H   H4        1.0  0.7562132276825722  0.9505826117572624  0.4842971673144447  1.0000
  H   H5        1.0  0.584617403040248  0.49395257414550997  0.9456865163854432  1.0000
  H   H6        1.0  0.0846142852608196  0.0060466679300504  0.5543124460945137  1.0000
  H   H7        1.0  0.415382324603506  0.5060517999996963  0.05431408914860471  1.0000
  H   H8        1.0  0.9153838154041551  0.9939541722187073  0.4456869668032795  1.0000
  H   H9        1.0  0.2920898728746053  0.7820251169637729  0.012461202940897894  1.0000
  H   H10       1.0  0.7920913636752545  0.7179773212581821  0.4875393532217771  1.0000
  H   H11       1.0  0.707904973832818  0.2179769011838033  0.987538953925835  1.0000
  H   H12       1.0  0.2079002290746104  0.2820258748882125  0.5124612011903693  1.0000
  H   H13       1.0  0.3004476628525836  0.7029719723213077  0.959953040736302  1.0000
  H   H14       1.0  0.8004491536532399  0.7970292879018288  0.5400471178809596  1.0000
  H   H15       1.0  0.6995488108336119  0.2970300458262685  0.0400467697069118  1.0000
  H   H16       1.0  0.19954894701173492  0.2029703742481104  0.4599532831655112  1.0000
  H   H17       1.0  0.318311889825182  0.6780714333177187  0.7528817241529496  1.0000
  H   H18       1.0  0.8183198885409411  0.8219286489065993  0.7471183833424178  1.0000
  H   H19       1.0  0.681687837818572  0.321929406831039  0.2471183815918891  1.0000
  H   H20       1.0  0.181687973996695  0.1780674792468915  0.2528822107618964  1.0000
  H   H21       1.0  0.0864722950242722  0.6794532259306082  0.7903194026305442  1.0000
  H   H22       1.0  0.5864835476975898  0.8205456782948914  0.7096799608958834  1.0000
  H   H23       1.0  0.9135258056407026  0.3205452582205126  0.2096799080234675  1.0000
  H   H24       1.0  0.4135243148400534  0.1794528058562292  0.2903203890286932  1.0000
  H   H25       1.0  0.1349611435182823  0.3954860089912131  0.7947002059195256  1.0000
  H   H26       1.0  0.6349691422340484  0.1045120550855287  0.7052990518620562  1.0000
  H   H27       1.0  0.865033703189134  0.6045136531587261  0.20529880943284703  1.0000
  H   H28       1.0  0.3650370933248155  0.8954864290655922  0.2947023373330921  1.0000
  H   H29       1.0  0.1272997004569021  0.4234222509474038  0.7345370523879424  1.0000
  H   H30       1.0  0.6273076991726683  0.0765781691269751  0.7654619612139086  1.0000
  H   H31       1.0  0.8727016541656241  0.576578589201354  0.2654616676627981  1.0000
  H   H32       1.0  0.3726985363861957  0.9234179590265157  0.2345389793139319  1.0000
  H   H33       1.0  0.718055694423164  0.3406042220843162  0.7898367098875455  1.0000
  H   H34       1.0  0.2180672194527276  0.1593926639936072  0.7101642288897595  1.0000
  H   H35       1.0  0.2819407792630315  0.6593919060691749  0.2101645770638072  1.0000
  H   H36       1.0  0.7819422700636879  0.840604642158695  0.2898374556070138  1.0000
  H   H37       1.0  0.4852675709952052  0.3436257890511172  0.8275856215431006  1.0000
  H   H38       1.0  0.9852853315836257  0.1563734530244432  0.6724136873603825  1.0000
  H   H39       1.0  0.5147240217546596  0.6563726951000108  0.1724147283814759  1.0000
  H   H40       1.0  0.014724157932789701  0.843626209125496  0.32758775295666  1.0000
  H   H41       1.0  0.6894989629274448  0.591023210701117  0.8488979498155587  1.0000
  H   H42       1.0  0.18950723399945696  0.9089745155255713  0.651102055436013  1.0000
  H   H43       1.0  0.3104958837799785  0.4089740954511926  0.1511023489871235  1.0000
  H   H44       1.0  0.8104957476018484  0.0910251466243679  0.34889869203397694  1.0000
  H   H45       1.0  0.6914318137146438  0.6264326771553073  0.7896740153324089  1.0000
  H   H46       1.0  0.1914433387442074  0.8735638710725553  0.7103252459502303  1.0000
  H   H47       1.0  0.3085646599715517  0.3735622729993651  0.2103261812264918  1.0000
  H   H48       1.0  0.8085628968146494  0.1264310790821099  0.2896746041851372  1.0000
  H   H49       1.0  0.9986900097281861  0.2698112051499138  0.8966056880157467  1.0000
  H   H50       1.0  0.49868526496997845  0.2301903929232836  0.6033940695550442  1.0000
  H   H51       1.0  0.0013129718731193002  0.730187279001207  0.10339292979121241  1.0000
  H   H52       1.0  0.5013128356949963  0.7698104472254741  0.3966046504957035  1.0000
  H   H53       1.0  0.1525048556717934  0.4295796507662928  0.8790716500591459  1.0000
  H   H54       1.0  0.6525030925148911  0.0704231253057159  0.6209278122100201  1.0000
  H   H55       1.0  0.8475013798870705  0.5704176553860094  0.1209265702023998  1.0000
  H   H56       1.0  0.3474982621076421  0.9295788928418602  0.37907130538614814  1.0000
  H   H57       1.0  0.08363809799455882  0.4299943063500464  0.93940198041458  1.0000
  H   H58       1.0  0.5836330808801051  0.0700072917231509  0.5605974307326849  1.0000
  H   H59       1.0  0.9163632566279745  0.5700065337987112  0.0605963932126414  1.0000
  H   H60       1.0  0.4163650197848768  0.9299923704267883  0.43940123819616883  1.0000
  C   C1        1.0  0.3726415921289928  0.9716216706371981  0.8684893801265119  1.0000
  C   C2        1.0  0.8726398289720976  0.5283795895859384  0.631508699949606  1.0000
  C   C3        1.0  0.6273613894723127  0.0283756355151041  0.131510572252644  1.0000
  C   C4        1.0  0.1273664065867663  0.4716212505628193  0.36849002010114157  1.0000
  C   C5        1.0  0.2454915737195833  0.62470219689245  0.781833833990227  1.0000
  C   C6        1.0  0.7454995724353494  0.875297885331868  0.7181662735051404  1.0000
  C   C7        1.0  0.7545081539241707  0.3752986432563077  0.21816592533108553  1.0000
  C   C8        1.0  0.2545066631235144  0.1247005988192527  0.2818337299959168  1.0000
  C   C9        1.0  0.2206362189417774  0.4482898059840964  0.7671005910793198  1.0000
  C   C10       1.0  0.7206425906787572  0.051710614090282506  0.7328984225225312  1.0000
  C   C11       1.0  0.7793635087019767  0.5517098561658429  0.23289842427305985  1.0000
  C   C12       1.0  0.2793620179013274  0.9482878700608453  0.2671026202490907  1.0000
  C   C13       1.0  0.5623473175392562  0.3992520712106469  0.7994693433594477  1.0000
  C   C14       1.0  0.06236046954759901  0.10074717086491353  0.7005303119675547  1.0000
  C   C15       1.0  0.4376475291681672  0.6007464129404738  0.20053135298865502  1.0000
  C   C16       1.0  0.9376490199688164  0.8992501352873887  0.2994710261056994  1.0000
  C   C17       1.0  0.5969954575764547  0.574269711519122  0.8160934616562373  1.0000
  C   C18       1.0  0.097005355627239  0.9257268367087477  0.6839057996263946  1.0000
  C   C19       1.0  0.4030026430885201  0.4257275946331873  0.18390683714644507  1.0000
  C   C20       1.0  0.9030025069103971  0.0742716474423801  0.316094896721701  1.0000
  C   C21       1.0  0.1279700157130748  0.3561243565044236  0.9066206668004639  1.0000
  C   C22       1.0  0.6279666255773932  0.1438784195675922  0.5933787954686949  1.0000
  C   C23       1.0  0.8720329658882376  0.6438753056455155  0.0933780021283894  1.0000
  C   C24       1.0  0.3720347290451329  0.856123598579984  0.406619975703947  1.0000
  N   N1        1.0  0.3860121037192314  0.6532027002822076  0.8230895225280223  1.0000
  N   N2        1.0  0.8860217294137698  0.8467962039432921  0.6769101874219247  1.0000
  N   N3        1.0  0.613984369966964  0.3467969618677316  0.1769101856713959  1.0000
  N   N4        1.0  0.11398287916631492  0.1532022802078288  0.32309016250265193  1.0000
  Cl  Cl1       1.0  0.6539315798811884  0.9806804815435086  0.8515239175719884  1.0000
  Cl  Cl2       1.0  0.1539333430380907  0.5193172446831795  0.6484726234443485  1.0000
  Cl  Cl3       1.0  0.3460730286988963  0.0193191806064306  0.1484768298980015  1.0000
  Cl  Cl4       1.0  0.8460761464783246  0.48068006146912984  0.351524211123099  1.0000
  Cl  Cl5       1.0  0.2047910726315649  0.036426079433667304  0.8243612556841242  1.0000
  Cl  Cl6       1.0  0.7047893094746628  0.4635743406407116  0.6756374114942005  1.0000
  Cl  Cl7       1.0  0.7952119089697405  0.9635676927221866  0.17563715763525778  1.0000
  Cl  Cl8       1.0  0.2952201800417527  0.5364264995080461  0.3243626942506381  1.0000
  O   O1        1.0  0.7073696978151531  0.5351224548171134  0.9651324609872847  1.0000
  O   O2        1.0  0.2073698339932761  0.9648776274072048  0.5348673000845565  1.0000
  O   O3        1.0  0.2926267758710495  0.4648842753257371  0.034871364602260306  1.0000
  O   O4        1.0  0.7926282666716985  0.03512203474273431  0.4651320616913425  1.0000
  O   O5        1.0  0.2087462580387012  0.7087429885280656  0.9888142592798133  1.0000
  O   O6        1.0  0.7087461218605783  0.7912570936962524  0.5111858482155469  1.0000
  O   O7        1.0  0.7912502156474944  0.2912590296195035  0.011185551163393398  1.0000
  O   O8        1.0  0.2912503518256173  0.20874374645250532  0.4888152967998566  1.0000
  O   O9        1.0  0.4285771224858124  0.3738155427451204  0.7582347280692687  1.0000
  O   O10       1.0  0.9285867481803507  0.1261836993304399  0.7417645808342074  1.0000
  O   O11       1.0  0.5714209781791624  0.6261829414060003  0.2417649290082622  1.0000
  O   O12       1.0  0.0714211143572854  0.8738124288230438  0.2582363596936261  1.0000
  O   O13       1.0  0.5462613783700334  0.0895196641356506  0.9540158541659309  1.0000
  O   O14       1.0  0.046243617781613  0.4104854679340022  0.5459805925353081  1.0000
  O   O15       1.0  0.4537334683373828  0.9104799980142886  0.04598489330406609  1.0000
  O   O16       1.0  0.9537398400743698  0.5895212622088479  0.4540156117367148  1.0000
  O   O17       1.0  0.1300769532294197  0.0642032915494966  0.9487663468876093  1.0000
  O   O18       1.0  0.6300638012210769  0.4358006625213307  0.5512345521975419  1.0000
  O   O19       1.0  0.8699178934780036  0.9357975485992541  0.0512323731631383  1.0000
  O   O20       1.0  0.3699245375712366  0.5642037116238754  0.44876674618355145  1.0000
  O   O21       1.0  0.3346304869595258  0.2790431818823934  0.9129788796972989  1.0000
  O   O22       1.0  0.834623842866293  0.2209595941896225  0.5870195433012954  1.0000
  O   O23       1.0  0.6653708676630004  0.7209576582663644  0.08702087962402061  1.0000
  O   O24       1.0  0.1653742577986819  0.7790424239579536  0.4129781886007748  1.0000
  O   O25       1.0  0.45035260643856395  0.7195687976605711  0.9119470963938312  1.0000
  O   O26       1.0  0.9503540972392202  0.7804336405613768  0.5880531133453175  1.0000
  O   O27       1.0  0.5496438672476316  0.2804273304929126  0.0880531512869567  1.0000
  O   O28       1.0  0.049647257383313104  0.2195707335838293  0.41194749218872323  1.0000
  O   O29       1.0  0.0633854661771736  0.7493674557471763  0.8775901774346124  1.0000
  O   O30       1.0  0.563388583956602  0.7506373384724085  0.6224101345483248  1.0000
  O   O31       1.0  0.9366126344878012  0.2506345624003927  0.122410672279166  1.0000
  O   O32       1.0  0.4366160246234827  0.2493635016763491  0.3775906640435593  1.0000
