data_image0
_chemical_formula_structural       Al2H16C30O10F2
_chemical_formula_sum              "Al2 H16 C30 O10 F2"
_cell_length_a       6.75232672152124
_cell_length_b       15.394669563435356
_cell_length_c       17.819003556878005
_cell_angle_alpha    83.21448605704411
_cell_angle_beta     79.02840435699949
_cell_angle_gamma    78.04077785709185

_space_group_name_H-M_alt    "P 1"
_space_group_IT_number       1

loop_
  _space_group_symop_operation_xyz
  'x, y, z'

loop_
  _atom_site_type_symbol
  _atom_site_label
  _atom_site_symmetry_multiplicity
  _atom_site_fract_x
  _atom_site_fract_y
  _atom_site_fract_z
  _atom_site_occupancy
  Al  Al1       1.0  0.4999970801789004  0.5000073092193205  0.49999975704484007  1.0000
  Al  Al2       1.0  3.1427773308605566e-06  0.500005532859994  0.5000005024532399  1.0000
  H   H1        1.0  0.25419160980404604  0.4128193050076589  0.5743022957507762  1.0000
  H   H2        1.0  0.7458113021315854  0.5871927093660644  0.4256962255114942  1.0000
  H   H3        1.0  0.6854331175214198  0.4972788332436408  0.2685233174064835  1.0000
  H   H4        1.0  0.7583094473942822  0.4983094051756252  0.1251852337319903  1.0000
  H   H5        1.0  0.12001738804643479  0.49824947805735315  0.1253148199289811  1.0000
  H   H6        1.0  0.050255527944472106  0.49718860629728556  0.2686433198530978  1.0000
  H   H7        1.0  0.8800149633899325  0.501809616105504  0.8746723120340719  1.0000
  H   H8        1.0  0.9497267459818487  0.5028938602020644  0.7313377644160539  1.0000
  H   H9        1.0  0.3145989256639298  0.5026769295747612  0.7314869968550896  1.0000
  H   H10       1.0  0.24173896708493461  0.5016630937071297  0.874823723335382  1.0000
  H   H11       1.0  0.7998131303783464  0.768516326028539  0.5028917101946605  1.0000
  H   H12       1.0  0.20019404651729636  0.23149300163593262  0.4971078334897642  1.0000
  H   H13       1.0  0.5668715039229255  0.22566654757319066  0.49702593968771686  1.0000
  H   H14       1.0  0.6507555339046787  0.06396354514453148  0.498631830249515  1.0000
  H   H15       1.0  0.4331415798879733  0.7743430467469422  0.5029664187991685  1.0000
  H   H16       1.0  0.3492422732828544  0.9360497183717839  0.5013686478509172  1.0000
  C   C1        1.0  0.8269056329288417  0.3396872732065787  0.4982777147448303  1.0000
  C   C2        1.0  0.6799310754371888  0.5011402438961952  0.6381625489718133  1.0000
  C   C3        1.0  0.17309643645840822  0.6603265628264408  0.5017257793732526  1.0000
  C   C4        1.0  0.3200724302976639  0.49887699625831056  0.3618388933433181  1.0000
  C   C5        1.0  0.3635033452097857  0.49779905852428635  0.2767106187984041  1.0000
  C   C6        1.0  0.5633330978184787  0.4977997323194571  0.23626841633688406  1.0000
  C   C7        1.0  0.6035176088460547  0.4982658833021175  0.1568950726817988  1.0000
  C   C8        1.0  0.44363382271247076  0.49874203112979376  0.11582274326575263  1.0000
  C   C9        1.0  0.24306932928049457  0.4982351257331174  0.15697880447341822  1.0000
  C   C10       1.0  0.20421706943795917  0.497749330570464  0.2363342215278692  1.0000
  C   C11       1.0  0.4833721952237155  0.4995564160980662  0.03494050014168694  1.0000
  C   C12       1.0  0.5166924306605198  0.5004331513333538  0.965057541060446  1.0000
  C   C13       1.0  0.5564070999028418  0.5012661014166395  0.8841755749277453  1.0000
  C   C14       1.0  0.7569568952187854  0.5018079150745506  0.8430100137020915  1.0000
  C   C15       1.0  0.7957875400065645  0.5023077705611312  0.7636505798807321  1.0000
  C   C16       1.0  0.6365056053142838  0.5022129486944846  0.7232885891130607  1.0000
  C   C17       1.0  0.4366988251645336  0.5021855386288294  0.7637356916749526  1.0000
  C   C18       1.0  0.3965292132813262  0.5017100428374874  0.8431109269832575  1.0000
  C   C19       1.0  0.12392849068178446  0.7592005220371757  0.5024771052650365  1.0000
  C   C20       1.0  0.8760753578544893  0.24080947509823852  0.4975220658890933  1.0000
  C   C21       1.0  0.9225085703763156  0.8047636838580344  0.5022677287043535  1.0000
  C   C22       1.0  0.8779507993331565  0.896663643500666  0.5013537533968133  1.0000
  C   C23       1.0  0.07749315508517897  0.19524763707411097  0.4977314935134629  1.0000
  C   C24       1.0  0.12204488477959793  0.10335094381238005  0.4986467757673054  1.0000
  C   C25       1.0  0.7245774024895582  0.19116748628141514  0.4976682986350268  1.0000
  C   C26       1.0  0.773705286867397  0.09894843448172709  0.4985318695436193  1.0000
  C   C27       1.0  0.275425540422056  0.8088412101926534  0.5023299158560377  1.0000
  C   C28       1.0  0.22629556118511127  0.9010615271153596  0.5014680828354372  1.0000
  C   C29       1.0  0.024535509269810494  0.9506268924144475  0.5006577294643791  1.0000
  C   C30       1.0  0.9754598469673539  0.049388399907868974  0.49934164594451863  1.0000
  O   O1        1.0  0.6399562724037083  0.37752977100221585  0.4989330874852484  1.0000
  O   O2        1.0  0.8652388846146478  0.5003030171431319  0.6051759843274385  1.0000
  O   O3        1.0  0.023803090796562246  0.6218128773647037  0.5006554843204967  1.0000
  O   O4        1.0  0.47109263906034465  0.5001524070417958  0.39490303521775877  1.0000
  O   O5        1.0  0.3600473113332612  0.6224840534631183  0.5010708594325166  1.0000
  O   O6        1.0  0.13475770123814362  0.49970637193725037  0.3948209520339674  1.0000
  O   O7        1.0  0.9762032059297923  0.37819835019067216  0.49934678312066444  1.0000
  O   O8        1.0  0.528895974175072  0.49987741758944515  0.6050990713144273  1.0000
  O   O9        1.0  0.25182432914221653  0.46056792602291097  0.5337975500157983  1.0000
  O   O10       1.0  0.7481834470732521  0.5394401089704245  0.46620092753047976  1.0000
  F   F1        1.0  0.6753864040169972  0.9335683821793306  0.501101318632074  1.0000
  F   F2        1.0  0.3246127052676967  0.06644208085781139  0.4989032122145076  1.0000
