data_image0
_chemical_formula_structural       Rb2H26C24O18
_chemical_formula_sum              "Rb2 H26 C24 O18"
_cell_length_a       8.194776859292007
_cell_length_b       9.669985125179958
_cell_length_c       9.687693221595634
_cell_angle_alpha    116.89152587241483
_cell_angle_beta     95.01466465168498
_cell_angle_gamma    98.58248425691028

_space_group_name_H-M_alt    "P 1"
_space_group_IT_number       1

loop_
  _space_group_symop_operation_xyz
  'x, y, z'

loop_
  _atom_site_type_symbol
  _atom_site_label
  _atom_site_symmetry_multiplicity
  _atom_site_fract_x
  _atom_site_fract_y
  _atom_site_fract_z
  _atom_site_occupancy
  Rb  Rb1       1.0  0.7781666190834499  0.441189390587432  0.1814239911165386  1.0000
  Rb  Rb2       1.0  0.2218349154369577  0.5588095254228378  0.818575920135018  1.0000
  H   H1        1.0  0.15407131468287358  0.632995903268359  0.4885349037285776  1.0000
  H   H2        1.0  0.8459317294902532  0.3670041875783168  0.5114677102145675  1.0000
  H   H3        1.0  0.2699999810585609  0.17451124666747117  0.822677663640725  1.0000
  H   H4        1.0  0.730000861440118  0.825490054266659  0.1773212199516224  1.0000
  H   H5        1.0  0.6666576480034293  0.4144853504361876  0.7272229567744688  1.0000
  H   H6        1.0  0.3333395507280059  0.585515956916005  0.27277980790926637  1.0000
  H   H7        1.0  0.758570768014948  0.6588374618324052  0.9544157395649362  1.0000
  H   H8        1.0  0.2414307732614489  0.34116145129456754  0.045585203099989285  1.0000
  H   H9        1.0  0.9165488482360189  0.6884447323302538  0.08304448118740025  1.0000
  H   H10       1.0  0.0834517419869769  0.3115553733672272  0.9169569383009559  1.0000
  H   H11       1.0  0.8262937508084889  0.8053256932719817  0.4695295988127197  1.0000
  H   H12       1.0  0.1737077837119116  0.19467322273828808  0.5304703124388368  1.0000
  H   H13       1.0  0.584582601252322  0.6924882510445372  0.5080539806021561  1.0000
  H   H14       1.0  0.4154163458955437  0.30751543214730487  0.491946888050414  1.0000
  H   H15       1.0  0.49673376252123796  0.8076366671202845  0.7732674745500814  1.0000
  H   H16       1.0  0.5032713161239711  0.19236698038619685  0.22673586453278455  1.0000
  H   H17       1.0  0.4801559035130721  0.9094897223919598  0.5760324760717876  1.0000
  H   H18       1.0  0.5198444006542644  0.09050920248535728  0.4239663222456825  1.0000
  H   H19       1.0  0.7180536595041643  0.027115328824052702  0.5367730425531858  1.0000
  H   H20       1.0  0.2819471762385247  0.9728859749933673  0.4632248096257852  1.0000
  H   H21       1.0  0.9963300826207443  0.057969031082933484  0.6902232162287447  1.0000
  H   H22       1.0  0.0036696697032638976  0.9420275235041727  0.3097734339870825  1.0000
  H   H23       1.0  0.9932500966065374  0.09463086619135197  0.9632918708563593  1.0000
  H   H24       1.0  0.006755095193092567  0.9053680376342539  0.03670622213056147  1.0000
  H   H25       1.0  0.7245370043345501  0.9625813921654394  0.007366255787800762  1.0000
  H   H26       1.0  0.27546683044560893  0.03742226997468379  0.9926339075342198  1.0000
  C   C1        1.0  0.8438031776619468  0.8185177078145996  0.5889260675511706  1.0000
  C   C2        1.0  0.15619617545198844  0.18148240963322587  0.41107320758971605  1.0000
  C   C3        1.0  0.6778296276927376  0.7376905551890686  0.6156854122073268  1.0000
  C   C4        1.0  0.3221687811237857  0.2623107519459751  0.38431537117035924  1.0000
  C   C5        1.0  0.6102860719602105  0.8641601173805924  0.751142350190605  1.0000
  C   C6        1.0  0.3897162801911946  0.1358423583899366  0.24885923609333818  1.0000
  C   C7        1.0  0.5654166786409502  0.9803646968873633  0.6889467280547306  1.0000
  C   C8        1.0  0.4345836255263862  0.019634227989953994  0.3110520702627397  1.0000
  C   C9        1.0  0.7315558664563467  0.06180840401075471  0.6629756364018248  1.0000
  C   C10       1.0  0.2684434731456021  0.9381917192036722  0.3370215759123096  1.0000
  C   C11       1.0  0.8801513153088646  0.999517080287468  0.7067228499069524  1.0000
  C   C12       1.0  0.11984775850540791  0.00048185345690399985  0.2932748354764314  1.0000
  C   C13       1.0  0.9927128390790186  0.7475829337342644  0.6066885175364688  1.0000
  C   C14       1.0  0.007285031406162469  0.2524159973439735  0.39331218056634026  1.0000
  C   C15       1.0  0.6960058912158187  0.5884075699929383  0.6276801012269358  1.0000
  C   C16       1.0  0.3039922518130281  0.4115925476720505  0.37232115521999987  1.0000
  C   C17       1.0  0.4753772882028783  0.09782951772405821  0.8014336200122967  1.0000
  C   C18       1.0  0.5246245121051981  0.9021705877562664  0.19856581817001015  1.0000
  C   C19       1.0  0.7628569513533704  0.24162839605970993  0.7444336253530465  1.0000
  C   C20       1.0  0.23714418395695697  0.7583740828112794  0.2555689108235697  1.0000
  C   C21       1.0  0.8847223024829843  0.024488866474072803  0.8713769475728624  1.0000
  C   C22       1.0  0.11528030870010031  0.9755148016498009  0.128623134228455  1.0000
  C   C23       1.0  0.7438295649995154  0.9544557634239578  0.8946088981038538  1.0000
  C   C24       1.0  0.2561752208340451  0.045546706145657395  0.10539078839475019  1.0000
  O   O1        1.0  0.0606292007761695  0.6901996594414967  0.4767519699930388  1.0000
  O   O2        1.0  0.9393701658497517  0.30980045223973457  0.523249367974607  1.0000
  O   O3        1.0  0.04525876151532052  0.7434699309952248  0.7274801140153  1.0000
  O   O4        1.0  0.9547393815135266  0.2565301866697567  0.27252114243163555  1.0000
  O   O5        1.0  0.7307422066915664  0.47870867392619204  0.5054977456987756  1.0000
  O   O6        1.0  0.26925742572203143  0.5212926272250941  0.4945031191996279  1.0000
  O   O7        1.0  0.6715619177518306  0.5767832787924405  0.7510886994108787  1.0000
  O   O8        1.0  0.3284356801896848  0.42321446569903987  0.2489114403477969  1.0000
  O   O9        1.0  0.5396804754227984  0.1964825689980856  0.9377864225989043  1.0000
  O   O10       1.0  0.46031861865944984  0.803516356096395  0.06221435702461515  1.0000
  O   O11       1.0  0.31763417429625906  0.08378263116742347  0.7403715535876854  1.0000
  O   O12       1.0  0.6823676192558281  0.9162174771961984  0.25962685318124545  1.0000
  O   O13       1.0  0.8874821080609009  0.33233632426633614  0.8447319138631852  1.0000
  O   O14       1.0  0.11251698602135453  0.6676626008281442  0.15526886576033394  1.0000
  O   O15       1.0  0.6423912525014187  0.29133050238375796  0.6917546316951189  1.0000
  O   O16       1.0  0.3576083866681755  0.7086707958842311  0.3082472646166535  1.0000
  O   O17       1.0  0.7940978983608248  0.6826052430415855  0.06456764188597927  1.0000
  O   O18       1.0  0.20590268510618157  0.31739486553919244  0.9354327461890006  1.0000
