data_image0
_chemical_formula_structural       Zn8H24C76O34
_chemical_formula_sum              "Zn8 H24 C76 O34"
_cell_length_a       20.95942232359658
_cell_length_b       20.96049626393931
_cell_length_c       20.961453399619998
_cell_angle_alpha    103.31596693263366
_cell_angle_beta     112.53921749395893
_cell_angle_gamma    112.52144703514335

_space_group_name_H-M_alt    "P 1"
_space_group_IT_number       1

loop_
  _space_group_symop_operation_xyz
  'x, y, z'

loop_
  _atom_site_type_symbol
  _atom_site_label
  _atom_site_symmetry_multiplicity
  _atom_site_fract_x
  _atom_site_fract_y
  _atom_site_fract_z
  _atom_site_occupancy
  Zn  Zn1       1.0  0.5698529446126132  0.27513263879444594  0.7068459830301349  1.0000
  Zn  Zn2       1.0  0.5688136531146954  0.8628356418168934  0.2941054098373285  1.0000
  Zn  Zn3       1.0  0.5688320924844704  0.29411452634190033  0.8628409054181957  1.0000
  Zn  Zn4       1.0  0.43118060924094  0.7058957514975647  0.13716341264161971  1.0000
  Zn  Zn5       1.0  0.43119499454998333  0.13717292891072927  0.7058988661298001  1.0000
  Zn  Zn6       1.0  0.4301563473240223  0.7248770656530183  0.2931540274126405  1.0000
  Zn  Zn7       1.0  0.4301451673369957  0.2931528926167247  0.7248420605796326  1.0000
  Zn  Zn8       1.0  0.5698640211441062  0.7068510177600019  0.2751503964595586  1.0000
  H   H1        1.0  0.4387150864951011  0.5335232151981799  0.6690623939049515  1.0000
  H   H2        1.0  0.4301804350049566  0.4514741794061692  0.240257892342548  1.0000
  H   H3        1.0  0.42958069677227684  0.23997572000784834  0.45145241295421096  1.0000
  H   H4        1.0  0.5704651365047442  0.7600522321028365  0.5485481731524614  1.0000
  H   H5        1.0  0.5696421693516812  0.5485229575067336  0.7596448321841008  1.0000
  H   H6        1.0  0.5897652054329614  0.5340419487699323  0.8789795937207714  1.0000
  H   H7        1.0  0.4102014000508306  0.4660971164143888  0.12100699352472333  1.0000
  H   H8        1.0  0.4099093683388588  0.12083940388642837  0.46622393502829595  1.0000
  H   H9        1.0  0.5609370993455373  0.4661406161439461  0.3307349192019871  1.0000
  H   H10       1.0  0.590113399571493  0.8791852490004145  0.5337846578809645  1.0000
  H   H11       1.0  0.3527825520554729  0.4940036310388578  0.8205717515377202  1.0000
  H   H12       1.0  0.6470393980258535  0.5057167961256823  0.17935157017287645  1.0000
  H   H13       1.0  0.646551134387785  0.17921088523825546  0.5052223161440423  1.0000
  H   H14       1.0  0.3534711001173961  0.8207757735049982  0.4948027551275728  1.0000
  H   H15       1.0  0.5601019957027661  0.3303968619396045  0.4657325971793184  1.0000
  H   H16       1.0  0.466921809095787  0.5953052891009065  0.9715123960296806  1.0000
  H   H17       1.0  0.5330448411587909  0.40466309210366097  0.02847516825116963  1.0000
  H   H18       1.0  0.5328109541283723  0.0283881755095621  0.40453545894035875  1.0000
  H   H19       1.0  0.4671900455705116  0.9716140969399022  0.5954692116446623  1.0000
  H   H20       1.0  0.4399578626791936  0.6696154838185605  0.5342794080686275  1.0000
  H   H21       1.0  0.21107295348452484  0.4876752811948962  0.6676655711014874  1.0000
  H   H22       1.0  0.7885063046132289  0.511634835331023  0.3321137057911798  1.0000
  H   H23       1.0  0.7875420260814466  0.3318327053049117  0.510564935698916  1.0000
  H   H24       1.0  0.2125002928899634  0.6681417147374304  0.48945604882796795  1.0000
  C   C1        1.0  0.49999750081673977  0.14047877593356622  0.8595250638811365  1.0000
  C   C2        1.0  0.4779477748840082  0.4636591546210483  0.2271874126974894  1.0000
  C   C3        1.0  0.4977907695757509  0.6097742168623413  0.1101797586783917  1.0000
  C   C4        1.0  0.4977758098569325  0.11017155707757811  0.6097692545973172  1.0000
  C   C5        1.0  0.5022339373297271  0.889835284721407  0.39023696244405676  1.0000
  C   C6        1.0  0.5022036366968337  0.39021710191171627  0.889815595178369  1.0000
  C   C7        1.0  0.2803827301049894  0.13999454376993734  0.6401376319731539  1.0000
  C   C8        1.0  0.7196223940952892  0.8600077040907621  0.359866715880294  1.0000
  C   C9        1.0  0.7196251393147222  0.3598568783308451  0.8600068539418187  1.0000
  C   C10       1.0  0.28038408381646474  0.6401545506818993  0.13999161206010774  1.0000
  C   C11       1.0  0.47735800677256895  0.22693332523407864  0.4635167922129  1.0000
  C   C12       1.0  0.8068860901432728  0.4036592837632327  0.9038121084520794  1.0000
  C   C13       1.0  0.19313379653062412  0.5963601888956944  0.09619467740053979  1.0000
  C   C14       1.0  0.19313158681639211  0.09620424514954351  0.5963465346269813  1.0000
  C   C15       1.0  0.8068865812252214  0.9038066187611946  0.4036686121119785  1.0000
  C   C16       1.0  0.5226881004998135  0.7730877339669817  0.5364914036060285  1.0000
  C   C17       1.0  0.8812751355518103  0.44078117751132606  0.9408713936641246  1.0000
  C   C18       1.0  0.1187218561829368  0.5592268565150036  0.05912587893515562  1.0000
  C   C19       1.0  0.1187218814082556  0.059131231512566294  0.5592197377865062  1.0000
  C   C20       1.0  0.8812751161620656  0.9408722299685125  0.44078842874948526  1.0000
  C   C21       1.0  0.9625944525792536  0.4813428490359828  0.9813728108824619  1.0000
  C   C22       1.0  0.5218649988082831  0.5362543733182789  0.7727016575376735  1.0000
  C   C23       1.0  0.037421254799454615  0.518673764555082  0.01863410087201341  1.0000
  C   C24       1.0  0.037419975035433616  0.0186367543543255  0.5186715495211018  1.0000
  C   C25       1.0  0.9625919349958282  0.9813758817078407  0.48134540077202104  1.0000
  C   C26       1.0  0.49999933248229694  0.40313143424546644  0.5968703106410657  1.0000
  C   C27       1.0  0.5000012168722067  0.5968736794464888  0.40312242555001626  1.0000
  C   C28       1.0  0.49999857398054826  0.44044592868718263  0.5595537960041597  1.0000
  C   C29       1.0  0.4999969482521039  0.5595603534260861  0.4404353570766161  1.0000
  C   C30       1.0  0.3124114136430833  0.504993660425292  0.6843946988842475  1.0000
  C   C31       1.0  0.6872408681688215  0.4945191502693475  0.31541903473516436  1.0000
  C   C32       1.0  0.6863638399589078  0.31513480198741917  0.49377140953621523  1.0000
  C   C33       1.0  0.3136969294442196  0.6848672691183495  0.5062701079572489  1.0000
  C   C34       1.0  0.5331248504947652  0.5280093169745611  0.8396650406245526  1.0000
  C   C35       1.0  0.46677391534044704  0.4719985022768328  0.16027997849550965  1.0000
  C   C36       1.0  0.46636720549584976  0.1600859378223731  0.4719470928694065  1.0000
  C   C37       1.0  0.5000024026305925  0.8595252111738745  0.1404738470994147  1.0000
  C   C38       1.0  0.5336609256839893  0.8399335052811806  0.5280642979991297  1.0000
  C   C39       1.0  0.4723722818190057  0.5123361921407723  0.8575719155325031  1.0000
  C   C40       1.0  0.5275197464314232  0.48758345390769614  0.14237726092827777  1.0000
  C   C41       1.0  0.5271534335686  0.14223317083298784  0.48739908564172657  1.0000
  C   C42       1.0  0.4728654644236984  0.8577724815235827  0.5126113464109422  1.0000
  C   C43       1.0  0.40068900782639366  0.5063924424831825  0.807787614891076  1.0000
  C   C44       1.0  0.599122565822448  0.4933723770495604  0.19211742223367173  1.0000
  C   C45       1.0  0.5986046141229979  0.1919422048960797  0.4929850320571986  1.0000
  C   C46       1.0  0.4014202436789418  0.8080519098436555  0.5070331975885551  1.0000
  C   C47       1.0  0.388939471348536  0.5137620101854452  0.7400430844588682  1.0000
  C   C48       1.0  0.61078706838925  0.48591025429165297  0.25980915182000064  1.0000
  C   C49       1.0  0.6101048916801446  0.2595731493456697  0.48545485198446403  1.0000
  C   C50       1.0  0.38994088857700143  0.7404260532087078  0.5145678299556806  1.0000
  C   C51       1.0  0.44963569543960374  0.5285240136041269  0.7223542870646255  1.0000
  C   C52       1.0  0.4999961652799954  0.48123157465948924  0.5187659755079466  1.0000
  C   C53       1.0  0.5500890102494793  0.47121914455618696  0.2774860966142397  1.0000
  C   C54       1.0  0.5493695491073113  0.2772063309578244  0.4708839867622388  1.0000
  C   C55       1.0  0.4506809030944512  0.7228049217367173  0.5291298672588383  1.0000
  C   C56       1.0  0.4803061783214773  0.5523790097651471  0.9830010907260629  1.0000
  C   C57       1.0  0.5196570617355293  0.4475887998312587  0.01698264325402483  1.0000
  C   C58       1.0  0.5195384674149608  0.016941015752046  0.4475242195540687  1.0000
  C   C59       1.0  0.49999299139873465  0.5187707033727949  0.48122220088618656  1.0000
  C   C60       1.0  0.4804633681429635  0.9830618285109907  0.5524804258505753  1.0000
  C   C61       1.0  0.4962493157068909  0.5500761617610765  0.053415219381705036  1.0000
  C   C62       1.0  0.5037213153061303  0.44989567074276954  0.9465760930300318  1.0000
  C   C63       1.0  0.503775269739414  0.9466028036757947  0.44993185063776037  1.0000
  C   C64       1.0  0.4962311336022935  0.05340175265273219  0.5500749444413771  1.0000
  C   C65       1.0  0.5155530548146816  0.4964367328780953  0.0712128109050738  1.0000
  C   C66       1.0  0.4843987410431794  0.5035253431313436  0.9287623479181235  1.0000
  C   C67       1.0  0.48461202036109824  0.9288513811151305  0.5036509933731779  1.0000
  C   C68       1.0  0.5153952892803062  0.07115201532635498  0.49635541170132996  1.0000
  C   C69       1.0  0.5000061184392592  0.3593152572673333  0.6406868476137146  1.0000
  C   C70       1.0  0.499995587275052  0.6406910022334459  0.3593056398999365  1.0000
  C   C71       1.0  0.49999852371954745  0.09677698474973791  0.9032345534635623  1.0000
  C   C72       1.0  0.5000019659355175  0.9032252666915853  0.09676371369314304  1.0000
  C   C73       1.0  0.4999966446618629  0.05949004886939951  0.9405147838222873  1.0000
  C   C74       1.0  0.5000035265364602  0.9405116196575064  0.0594813202501002  1.0000
  C   C75       1.0  0.49999663486583756  0.018748043656565003  0.9812495309945604  1.0000
  C   C76       1.0  0.5000038020394513  0.981251315208965  0.01874615275104216  1.0000
  O   O1        1.0  0.5000092365096336  0.24990471766152922  0.7500948207697888  1.0000
  O   O2        1.0  0.4518442532297444  0.7867447122819444  0.10171679573963406  1.0000
  O   O3        1.0  0.45182906855545474  0.10171456664888008  0.7867386669666202  1.0000
  O   O4        1.0  0.5481643280478252  0.8982888815626282  0.21326047429207054  1.0000
  O   O5        1.0  0.5517120446938791  0.33859157192543426  0.6539878264190405  1.0000
  O   O6        1.0  0.44829607278326494  0.661421612773438  0.3460158582528052  1.0000
  O   O7        1.0  0.4483015433286894  0.34601861344975043  0.66140083586977  1.0000
  O   O8        1.0  0.551696002825338  0.6539801537876073  0.3385864427289889  1.0000
  O   O9        1.0  0.5000033403901158  0.7501044064380907  0.24990918796829223  1.0000
  O   O10       1.0  0.4470533125897093  0.08242805999501711  0.6299323294981106  1.0000
  O   O11       1.0  0.5529544271400513  0.9175816777549742  0.37007424573875625  1.0000
  O   O12       1.0  0.5529654174302294  0.3700832727207128  0.9175815428740606  1.0000
  O   O13       1.0  0.4470315463076135  0.6299126665566773  0.08241966006663394  1.0000
  O   O14       1.0  0.4491501843310247  0.36291873063513697  0.818979124485125  1.0000
  O   O15       1.0  0.5508634491522387  0.6370857291480762  0.1810127863254324  1.0000
  O   O16       1.0  0.5508356978960336  0.18099756302048323  0.6370595822955636  1.0000
  O   O17       1.0  0.4491741209577001  0.8190075417263927  0.3629448379727194  1.0000
  O   O18       1.0  0.3147944088885311  0.10163820419981562  0.65189951507827  1.0000
  O   O19       1.0  0.6852099387433486  0.8983663358817751  0.3480998043062087  1.0000
  O   O20       1.0  0.6852174218903573  0.3480918650809457  0.8983588148587032  1.0000
  O   O21       1.0  0.31479183670852967  0.6519270790001529  0.10164470547339026  1.0000
  O   O22       1.0  0.3140142159195278  0.2125639615580042  0.6625369964443094  1.0000
  O   O23       1.0  0.6859938607754686  0.7874417312623407  0.33746783900897265  1.0000
  O   O24       1.0  0.6859866572834578  0.33744665153021464  0.7874299565067702  1.0000
  O   O25       1.0  0.31402206531872423  0.6625601678746448  0.21256870415704293  1.0000
  O   O26       1.0  0.5481623523279426  0.213259235760674  0.8982818294602594  1.0000
  O   O27       1.0  0.2973056776064382  0.5079606151602221  0.6231617390482639  1.0000
  O   O28       1.0  0.25846197662663434  0.4926648599301727  0.7085583718730959  1.0000
  O   O29       1.0  0.7022940025433045  0.4915068263996503  0.37662190938483053  1.0000
  O   O30       1.0  0.7411716627509367  0.5067401661917403  0.29123999164226444  1.0000
  O   O31       1.0  0.7012513173196099  0.3762687809399027  0.49064373800004546  1.0000
  O   O32       1.0  0.740325897461851  0.2909943950300758  0.5058401921885504  1.0000
  O   O33       1.0  0.29883866708703277  0.6237534784564644  0.5094436751756531  1.0000
  O   O34       1.0  0.2597105654783364  0.7089805912948536  0.49416912003167107  1.0000
