data_image0
_chemical_formula_structural       Zn2H14C46N4O8F10
_chemical_formula_sum              "Zn2 H14 C46 N4 O8 F10"
_cell_length_a       15.287553339978079
_cell_length_b       15.288000375569617
_cell_length_c       15.96733471551508
_cell_angle_alpha    93.13454693904991
_cell_angle_beta     93.24258612361702
_cell_angle_gamma    90.11710458707806

_space_group_name_H-M_alt    "P 1"
_space_group_IT_number       1

loop_
  _space_group_symop_operation_xyz
  'x, y, z'

loop_
  _atom_site_type_symbol
  _atom_site_label
  _atom_site_symmetry_multiplicity
  _atom_site_fract_x
  _atom_site_fract_y
  _atom_site_fract_z
  _atom_site_occupancy
  Zn  Zn1       1.0  0.5062086613670757  0.5060042913515018  0.08819759766469558  1.0000
  Zn  Zn2       1.0  0.49397079586172776  0.4940143155141639  0.9117963465036778  1.0000
  H   H1        1.0  0.5830217793242483  0.5830390203537448  0.782178683876978  1.0000
  H   H2        1.0  0.5835212554964285  0.5834098657453591  0.6234087632255834  1.0000
  H   H3        1.0  0.38284185214631344  0.38221009330065664  0.6116506984655458  1.0000
  H   H4        1.0  0.6173581655129752  0.617509664365315  0.38837916971949926  1.0000
  H   H5        1.0  0.41663640312194866  0.41633944513301196  0.3765014762211009  1.0000
  H   H6        1.0  0.4171485478189041  0.41679827958932236  0.21775357092867145  1.0000
  H   H7        1.0  0.2172464009780555  0.49252945920163416  0.8688124611421697  1.0000
  H   H8        1.0  0.22836616861277287  0.5069154320729652  0.13851860138371555  1.0000
  H   H9        1.0  0.782857235325494  0.5070012954579253  0.1311394876232015  1.0000
  H   H10       1.0  0.7717833861816319  0.4927556763165696  0.8614379082050119  1.0000
  H   H11       1.0  0.49384265673578637  0.7721313290403128  0.8613845233486044  1.0000
  H   H12       1.0  0.5073469552003685  0.7825225213743534  0.13106837621168665  1.0000
  H   H13       1.0  0.5078846322264425  0.2279625319426017  0.13871608617663606  1.0000
  H   H14       1.0  0.4938487096262847  0.21757588259787033  0.8690469627294984  1.0000
  C   C1        1.0  0.6706568426612518  0.49996612806121027  0.9946809543653995  1.0000
  C   C2        1.0  0.5000205412566102  0.6706217179881476  0.994615211977141  1.0000
  C   C3        1.0  0.3295157735546965  0.4999304080120907  0.005284719981503399  1.0000
  C   C4        1.0  0.5005706890833395  0.3294553254939315  0.005432089191785405  1.0000
  C   C5        1.0  0.5403350592187763  0.5402997951624327  0.7409591852016603  1.0000
  C   C6        1.0  0.5404437350868535  0.5402877831220748  0.654345324253178  1.0000
  C   C7        1.0  0.48292818544108923  0.48257424818288525  0.6065582810889223  1.0000
  C   C8        1.0  0.42797017234968143  0.4275047863821582  0.6468906807437517  1.0000
  C   C9        1.0  0.4335607335492071  0.4333072537483389  0.7342496683062334  1.0000
  C   C10       1.0  0.5722145943607018  0.5722468090750185  0.35311797966761554  1.0000
  C   C11       1.0  0.5172394054976621  0.5171738637095515  0.3934344079260086  1.0000
  C   C12       1.0  0.45971953293067  0.4594913612951075  0.3456040731825993  1.0000
  C   C13       1.0  0.45981451079290275  0.4595356463479447  0.2589945860184883  1.0000
  C   C14       1.0  0.5665905988348714  0.5665266604356062  0.26575296918368707  1.0000
  C   C15       1.0  0.1827960935916124  0.4956388307700905  0.926686431084711  1.0000
  C   C16       1.0  0.09104694900082681  0.4956173489514484  0.924292327654008  1.0000
  C   C17       1.0  0.038501589433501196  0.49172367259107114  0.8471998980189779  1.0000
  C   C18       1.0  0.18910177334272052  0.503644702882596  0.07942580936052927  1.0000
  C   C19       1.0  0.09741267371031628  0.5036682332468202  0.07884527336555179  1.0000
  C   C20       1.0  0.051059565938395196  0.5075879824732253  0.15424791642924868  1.0000
  C   C21       1.0  0.8173359296146074  0.5039276048036069  0.07328906531164138  1.0000
  C   C22       1.0  0.9090786263118318  0.5038771443530407  0.075695970427553  1.0000
  C   C23       1.0  0.9616408808306146  0.507647688052394  0.15277745277522564  1.0000
  C   C24       1.0  0.8110425543617766  0.49599497237645096  0.9205328263099586  1.0000
  C   C25       1.0  0.9027343834628  0.4958720496344782  0.9211278724452041  1.0000
  C   C26       1.0  0.9490834958061283  0.4918278369720567  0.8457214103151285  1.0000
  C   C27       1.0  0.23116932881592334  0.4996750932450951  0.0038100039226947133  1.0000
  C   C28       1.0  0.0465379346389199  0.49969599026375267  0.0007685000853073068  1.0000
  C   C29       1.0  0.7689867588668305  0.5000294137266009  0.996143900051251  1.0000
  C   C30       1.0  0.9535934525376605  0.49983772785383707  0.9992099016933833  1.0000
  C   C31       1.0  0.49702310360800794  0.8112489517277764  0.9204988471293942  1.0000
  C   C32       1.0  0.49730855506158633  0.9029390113798568  0.921155249021005  1.0000
  C   C33       1.0  0.49384789072646385  0.9494637301929031  0.8457782910172538  1.0000
  C   C34       1.0  0.5045109334225301  0.81713664243734  0.0732341062934552  1.0000
  C   C35       1.0  0.5047974136802295  0.9088720588902532  0.07569575594263968  1.0000
  C   C36       1.0  0.5086666655332123  0.9612084157962993  0.15281162293695869  1.0000
  C   C37       1.0  0.5046837887016621  0.1888630671922796  0.0795909870355587  1.0000
  C   C38       1.0  0.5048308007146431  0.09718479441296779  0.07896051516772218  1.0000
  C   C39       1.0  0.5086922668903711  0.050628966886485195  0.15434001247439255  1.0000
  C   C40       1.0  0.49691188932079916  0.18295080887882156  0.926872342436077  1.0000
  C   C41       1.0  0.4971244270384503  0.09122066915194438  0.9244105660054343  1.0000
  C   C42       1.0  0.49367447152983596  0.038878304551246884  0.847313601613713  1.0000
  C   C43       1.0  0.5005685436295549  0.7689695104556975  0.9960771979106722  1.0000
  C   C44       1.0  0.5010862860752425  0.9535889854134678  0.9992519453773523  1.0000
  C   C45       1.0  0.5006746748124938  0.23112033420067485  0.004011124762705308  1.0000
  C   C46       1.0  0.5010360573085393  0.04652363665985599  0.0008656771013378063  1.0000
  N   N1        1.0  0.48711445060472147  0.4870450878168454  0.7806791717017842  1.0000
  N   N2        1.0  0.47502845951211736  0.4745230483768522  0.5174865122834262  1.0000
  N   N3        1.0  0.525141611451474  0.5251791151743389  0.4824923538049929  1.0000
  N   N4        1.0  0.5130230035805425  0.5128272760119613  0.21930887701897456  1.0000
  O   O1        1.0  0.6364562881746566  0.501349731065268  0.0655782938256735  1.0000
  O   O2        1.0  0.6294724806001496  0.49848482416534506  0.9230512963332839  1.0000
  O   O3        1.0  0.49844873479186447  0.6295435610715571  0.923006139622103  1.0000
  O   O4        1.0  0.501134716548222  0.6363055064520889  0.06551560879490378  1.0000
  O   O5        1.0  0.36373679507885726  0.49875915301210216  0.9343996050215252  1.0000
  O   O6        1.0  0.3706863498844513  0.5013435407799063  0.07691260586506128  1.0000
  O   O7        1.0  0.5020383065973916  0.370531040210622  0.07703441117913458  1.0000
  O   O8        1.0  0.4990418571445261  0.36376190432585537  0.9345191983845778  1.0000
  F   F1        1.0  0.38203281097033676  0.38176889573726663  0.7758122954251261  1.0000
  F   F2        1.0  0.6181075363502797  0.6180762438463177  0.22420599543386993  1.0000
  F   F3        1.0  0.9020058620972904  0.4880265418710009  0.7709023135724278  1.0000
  F   F4        1.0  0.07948042521730511  0.48787858077869817  0.7738785367898584  1.0000
  F   F5        1.0  0.9206783908954818  0.5112924959993989  0.22610133357545684  1.0000
  F   F6        1.0  0.0981266033248431  0.5112516450718941  0.22905792449233076  1.0000
  F   F7        1.0  0.49029851272101144  0.08002075794654219  0.7740118982070995  1.0000
  F   F8        1.0  0.4907549794466631  0.9025770481349866  0.7709524185836684  1.0000
  F   F9        1.0  0.5123194229722258  0.0975464689831824  0.22915033705083224  1.0000
  F   F10       1.0  0.5123115720403959  0.9200360762504188  0.22609172845641  1.0000
