data_image0
_chemical_formula_structural       Zn16H120C192O52
_chemical_formula_sum              "Zn16 H120 C192 O52"
_cell_length_a       19.69689443511952
_cell_length_b       24.13057275213982
_cell_length_c       30.843219868112765
_cell_angle_alpha    89.99979253063682
_cell_angle_beta     89.99976816752996
_cell_angle_gamma    89.99967292184891

_space_group_name_H-M_alt    "P 1"
_space_group_IT_number       1

loop_
  _space_group_symop_operation_xyz
  'x, y, z'

loop_
  _atom_site_type_symbol
  _atom_site_label
  _atom_site_symmetry_multiplicity
  _atom_site_fract_x
  _atom_site_fract_y
  _atom_site_fract_z
  _atom_site_occupancy
  Zn  Zn1       1.0  0.30345385907930483  0.0674189180701745  0.10736735489317077  1.0000
  Zn  Zn2       1.0  0.6965473509241916  0.06742076528242079  0.8926314886399067  1.0000
  Zn  Zn3       1.0  0.8034563808738113  0.43258332473462247  0.3926321234870258  1.0000
  Zn  Zn4       1.0  0.1965463202441029  0.4325805072022958  0.6073660007961124  1.0000
  Zn  Zn5       1.0  0.6965437982097669  0.9325842330033678  0.8926312251822635  1.0000
  Zn  Zn6       1.0  0.3034523371363064  0.9325828001954971  0.10736838831377327  1.0000
  Zn  Zn7       1.0  0.1965427994945941  0.5674181686805252  0.6073693745720945  1.0000
  Zn  Zn8       1.0  0.803455398607163  0.5674226438677932  0.39262998551115647  1.0000
  Zn  Zn9       1.0  0.1858798795579446  2.7513934881999994e-06  0.058261186691375096  1.0000
  Zn  Zn10      1.0  0.8141152049775473  1.3425493036999987e-06  0.9417404432621694  1.0000
  Zn  Zn11      1.0  0.6858866926594941  0.5000033509779697  0.44174118932473755  1.0000
  Zn  Zn12      1.0  0.3141175646369092  0.5000002144804438  0.558262578267417  1.0000
  Zn  Zn13      1.0  0.1878621062943964  4.4346409569999984e-07  0.15907847925680577  1.0000
  Zn  Zn14      1.0  0.812133485950099  3.351833939000005e-07  0.8409221780397259  1.0000
  Zn  Zn15      1.0  0.6878705734008648  0.5000015056074928  0.34092356741943053  1.0000
  Zn  Zn16      1.0  0.31213622238022504  0.49999998778928745  0.6590782548502145  1.0000
  H   H1        1.0  0.3393726229590968  0.18387050422518306  0.008409574981186597  1.0000
  H   H2        1.0  0.6606292903921513  0.1838749645675648  0.9915899084422787  1.0000
  H   H3        1.0  0.8393733068440098  0.31613613083510467  0.49159078321985555  1.0000
  H   H4        1.0  0.16063173704949918  0.316134762430238  0.5084057284895138  1.0000
  H   H5        1.0  0.6606214804430621  0.8161380342072274  0.9915915988540643  1.0000
  H   H6        1.0  0.3393764899767362  0.8161364747288214  0.008408347390456998  1.0000
  H   H7        1.0  0.1606182581102544  0.683865777010453  0.5084103906281496  1.0000
  H   H8        1.0  0.8393770895089715  0.6838712895062358  0.49159090624515034  1.0000
  H   H9        1.0  0.34711482640455665  0.24565137460733408  0.9437949560249022  1.0000
  H   H10       1.0  0.65288969823019  0.24565436067759083  0.056204675075825584  1.0000
  H   H11       1.0  0.8471131184642502  0.25435168732575153  0.5562031169108437  1.0000
  H   H12       1.0  0.15289083725270558  0.25435148002559765  0.4437938955706925  1.0000
  H   H13       1.0  0.6528838462744702  0.7543513620518139  0.056203624049814487  1.0000
  H   H14       1.0  0.3471145590677338  0.7543516912605313  0.9437958503091294  1.0000
  H   H15       1.0  0.1528820003702194  0.7456473196347131  0.4437948147330672  1.0000
  H   H16       1.0  0.847114943140653  0.745651256613385  0.5562063055966602  1.0000
  H   H17       1.0  0.1709337021625288  0.16521245810952925  0.8890062718328335  1.0000
  H   H18       1.0  0.8290729117927569  0.16521396279416928  0.11099067114214017  1.0000
  H   H19       1.0  0.6709331117245441  0.334788518531134  0.6109932291267838  1.0000
  H   H20       1.0  0.32907180086917975  0.3347860893684996  0.3890051746063604  1.0000
  H   H21       1.0  0.829064462826459  0.8347882064883404  0.11099328090659807  1.0000
  H   H22       1.0  0.17093185320951676  0.8347912603238896  0.8890075847007848  1.0000
  H   H23       1.0  0.329069114791622  0.6652142181034292  0.3890124837913688  1.0000
  H   H24       1.0  0.6709314410889248  0.665211674345201  0.6109891906048117  1.0000
  H   H25       1.0  0.1645103662283063  0.10432980947364708  0.9529730997920323  1.0000
  H   H26       1.0  0.8354931224287085  0.10433157791631938  0.047024341382090995  1.0000
  H   H27       1.0  0.6645122908660781  0.395675341011298  0.5470290115231647  1.0000
  H   H28       1.0  0.3354932085309059  0.3956713454134614  0.4529685697836711  1.0000
  H   H29       1.0  0.8354837371725026  0.895677071305371  0.0470303435881405  1.0000
  H   H30       1.0  0.16451215025792723  0.8956782037375244  0.9529719691314821  1.0000
  H   H31       1.0  0.3354904433488741  0.6043269812122744  0.45297572873382547  1.0000
  H   H32       1.0  0.6645095257311198  0.6043301480180076  0.5470222289988127  1.0000
  H   H33       1.0  0.30910030482749556  0.27682368895296605  0.8773913876800279  1.0000
  H   H34       1.0  0.6909029850070638  0.27682370790893157  0.12260653324830877  1.0000
  H   H35       1.0  0.8090968726224331  0.22317499043403893  0.6226061350765659  1.0000
  H   H36       1.0  0.1909067948438974  0.22317656945254769  0.3773935602546316  1.0000
  H   H37       1.0  0.6909044602001728  0.7231749035738626  0.12260621973164378  1.0000
  H   H38       1.0  0.309097210760811  0.7231761278594032  0.8773933437100465  1.0000
  H   H39       1.0  0.1909018000718774  0.7768219444527626  0.3773940661082662  1.0000
  H   H40       1.0  0.8090974624769272  0.7768232663056406  0.6226066409188318  1.0000
  H   H41       1.0  0.973660505582373  0.9999929824783531  0.03977785485515989  1.0000
  H   H42       1.0  0.0263387090826726  0.9999967933431504  0.9602280504129224  1.0000
  H   H43       1.0  0.47366079244481085  0.49999799802996847  0.4602278603593532  1.0000
  H   H44       1.0  0.52633737255735  0.4999939639023194  0.5397772041387154  1.0000
  H   H45       1.0  0.8481138047407556  0.9999945121554246  0.041589760497238594  1.0000
  H   H46       1.0  0.1518854099174973  0.999999822205268  0.9584132267810472  1.0000
  H   H47       1.0  0.3481151184882805  0.4999958063139542  0.45841400966484247  1.0000
  H   H48       1.0  0.6518840619113533  0.49999739886177935  0.54158683996539  1.0000
  H   H49       1.0  0.8538751836547006  0.9999904481542072  0.18149764913545843  1.0000
  H   H50       1.0  0.1461103232911185  0.9999955979995504  0.8185043655112949  1.0000
  H   H51       1.0  0.3538895683046377  0.49998948331259635  0.31850610613359714  1.0000
  H   H52       1.0  0.646123319878896  0.49999170387987124  0.6814957161571868  1.0000
  H   H53       1.0  0.9804428596333779  0.9999872599138934  0.17905448512589564  1.0000
  H   H54       1.0  0.0195401088505918  0.9999917412298127  0.8209523928396718  1.0000
  H   H55       1.0  0.48045824417318517  0.49998835590951524  0.3209541305445355  1.0000
  H   H56       1.0  0.5195546440344856  0.4999824709729096  0.6790515824054281  1.0000
  H   H57       1.0  0.7500350578014832  0.9999973927739131  0.14938310773602834  1.0000
  H   H58       1.0  0.2499529533113076  7.853751924000001e-07  0.8506164450200726  1.0000
  H   H59       1.0  0.25004517747212424  0.4999979382495282  0.3506186463612336  1.0000
  H   H60       1.0  0.7499570490821839  0.49999775338994107  0.6493828517022349  1.0000
  H   H61       1.0  0.32808293344717754  0.3959354589124117  0.7637493613077169  1.0000
  H   H62       1.0  0.6719154563725097  0.3959358731695274  0.23625178568271815  1.0000
  H   H63       1.0  0.828085712165368  0.10406644788609037  0.7362455186104384  1.0000
  H   H64       1.0  0.17191980914023472  0.10406200560638719  0.2637532202039665  1.0000
  H   H65       1.0  0.6719192931033077  0.604066863333905  0.2362459765593455  1.0000
  H   H66       1.0  0.3280786470374224  0.6040652058326753  0.7637552241297598  1.0000
  H   H67       1.0  0.17191651438684366  0.8959342167090723  0.2637511161404617  1.0000
  H   H68       1.0  0.8280824174088365  0.8959357580947934  0.7362476294158212  1.0000
  H   H69       1.0  0.3207183393132098  0.3335891104043894  0.8271530218008036  1.0000
  H   H70       1.0  0.6792804893713579  0.3335906102963404  0.17284765490450837  1.0000
  H   H71       1.0  0.8207124499873757  0.1664124160951062  0.6728418771637761  1.0000
  H   H72       1.0  0.1792850170357454  0.16641137851131294  0.32715441395698247  1.0000
  H   H73       1.0  0.6792869333874165  0.666416112715474  0.17284393716001026  1.0000
  H   H74       1.0  0.32070802940319953  0.6664121263721792  0.8271570853702597  1.0000
  H   H75       1.0  0.17928317654809686  0.833587005282176  0.3271534607159693  1.0000
  H   H76       1.0  0.8207121325580502  0.8335917725626699  0.6728444903394786  1.0000
  H   H77       1.0  0.15175056553697888  0.24897208648297905  0.767347024109746  1.0000
  H   H78       1.0  0.8482508895640136  0.24897460183313305  0.23265097640469884  1.0000
  H   H79       1.0  0.6517472555966393  0.25102773573547665  0.7326512295546903  1.0000
  H   H80       1.0  0.3482491081025856  0.2510266047805061  0.2673474135381539  1.0000
  H   H81       1.0  0.8482531840890672  0.7510302357546125  0.23265058329791086  1.0000
  H   H82       1.0  0.1517487984902743  0.7510339365975014  0.7673453341178627  1.0000
  H   H83       1.0  0.34824887862865234  0.7489700279850167  0.2673473505304144  1.0000
  H   H84       1.0  0.6517526107426191  0.7489744742196932  0.7326527876368231  1.0000
  H   H85       1.0  0.16057477967913059  0.31197859099229663  0.7035108508204004  1.0000
  H   H86       1.0  0.839425724223048  0.3119779534212056  0.2964876180963571  1.0000
  H   H87       1.0  0.6605745550482497  0.18802160477733304  0.7964890011340983  1.0000
  H   H88       1.0  0.3394258060133239  0.18802080756728395  0.20351209153874084  1.0000
  H   H89       1.0  0.8394284622510356  0.6880233168321864  0.2964877292495983  1.0000
  H   H90       1.0  0.1605770100066053  0.6880260264654223  0.7035106377509663  1.0000
  H   H91       1.0  0.3394256407229718  0.8119769877541286  0.20351120004639253  1.0000
  H   H92       1.0  0.6605759128369613  0.8119773705448805  0.796489730742202  1.0000
  H   H93       1.0  0.1857801835389949  0.2192692819427933  0.8357250975269321  1.0000
  H   H94       1.0  0.814219957559544  0.2192714397294324  0.1642742847483873  1.0000
  H   H95       1.0  0.6857796361210902  0.28073162597478063  0.6642717712972936  1.0000
  H   H96       1.0  0.3142221031251112  0.28073282529984306  0.3357238689216827  1.0000
  H   H97       1.0  0.8142215353112404  0.7807338691265566  0.16427121300070266  1.0000
  H   H98       1.0  0.1857817612608699  0.7807366842755311  0.8357259164165213  1.0000
  H   H99       1.0  0.3142200519574985  0.7192673809721268  0.3357274572221698  1.0000
  H   H100      1.0  0.6857811388052184  0.7192699113509632  0.664273738486038  1.0000
  H   H101      1.0  0.525264538191834  0.9999957969641995  0.16857011096497834  1.0000
  H   H102      1.0  0.4747239806191458  1.5523603807000003e-06  0.8314291175712892  1.0000
  H   H103      1.0  0.0252788409573768  0.5000005745956881  0.33142606388481965  1.0000
  H   H104      1.0  0.9747254163639382  0.5000017476414697  0.6685712193018103  1.0000
  H   H105      1.0  0.6492211609989411  0.9999917992281623  0.16033605039355336  1.0000
  H   H106      1.0  0.3507693886032399  4.721275807599998e-06  0.8396596117172592  1.0000
  H   H107      1.0  0.149234396212556  0.49999612466599064  0.3396623978518605  1.0000
  H   H108      1.0  0.8507723995912785  0.499998323724533  0.6603400728685783  1.0000
  H   H109      1.0  0.6273470876329341  0.9999917548608999  0.0211009398409487  1.0000
  H   H110      1.0  0.3726500619766426  8.080919698699997e-06  0.9788966675787873  1.0000
  H   H111      1.0  0.1273452254233405  0.4999975135602097  0.47890015872113867  1.0000
  H   H112      1.0  0.8726514165048299  0.4999919619033264  0.5211049057824437  1.0000
  H   H113      1.0  0.5018191489263941  0.9999932681596133  0.0300333731125235  1.0000
  H   H114      1.0  0.4981754622155137  9.054108048199997e-06  0.9699603436625635  1.0000
  H   H115      1.0  0.0018178510024071995  0.5000023831526832  0.46996091703369547  1.0000
  H   H116      1.0  0.9981782832270979  0.4999933085053454  0.5300386357154564  1.0000
  H   H117      1.0  0.7386934835963856  0.9999959897414424  0.049837419542178886  1.0000
  H   H118      1.0  0.26130366601663724  5.307368410999998e-07  0.9501627816452112  1.0000
  H   H119      1.0  0.23869688036864997  0.4999956640868459  0.4501669576456067  1.0000
  H   H120      1.0  0.7613068692799132  0.49999588342641466  0.5498355130829109  1.0000
  C   C1        1.0  0.24725123494449971  0.10256428468861147  0.0226998227813624  1.0000
  C   C2        1.0  0.7527441430226604  0.10256589767764268  0.9773008656521893  1.0000
  C   C3        1.0  0.7472580370361541  0.3974427768105996  0.4773030430524938  1.0000
  C   C4        1.0  0.25274846529177347  0.3974434028877737  0.52269453319591  1.0000
  C   C5        1.0  0.7527408376716948  0.8974430105026909  0.9773055659230322  1.0000
  C   C6        1.0  0.2472565604076919  0.8974447128071431  0.022697065967925294  1.0000
  C   C7        1.0  0.2527386048547484  0.6025607886713898  0.5226981307865798  1.0000
  C   C8        1.0  0.747259345868045  0.6025684508271141  0.47729885932813687  1.0000
  C   C9        1.0  0.2514746093790095  0.14042068032677688  0.9847286994807688  1.0000
  C   C10       1.0  0.7485271021309075  0.1404242402873237  0.015271232324593594  1.0000
  C   C11       1.0  0.7514749584507356  0.3595832387556752  0.5152722144076164  1.0000
  C   C12       1.0  0.248531302686267  0.3595819864993358  0.48472644269034487  1.0000
  C   C13       1.0  0.7485184786459982  0.8595828851589785  0.015274419685091798  1.0000
  C   C14       1.0  0.2514781705499942  0.8595851269492697  0.9847273477321181  1.0000
  C   C15       1.0  0.2485171141958844  0.640419497913541  0.48472863521818244  1.0000
  C   C16       1.0  0.751476000787406  0.6404240654391697  0.5152708404870194  1.0000
  C   C17       1.0  0.3028673504168538  0.18045069910477443  0.9820031794842873  1.0000
  C   C18       1.0  0.6971345870103961  0.18045448447467283  0.0179959894920074  1.0000
  C   C19       1.0  0.8028684716957741  0.3195542253006778  0.517996953130236  1.0000
  C   C20       1.0  0.19713959429170563  0.3195536378693475  0.4820021425696622  1.0000
  C   C21       1.0  0.6971252299115847  0.81955410961978  0.017999291239725296  1.0000
  C   C22       1.0  0.3028706856711096  0.8195552971754478  0.9820019421233822  1.0000
  C   C23       1.0  0.1971246163364242  0.6804493401902786  0.4820038964930688  1.0000
  C   C24       1.0  0.8028727861216326  0.6804511708160702  0.5179974101454761  1.0000
  C   C25       1.0  0.3068359901572392  0.21469239676368798  0.9459070237679298  1.0000
  C   C26       1.0  0.6931646908574294  0.21469271959666253  0.05409302002871639  1.0000
  C   C27       1.0  0.8068350930527471  0.2853112660404733  0.5540921259324847  1.0000
  C   C28       1.0  0.19316864472268241  0.28531293465242397  0.4459064191799768  1.0000
  C   C29       1.0  0.6931621748213744  0.7853103398921699  0.05409350162963729  1.0000
  C   C30       1.0  0.30683652028099573  0.7853125035266468  0.9459065327002631  1.0000
  C   C31       1.0  0.1931615488511795  0.7146906417985405  0.44590677836640674  1.0000
  C   C32       1.0  0.8068371356625121  0.7146927028723623  0.5540931335425084  1.0000
  C   C33       1.0  0.25984951954685437  0.21031514997125803  0.9115222241650185  1.0000
  C   C34       1.0  0.7401542384481701  0.210316755173693  0.08847556259146218  1.0000
  C   C35       1.0  0.759844819980877  0.28968458623909027  0.5884757501066316  1.0000
  C   C36       1.0  0.24015634854600168  0.2896853662594053  0.41152148563198654  1.0000
  C   C37       1.0  0.7401521993016047  0.7896867578574951  0.08847603168658218  1.0000
  C   C38       1.0  0.25984494191867213  0.7896872247189249  0.9115236659215495  1.0000
  C   C39       1.0  0.24015232963026287  0.7103127630640313  0.4115241268592128  1.0000
  C   C40       1.0  0.7598489241665617  0.7103152983249854  0.5884767702167935  1.0000
  C   C41       1.0  0.2082938081860348  0.169891024370969  0.9148339353549202  1.0000
  C   C42       1.0  0.7917097266629155  0.16989323492321512  0.08516461535561598  1.0000
  C   C43       1.0  0.7082918912023999  0.3301106081476419  0.5851644963827027  1.0000
  C   C44       1.0  0.2917115312435925  0.33010781902026304  0.4148322996184105  1.0000
  C   C45       1.0  0.7917048644874215  0.8301121266972515  0.08516594160066397  1.0000
  C   C46       1.0  0.20829148446659929  0.8301136458460475  0.9148359100320886  1.0000
  C   C47       1.0  0.29170881224155915  0.6698908852587733  0.4148392712170049  1.0000
  C   C48       1.0  0.7082922183929837  0.6698932599856492  0.585163362468826  1.0000
  C   C49       1.0  0.20426627688062374  0.1355523548835507  0.9507323168633446  1.0000
  C   C50       1.0  0.795735976602316  0.13555429708792838  0.04926633197364079  1.0000
  C   C51       1.0  0.7042668840347233  0.3644509539176184  0.5492680706004406  1.0000
  C   C52       1.0  0.29573680437111693  0.3644492246935656  0.45072959993070316  1.0000
  C   C53       1.0  0.7957288419227239  0.8644528682508861  0.049268532754965094  1.0000
  C   C54       1.0  0.20426777299378782  0.8644550701507042  0.9507328965257712  1.0000
  C   C55       1.0  0.2957343270933777  0.6355513683065083  0.45073796653997517  1.0000
  C   C56       1.0  0.7042659298696705  0.6355539263749247  0.549266062154892  1.0000
  C   C57       1.0  0.2670059636026351  0.24745938391686906  0.8746839197667242  1.0000
  C   C58       1.0  0.7329985483142352  0.24746126763992032  0.12531408506728775  1.0000
  C   C59       1.0  0.7670017998554073  0.25253866151615506  0.6253133875692284  1.0000
  C   C60       1.0  0.23300267631424276  0.25253922926399497  0.3746839543117061  1.0000
  C   C61       1.0  0.7329967706446895  0.7525404518515371  0.1253133634254269  1.0000
  C   C62       1.0  0.2670006320597338  0.7525398113661552  0.8746861161109646  1.0000
  C   C63       1.0  0.2329978882205381  0.747459931015733  0.3746871378322893  1.0000
  C   C64       1.0  0.7670031040954868  0.7474606064951316  0.6253143015376067  1.0000
  C   C65       1.0  0.0601690748544499  0.99998996661769  0.1083616933791873  1.0000
  C   C66       1.0  0.9398199859415328  0.9999944218685  0.8916451845708124  1.0000
  C   C67       1.0  0.5601807402529816  0.499997540686955  0.3916450905437684  1.0000
  C   C68       1.0  0.43982808634565623  0.4999857185580367  0.6083641888176954  1.0000
  C   C69       1.0  0.9847919893444725  0.9999890674194628  0.1093422377459632  1.0000
  C   C70       1.0  0.0152016407001625  0.9999949066433654  0.8906649644190876  1.0000
  C   C71       1.0  0.4847972860882237  0.4999964741843994  0.3906657182417489  1.0000
  C   C72       1.0  0.5152059558823369  0.4999863706666757  0.6093412915849753  1.0000
  C   C73       1.0  0.9468703976274425  0.9999884150346642  0.0706929497158484  1.0000
  C   C74       1.0  0.05312678628282441  0.9999968022635027  0.929311010239182  1.0000
  C   C75       1.0  0.44687088030913447  0.4999968877264676  0.42931186208767963  1.0000
  C   C76       1.0  0.5531277924005665  0.49999217332255325  0.5706922297527794  1.0000
  C   C77       1.0  0.8764557401063796  0.9999927193619199  0.07190432799048808  1.0000
  C   C78       1.0  0.1235429668860917  0.9999949844109463  0.9280970381960996  1.0000
  C   C79       1.0  0.376455722797111  0.49999456702489903  0.42809839626341517  1.0000
  C   C80       1.0  0.6235429499149703  0.4999961516782533  0.5719031018117562  1.0000
  C   C81       1.0  0.841508479813342  0.999996852569019  0.11192256856534037  1.0000
  C   C82       1.0  0.1584856236327425  8.23283628000005e-08  0.8880776326253891  1.0000
  C   C83       1.0  0.341514300638579  0.49999888383203467  0.3880779764517754  1.0000
  C   C84       1.0  0.6584874182174403  0.49999970869738747  0.6119215762860222  1.0000
  C   C85       1.0  0.8803317370803825  0.9999921159066215  0.15039904598344117  1.0000
  C   C86       1.0  0.11965833909469839  0.9999993175931363  0.8496029686497052  1.0000
  C   C87       1.0  0.3803428785699338  0.49999349486375155  0.349603344020096  1.0000
  C   C88       1.0  0.6196644249574844  0.49999349411101685  0.6503981540492489  1.0000
  C   C89       1.0  0.9507103479863588  0.9999927843856963  0.14928428541701066  1.0000
  C   C90       1.0  0.049277189720349696  0.9999949194041021  0.8507209714283872  1.0000
  C   C91       1.0  0.45072300548103783  0.49999457262596525  0.3507227859855816  1.0000
  C   C92       1.0  0.5492868365102624  0.4999915875114026  0.6492819542853139  1.0000
  C   C93       1.0  0.7681121253528927  0.9999978422470546  0.11586031974636057  1.0000
  C   C94       1.0  0.23188096270047956  1.1647151297e-06  0.8841389087816294  1.0000
  C   C95       1.0  0.26811949420376646  0.49999864833382174  0.384141711850816  1.0000
  C   C96       1.0  0.7318832400399842  0.49999870095339094  0.6158594619892666  1.0000
  C   C97       1.0  0.24990433659255734  0.3964057472572548  0.6922040779667497  1.0000
  C   C98       1.0  0.7500935422355681  0.39640505693847666  0.307794149698779  1.0000
  C   C99       1.0  0.7499102192828743  0.10359527820776994  0.8077923008920747  1.0000
  C   C100      1.0  0.250094289925606  0.10359743288805835  0.1922070877013269  1.0000
  C   C101      1.0  0.7500902745365892  0.6035969894142779  0.3077932052317606  1.0000
  C   C102      1.0  0.24990513043248794  0.603599337365139  0.6922060514753949  1.0000
  C   C103      1.0  0.25009099188694955  0.896402485502456  0.1922056307457396  1.0000
  C   C104      1.0  0.749907936606121  0.8964061325839765  0.8077927892490706  1.0000
  C   C105      1.0  0.24499190464954515  0.35768839854748774  0.7296733145427794  1.0000
  C   C106      1.0  0.7550077697961086  0.35768951504692836  0.2703240510934535  1.0000
  C   C107      1.0  0.7449916598284929  0.1423109920299054  0.7703208074805088  1.0000
  C   C108      1.0  0.25500953069781923  0.1423100511397521  0.22967879470993316  1.0000
  C   C109      1.0  0.7550108296016161  0.6423126804630073  0.27032137488467356  1.0000
  C   C110      1.0  0.2449919182668694  0.6423136360196862  0.7296755016404572  1.0000
  C   C111      1.0  0.25500853595299583  0.8576876005089887  0.22967615149633494  1.0000
  C   C112      1.0  0.7449921881594932  0.8576872981512973  0.7703217306907317  1.0000
  C   C113      1.0  0.289882098713626  0.3633312627350163  0.7648612088902877  1.0000
  C   C114      1.0  0.7101165206172054  0.3633335773174265  0.23513646484120435  1.0000
  C   C115      1.0  0.7898821165040246  0.136668748853829  0.7351334455484204  1.0000
  C   C116      1.0  0.2101211445206346  0.13666619667805685  0.2648664969850003  1.0000
  C   C117      1.0  0.7101211432322146  0.6366694018615175  0.23513380475747428  1.0000
  C   C118      1.0  0.289876567420663  0.6366675016990297  0.7648653574467443  1.0000
  C   C119      1.0  0.2101190946590989  0.8633315013301508  0.2648638376451088  1.0000
  C   C120      1.0  0.7898815897248994  0.8633323958497596  0.7351327315311165  1.0000
  C   C121      1.0  0.2853214925525478  0.32824250974075386  0.8002972539189768  1.0000
  C   C122      1.0  0.7146768660814543  0.3282428937319962  0.19970214118524857  1.0000
  C   C123      1.0  0.7853179339446115  0.17175876620198235  0.6996987091914305  1.0000
  C   C124      1.0  0.2146815262164736  0.17175685915364614  0.30030016041344954  1.0000
  C   C125      1.0  0.714681749376922  0.671761055735629  0.19969970504682516  1.0000
  C   C126      1.0  0.2853152065674891  0.6717585996996078  0.8002993568830588  1.0000
  C   C127      1.0  0.2146797233577544  0.8282414839894795  0.30029889822705497  1.0000
  C   C128      1.0  0.7853166387760311  0.8282433910336665  0.6996987438858396  1.0000
  C   C129      1.0  0.23543052104366063  0.28626226663447324  0.8020501136664676  1.0000
  C   C130      1.0  0.7645676254009572  0.2862624277058003  0.19795004983966175  1.0000
  C   C131      1.0  0.7354276934111468  0.21373965467408595  0.6979482479338299  1.0000
  C   C132      1.0  0.2645724866250774  0.21373792304599695  0.3020511501481734  1.0000
  C   C133      1.0  0.7645732285784348  0.7137408844264639  0.19794781796036884  1.0000
  C   C134      1.0  0.2354274934029874  0.7137432098421713  0.8020501513373259  1.0000
  C   C135      1.0  0.2645709792752697  0.7862589378594079  0.3020526016893611  1.0000
  C   C136      1.0  0.7354277091444174  0.7862623271366117  0.697947754148494  1.0000
  C   C137      1.0  0.1907667581241554  0.28109556222155146  0.7664877438245694  1.0000
  C   C138      1.0  0.8092329477685851  0.2810974254238871  0.23351178600049133  1.0000
  C   C139      1.0  0.6907667150204091  0.21890656584288584  0.7335107332106785  1.0000
  C   C140      1.0  0.30923342865102643  0.21890313298204223  0.2664886501091033  1.0000
  C   C141      1.0  0.8092334376332317  0.7189084176702064  0.23351083624640265  1.0000
  C   C142      1.0  0.19076775566949072  0.7189106985878906  0.7664864698435349  1.0000
  C   C143      1.0  0.30923246535999027  0.7810932699285399  0.2664888195286181  1.0000
  C   C144      1.0  0.6907677825063631  0.7810967027846869  0.7335109026275786  1.0000
  C   C145      1.0  0.1953634118014094  0.31606745152477334  0.7307949163872749  1.0000
  C   C146      1.0  0.80463757100366  0.3160700010685176  0.2692028923994626  1.0000
  C   C147      1.0  0.6953623734033911  0.18393175438055204  0.7692025761117447  1.0000
  C   C148      1.0  0.30463801645234406  0.18393099302443963  0.23079690714612155  1.0000
  C   C149      1.0  0.8046393224411049  0.683934041892556  0.2692020425821511  1.0000
  C   C150      1.0  0.19536465552256738  0.6839368797043405  0.7307950392240058  1.0000
  C   C151      1.0  0.3046378223698838  0.8160668381523876  0.23079697662802082  1.0000
  C   C152      1.0  0.6953621793194671  0.8160680139205492  0.7692026455930473  1.0000
  C   C153      1.0  0.22775876951065752  0.24871688358142305  0.838644605589451  1.0000
  C   C154      1.0  0.7722406566084956  0.24871800585940915  0.16135534098104634  1.0000
  C   C155      1.0  0.7277579401684519  0.25128590206224993  0.661353451615227  1.0000
  C   C156      1.0  0.2722450217481338  0.25128355261405483  0.3386435696312873  1.0000
  C   C157      1.0  0.7722429493296373  0.7512879251331339  0.16135300181727524  1.0000
  C   C158      1.0  0.22776055452161606  0.7512892893233881  0.8386445359653363  1.0000
  C   C159      1.0  0.2722397171325497  0.7487126904758268  0.3386464253481804  1.0000
  C   C160      1.0  0.7277587278821187  0.7487166975610717  0.661355010440424  1.0000
  C   C161      1.0  0.4296100356371184  8.393779040999996e-07  0.10386927466870327  1.0000
  C   C162      1.0  0.5703921566405299  1.1824993606999994e-06  0.8961274919731393  1.0000
  C   C163      1.0  0.9296095222311536  0.5000066211971441  0.39612533855709126  1.0000
  C   C164      1.0  0.0703906735114899  0.5000006739887439  0.6038742141702399  1.0000
  C   C165      1.0  0.5055052623061655  2.591415864000004e-07  0.09957682317859447  1.0000
  C   C166      1.0  0.4944948991940663  2.1771531705999986e-06  0.9004196192449214  1.0000
  C   C167      1.0  0.0055074853466053  0.500003362967952  0.40041985885988396  1.0000
  C   C168      1.0  0.9944942334889291  0.4999981304383424  0.599582936077418  1.0000
  C   C169      1.0  0.5475874490644443  0.9999995492552071  0.13620283886411497  1.0000
  C   C170      1.0  0.45240922711867876  0.9999985148264582  0.8637972304288366  1.0000
  C   C171      1.0  0.04759190062058139  0.4999996198662088  0.3637958720610967  1.0000
  C   C172      1.0  0.9524077874524437  0.4999998014897712  0.6362046533392345  1.0000
  C   C173      1.0  0.6176584092000326  0.999993182074689  0.13132485293003526  1.0000
  C   C174      1.0  0.3823382327268591  5.4104761488999975e-06  0.8686704849495752  1.0000
  C   C175      1.0  0.11766232215460798  0.49999778884426155  0.36867140735823506  1.0000
  C   C176      1.0  0.8823399044027838  0.49999790279743894  0.6313291180441495  1.0000
  C   C177      1.0  0.6482638726124393  0.9999923773547006  0.08993743536044717  1.0000
  C   C178      1.0  0.3517287077623621  5.3863807068e-06  0.9100582267459669  1.0000
  C   C179      1.0  0.1482710772605742  0.499996379811314  0.410060042704707  1.0000
  C   C180      1.0  0.8517326723945756  0.49999475329362025  0.589940806922584  1.0000
  C   C181      1.0  0.6050876382999064  0.9999929752053872  0.053538891892237886  1.0000
  C   C182      1.0  0.39490849592133503  7.689403872699997e-06  0.9464577428665278  1.0000
  C   C183      1.0  0.10509156621139232  0.4999980539015495  0.44645999464951547  1.0000
  C   C184      1.0  0.8949111680491058  0.49999307920127467  0.5535428003012797  1.0000
  C   C185      1.0  0.5348344162180325  0.9999943700596032  0.058331283892627483  1.0000
  C   C186      1.0  0.4651607026194143  6.7089685202999985e-06  0.9416634055446662  1.0000
  C   C187      1.0  0.034839389874179  0.5000015428064302  0.44166551467611725  1.0000
  C   C188      1.0  0.9651653751495815  0.4999929055865592  0.5583379287080419  1.0000
  C   C189      1.0  0.7215754497979745  0.9999934654899076  0.08357743393991507  1.0000
  C   C190      1.0  0.27841763826517507  3.0550007536999995e-06  0.9164214703712614  1.0000
  C   C191      1.0  0.22158312184762247  0.49999495228198737  0.4164247179480255  1.0000
  C   C192      1.0  0.7784206278079608  0.4999957664101586  0.5835764559002212  1.0000
  O   O1        1.0  0.2472538641767699  1.6663662094999997e-06  0.1080172614562613  1.0000
  O   O2        1.0  0.7527386818945132  1.5987613367000005e-06  0.8919830716202808  1.0000
  O   O3        1.0  0.7472609924466056  0.500004566298216  0.3919846317104642  1.0000
  O   O4        1.0  0.2527437725427433  0.5000002423973909  0.6080181632181619  1.0000
  O   O5        1.0  0.2879265523463488  0.11112048344585189  0.05434042340102958  1.0000
  O   O6        1.0  0.712068765396495  0.11112118666942906  0.9456599163637802  1.0000
  O   O7        1.0  0.7879310766203247  0.3888876329991645  0.4456610404225714  1.0000
  O   O8        1.0  0.21207447054445785  0.38888705895328707  0.5543365602755229  1.0000
  O   O9        1.0  0.7120721202999363  0.8888880549730015  0.9456620473097812  1.0000
  O   O10       1.0  0.28793041495111993  0.8888894238188878  0.054338015258302584  1.0000
  O   O11       1.0  0.21206454988413267  0.6111159324866619  0.5543394849770846  1.0000
  O   O12       1.0  0.7879348636969182  0.6111239659310141  0.4456581291291996  1.0000
  O   O13       1.0  0.2030662403919123  0.06380319029387489  0.020462490524813897  1.0000
  O   O14       1.0  0.7969314411972732  0.0638062461171103  0.9795370117839466  1.0000
  O   O15       1.0  0.7030727554572209  0.4362036613339554  0.479543083274045  1.0000
  O   O16       1.0  0.2969355048023417  0.43620160665764723  0.5204576244184551  1.0000
  O   O17       1.0  0.796924816829794  0.936204933721633  0.979543870840807  1.0000
  O   O18       1.0  0.20307180070637537  0.9362043643632915  0.0204602713921531  1.0000
  O   O19       1.0  0.2969284556527825  0.5638032194211745  0.5204636023005875  1.0000
  O   O20       1.0  0.7030738294488117  0.5638069317551242  0.4795367407694541  1.0000
  O   O21       1.0  0.0887671022089052  0.9999879138866062  0.07108117776767389  1.0000
  O   O22       1.0  0.9112204354961759  0.9999993754889118  0.9289250517394192  1.0000
  O   O23       1.0  0.5887780237487306  0.4999994610299367  0.4289258564617667  1.0000
  O   O24       1.0  0.4112292797276211  0.49999415851747375  0.5710843955479561  1.0000
  O   O25       1.0  0.09095909214418188  0.9999993430149839  0.1448957769524952  1.0000
  O   O26       1.0  0.9090380917170291  0.9999974778144954  0.855110776748873  1.0000
  O   O27       1.0  0.5909638812750231  0.4999983820702239  0.3551109273842527  1.0000
  O   O28       1.0  0.4090388529849207  0.49998736366188706  0.6448980277611651  1.0000
  O   O29       1.0  0.294542702087341  0.43467037369194356  0.6949997178150793  1.0000
  O   O30       1.0  0.7054528766143449  0.43466741637376316  0.30500034583581476  1.0000
  O   O31       1.0  0.7945509026017348  0.06533334600430149  0.8049978425451484  1.0000
  O   O32       1.0  0.20545844520410134  0.06533072156302919  0.19500165538416064  1.0000
  O   O33       1.0  0.705457493697395  0.5653290476754973  0.3049952958383954  1.0000
  O   O34       1.0  0.294551380687686  0.5653386355673362  0.6949988826676756  1.0000
  O   O35       1.0  0.2054558931776284  0.934669805043633  0.19500268284066635  1.0000
  O   O36       1.0  0.7945513967665718  0.9346653844738309  0.8049985457874198  1.0000
  O   O37       1.0  0.20928943276090448  0.38860046341851245  0.6603747799437514  1.0000
  O   O38       1.0  0.7907105317745646  0.38860358316021854  0.3396231457972404  1.0000
  O   O39       1.0  0.7092915050610387  0.11139287624909848  0.8396200828032361  1.0000
  O   O40       1.0  0.29071041078248067  0.11139706099010024  0.16037863506787178  1.0000
  O   O41       1.0  0.7907087322472677  0.6113985435408438  0.3396205579333013  1.0000
  O   O42       1.0  0.20928661780912708  0.611400396732648  0.6603780280405827  1.0000
  O   O43       1.0  0.2907097061141783  0.8886036442257391  0.1603775246159883  1.0000
  O   O44       1.0  0.7092913080427437  0.8886094053659402  0.8396218903197691  1.0000
  O   O45       1.0  0.40092869385137664  0.04726169548021628  0.10523259084315838  1.0000
  O   O46       1.0  0.5990716426552964  0.04726398414364749  0.8947653376295719  1.0000
  O   O47       1.0  0.9009290294708804  0.452742996989272  0.3947595027529473  1.0000
  O   O48       1.0  0.0990720066839685  0.45273773958219005  0.6052327279620255  1.0000
  O   O49       1.0  0.5990699788560149  0.9527364826553678  0.8947620985936948  1.0000
  O   O50       1.0  0.40092550692325807  0.9527399957454957  0.10523745731008197  1.0000
  O   O51       1.0  0.09906964318636821  0.5472638837851205  0.6052413468584062  1.0000
  O   O52       1.0  0.9009317429363009  0.547269141195329  0.3947616372354688  1.0000
