data_image0
_chemical_formula_structural       Cu4H48C72N4O16
_chemical_formula_sum              "Cu4 H48 C72 N4 O16"
_cell_length_a       11.729232055449542
_cell_length_b       13.049468652673546
_cell_length_c       13.0054
_cell_angle_alpha    97.8016968508108
_cell_angle_beta     105.54436602437103
_cell_angle_gamma    105.31701982464428

_space_group_name_H-M_alt    "P 1"
_space_group_IT_number       1

loop_
  _space_group_symop_operation_xyz
  'x, y, z'

loop_
  _atom_site_type_symbol
  _atom_site_label
  _atom_site_symmetry_multiplicity
  _atom_site_fract_x
  _atom_site_fract_y
  _atom_site_fract_z
  _atom_site_occupancy
  Cu  Cu1       1.0  0.12932469215672882  0.6733994536501626  0.23669392837340547  1.0000
  Cu  Cu2       1.0  0.3705964743538033  0.7627769560898938  0.32715260172283667  1.0000
  Cu  Cu3       1.0  0.870665322227744  0.32659264347039135  0.7633057343467938  1.0000
  Cu  Cu4       1.0  0.6293908894589393  0.2372126962614587  0.6728468563072595  1.0000
  H   H1        1.0  0.1057076312302598  0.3362478519837069  0.18638525781874188  1.0000
  H   H2        1.0  0.3937103304773331  0.8134928783229682  0.6637497697004306  1.0000
  H   H3        1.0  0.8942956572383308  0.6637442451368543  0.8136091550661175  1.0000
  H   H4        1.0  0.6062852786152177  0.1865049232590721  0.3362427952338293  1.0000
  H   H5        1.0  0.48424206997324143  0.48708033285066676  0.3967250887676527  1.0000
  H   H6        1.0  0.01586705573341622  0.6033568159291036  0.5116036273431134  1.0000
  H   H7        1.0  0.515749118669703  0.5129150239621652  0.6032599235154875  1.0000
  H   H8        1.0  0.9841294382980833  0.39664098565292955  0.48840068514108737  1.0000
  H   H9        1.0  0.504700013356981  0.3053516736949504  0.41870215263013216  1.0000
  H   H10       1.0  0.9958969373350826  0.581542140313573  0.6940738620789588  1.0000
  H   H11       1.0  0.4952926558443096  0.6946404234256107  0.5812966139052732  1.0000
  H   H12       1.0  0.004092766504413719  0.4184589209607381  0.3059223330794509  1.0000
  H   H13       1.0  0.010742247563335599  0.1355795657974426  0.1451344132754073  1.0000
  H   H14       1.0  0.4889130290538546  0.8547263557332059  0.8651328116181745  1.0000
  H   H15       1.0  0.9892403979900877  0.8644092716308407  0.8548576421194837  1.0000
  H   H16       1.0  0.5110890681759059  0.1452722607718968  0.13486758370993351  1.0000
  H   H17       1.0  0.029367310206382106  0.9533556797674405  0.17101912700302782  1.0000
  H   H18       1.0  0.4708720495283174  0.8289185570829644  0.04813116201901824  1.0000
  H   H19       1.0  0.9706265247631976  0.046644566583808  0.8289810312498602  1.0000
  H   H20       1.0  0.5291221002313337  0.1710702803453188  0.9518675183638905  1.0000
  H   H21       1.0  0.41088725057724657  0.10375600505695808  0.3750454008145353  1.0000
  H   H22       1.0  0.08992691816613531  0.6251519333910025  0.8964296734461428  1.0000
  H   H23       1.0  0.5891098433187522  0.8962360920636028  0.6249559729402208  1.0000
  H   H24       1.0  0.9100639684220084  0.3748474980371768  0.10356504775293016  1.0000
  H   H25       1.0  0.9334277119877397  0.6073124525026756  0.008398910730285428  1.0000
  H   H26       1.0  0.5656750674125418  0.990757388910495  0.39267734440718977  1.0000
  H   H27       1.0  0.06657584882000832  0.3926926833869828  0.9916104154131486  1.0000
  H   H28       1.0  0.4343202438703102  0.009242042517676899  0.6073253663908531  1.0000
  H   H29       1.0  0.9075249303798072  0.6090278655614583  0.31905446233825063  1.0000
  H   H30       1.0  0.5937494025039527  0.6817784926385073  0.39135941508916966  1.0000
  H   H31       1.0  0.0924848037750792  0.3909894941742209  0.6809472560187544  1.0000
  H   H32       1.0  0.40625593667186166  0.3182217537127343  0.6086489059744976  1.0000
  H   H33       1.0  0.7057350338371577  0.5767072017493006  0.9281438184946467  1.0000
  H   H34       1.0  0.7930233885701625  0.0707793281748081  0.42304356523593617  1.0000
  H   H35       1.0  0.294278839937995  0.4233044535248993  0.07185658556156227  1.0000
  H   H36       1.0  0.20697369259056583  0.9292201032533638  0.5769518842069913  1.0000
  H   H37       1.0  0.6762607594787297  0.5744457902347477  0.25181775901771886  1.0000
  H   H38       1.0  0.8247583257157274  0.7488596999293335  0.4256264767264141  1.0000
  H   H39       1.0  0.3237451328655894  0.4255756441162717  0.7481905060038087  1.0000
  H   H40       1.0  0.17524788990884588  0.2511454359603178  0.5743734952070979  1.0000
  H   H41       1.0  0.5172860579282883  0.6200545895987375  0.9958443812659181  1.0000
  H   H42       1.0  0.9818044470863967  0.0033460741184753997  0.3791698851446767  1.0000
  H   H43       1.0  0.48272397403630407  0.3799611402908099  0.004149497961428469  1.0000
  H   H44       1.0  0.018187315950498828  0.9966582468481135  0.6208203314811199  1.0000
  H   H45       1.0  0.4948717058633889  0.5633310545061008  0.10714245973361608  1.0000
  H   H46       1.0  0.005271776932637788  0.8929478774829818  0.4369882895268518  1.0000
  H   H47       1.0  0.5051439335445593  0.43668304553730747  0.8928563973106165  1.0000
  H   H48       1.0  0.9947335495079059  0.10705970317587797  0.5630018046429867  1.0000
  C   C1        1.0  0.278375884200436  0.5306762722359366  0.2816687662607293  1.0000
  C   C2        1.0  0.22134748772111118  0.7183832070207571  0.46886864133418976  1.0000
  C   C3        1.0  0.7216359473576759  0.46932234426917313  0.7183285993602624  1.0000
  C   C4        1.0  0.7786655393209257  0.2816064453305954  0.5311385570189131  1.0000
  C   C5        1.0  0.2929222468249577  0.4214252409293806  0.28968818248836203  1.0000
  C   C6        1.0  0.20682418361777619  0.7103879967975927  0.5781706918621622  1.0000
  C   C7        1.0  0.7070836879702752  0.5785717457295901  0.7103136872524942  1.0000
  C   C8        1.0  0.7931805769189848  0.2896057301691073  0.42183660137924045  1.0000
  C   C9        1.0  0.1925572744897934  0.3284531128353406  0.23628320188367977  1.0000
  C   C10       1.0  0.3071351880053612  0.7637703473101638  0.6715422304137562  1.0000
  C   C11       1.0  0.8074421636780541  0.6715479484389704  0.763719190504112  1.0000
  C   C12       1.0  0.6928642544075744  0.2362282691949389  0.32846290565601777  1.0000
  C   C13       1.0  0.4069543094033037  0.4127552744056544  0.3551135856849825  1.0000
  C   C14       1.0  0.09308280573472422  0.6449154476436049  0.5863829866310653  1.0000
  C   C15       1.0  0.5930442608059678  0.5872360077918372  0.644878806944291  1.0000
  C   C16       1.0  0.9069139818613934  0.3550831688615048  0.413621507800748  1.0000
  C   C17       1.0  0.2008224365224436  0.2242431956293416  0.2471573114043935  1.0000
  C   C18       1.0  0.2991398417204961  0.7528536378871137  0.7760211978921986  1.0000
  C   C19       1.0  0.7991675736169339  0.7757513462604279  0.7528373008996992  1.0000
  C   C20       1.0  0.7008554738074437  0.24714334877185706  0.22398271876507173  1.0000
  C   C21       1.0  0.4180689085433329  0.312320895775116  0.36704452422623035  1.0000
  C   C22       1.0  0.08224469988046222  0.6330029022310768  0.6871304631459125  1.0000
  C   C23       1.0  0.5819261219101718  0.6876703864223755  0.6329454750630176  1.0000
  C   C24       1.0  0.9177482459050879  0.3669997888893732  0.3128744266594268  1.0000
  C   C25       1.0  0.31592816057796824  0.2157802195649623  0.31392995892092296  1.0000
  C   C26       1.0  0.18433934441983266  0.6861041042850856  0.7841434432814722  1.0000
  C   C27       1.0  0.6840609603773798  0.7842167670940083  0.68607399840387  1.0000
  C   C28       1.0  0.8156530142364814  0.3138969569892253  0.21585877589452446  1.0000
  C   C29       1.0  0.0977841919738651  0.1281393181837913  0.19559999823778174  1.0000
  C   C30       1.0  0.4022009440757657  0.8043657399579232  0.8725907384058758  1.0000
  C   C31       1.0  0.9022037462328355  0.8718592983213111  0.8043977439325899  1.0000
  C   C32       1.0  0.5977970177788166  0.1956361362394574  0.12740910143676834  1.0000
  C   C33       1.0  0.10758864358334108  0.0277872467831628  0.2096006674369946  1.0000
  C   C34       1.0  0.3926715956439324  0.7904533733357653  0.9732691107866386  1.0000
  C   C35       1.0  0.8924007709366251  0.9722105547988775  0.7904065474809129  1.0000
  C   C36       1.0  0.607326068400937  0.2095501327077471  0.026727034515026577  1.0000
  C   C37       1.0  0.3240436866194969  0.1114472489756437  0.3249003115200111  1.0000
  C   C38       1.0  0.17646291596859953  0.6751637620930495  0.8887340509751311  1.0000
  C   C39       1.0  0.6759483869623821  0.8885481078371881  0.6751079819837144  1.0000
  C   C40       1.0  0.8235317954497388  0.3248413737966017  0.1112685229068617  1.0000
  C   C41       1.0  0.22202916099586636  0.019170250258874  0.2740324608621734  1.0000
  C   C42       1.0  0.27845070853588527  0.7260964538622898  0.9814159717334405  1.0000
  C   C43       1.0  0.7779682222196627  0.9808251065539577  0.725969426803708  1.0000
  C   C44       1.0  0.7215534606265591  0.2738980880274724  0.018582062639758572  1.0000
  C   C45       1.0  0.2324833330250584  0.909119210850484  0.2843323975025028  1.0000
  C   C46       1.0  0.2678282188733406  0.7157208533566006  0.0914426921544234  1.0000
  C   C47       1.0  0.7675223082055567  0.09087696088541719  0.71567390375899  1.0000
  C   C48       1.0  0.7321830213104474  0.2842785780715786  0.9085569482689875  1.0000
  C   C49       1.0  0.8729353311185263  0.6003587139608014  0.059503786962373816  1.0000
  C   C50       1.0  0.6265438479920036  0.9399485654476365  0.3997515764354772  1.0000
  C   C51       1.0  0.12706941243786926  0.3996447920827179  0.9405002206648517  1.0000
  C   C52       1.0  0.3734535267333428  0.0600516809036051  0.600248668423319  1.0000
  C   C53       1.0  0.8580171470267428  0.6008012171868913  0.23287578919138938  1.0000
  C   C54       1.0  0.642743169354965  0.7675638141931387  0.39946064907340423  1.0000
  C   C55       1.0  0.1419802234535155  0.3992014739335588  0.7671247876309195  1.0000
  C   C56       1.0  0.3572595150040243  0.23243643215810286  0.600544723618178  1.0000
  C   C57       1.0  0.745885064641449  0.5827906024542244  0.01550735937388478  1.0000
  C   C58       1.0  0.7534230567916538  0.9838305428298781  0.41715710165352954  1.0000
  C   C59       1.0  0.2541205596088076  0.4172153483585035  0.9844902738937973  1.0000
  C   C60       1.0  0.2465740201239868  0.0161713333675024  0.5828402175756722  1.0000
  C   C61       1.0  0.7300045130412514  0.5819569361553433  0.19496025346199264  1.0000
  C   C62       1.0  0.7706587843459259  0.8054178056391024  0.4181979070773848  1.0000
  C   C63       1.0  0.26999578884008457  0.4180563489649954  0.8050378613317122  1.0000
  C   C64       1.0  0.22934330439365166  0.19458570040440998  0.5818046900005099  1.0000
  C   C65       1.0  0.671469359790926  0.5744718677729352  0.0841186199734452  1.0000
  C   C66       1.0  0.8285026054928011  0.9157926158568583  0.42560218029869645  1.0000
  C   C67       1.0  0.3285371324178996  0.425543862116605  0.9158790172048795  1.0000
  C   C68       1.0  0.1714977176139882  0.0842084454174525  0.5743958125001639  1.0000
  C   C69       1.0  0.534074843490238  0.5561686956587407  0.03958959288230798  1.0000
  C   C70       1.0  0.9657711656330648  0.9602572632329397  0.44374036198441036  1.0000
  C   C71       1.0  0.4659337121610889  0.4438478491538689  0.9604040405340155  1.0000
  C   C72       1.0  0.0342276769153642  0.0397470577336492  0.5562507967645658  1.0000
  N   N1        1.0  0.9290894820262564  0.6106894936977412  0.1668958379599772  1.0000
  N   N2        1.0  0.5710804110462888  0.8330298439625777  0.38966336112288497  1.0000
  N   N3        1.0  0.07091407878149167  0.3893156421919101  0.8331065679810832  1.0000
  N   N4        1.0  0.428921090564053  0.16697203223480267  0.6103381031484076  1.0000
  O   O1        1.0  0.1732378540702939  0.5328325586746772  0.22312803088608746  1.0000
  O   O2        1.0  0.32648984696011496  0.7764195831764409  0.4670343655447907  1.0000
  O   O3        1.0  0.826775466536354  0.467157908599745  0.7768639711871258  1.0000
  O   O4        1.0  0.6735072257104305  0.2235847377901479  0.5329655923820481  1.0000
  O   O5        1.0  0.3728057405193113  0.6135278707446545  0.33628147125102  1.0000
  O   O6        1.0  0.1268153739757736  0.6641834886706732  0.38561879261905563  1.0000
  O   O7        1.0  0.6271989987920037  0.3864780800680663  0.6637190237828462  1.0000
  O   O8        1.0  0.8731962192039049  0.33578253091170035  0.6143925294015985  1.0000
  O   O9        1.0  0.13205361649109898  0.8318587995134192  0.2656620818846136  1.0000
  O   O10       1.0  0.36828403481140976  0.7339514973177116  0.16920206048150274  1.0000
  O   O11       1.0  0.867949663487309  0.1681381871455514  0.7343552933571614  1.0000
  O   O12       1.0  0.6317227849227577  0.2660454893412592  0.8308023298727958  1.0000
  O   O13       1.0  0.3429782375129236  0.9021809558469087  0.3091130971769615  1.0000
  O   O14       1.0  0.15722724771128335  0.6913285760760033  0.0977942707764043  1.0000
  O   O15       1.0  0.6570200433768179  0.09780706665830509  0.6908841639208132  1.0000
  O   O16       1.0  0.8427780787292605  0.3086790045828494  0.9021942855706795  1.0000
