data_image0
_chemical_formula_structural       Cu12P6H72C90I12N18
_chemical_formula_sum              "Cu12 P6 H72 C90 I12 N18"
_cell_length_a       11.46887258524182
_cell_length_b       17.89158070092354
_cell_length_c       17.895872701354435
_cell_angle_alpha    115.55622329509687
_cell_angle_beta     102.32920614456974
_cell_angle_gamma    102.32488271747023

_space_group_name_H-M_alt    "P 1"
_space_group_IT_number       1

loop_
  _space_group_symop_operation_xyz
  'x, y, z'

loop_
  _atom_site_type_symbol
  _atom_site_label
  _atom_site_symmetry_multiplicity
  _atom_site_fract_x
  _atom_site_fract_y
  _atom_site_fract_z
  _atom_site_occupancy
  Cu  Cu1       1.0  0.9617302145360894  0.5788968988511343  0.5595980257050855  1.0000
  Cu  Cu2       1.0  0.4022953109963866  0.44043016871873414  0.019316046710713505  1.0000
  Cu  Cu3       1.0  0.3828673546506067  0.9805683149726433  0.42099865530735797  1.0000
  Cu  Cu4       1.0  0.03827063359241832  0.4211026728946052  0.440402030797401  1.0000
  Cu  Cu5       1.0  0.5977057694221061  0.5595680818872497  0.9806834714347876  1.0000
  Cu  Cu6       1.0  0.617132601420245  0.0194312566799439  0.5790023968148789  1.0000
  Cu  Cu7       1.0  0.6809244804078602  0.5841691206928132  0.7637165676249328  1.0000
  Cu  Cu8       1.0  0.917375965310562  0.2364443740237121  0.8206251682818293  1.0000
  Cu  Cu9       1.0  0.09669794490439193  0.17943691850303622  0.41579287193634684  1.0000
  Cu  Cu10      1.0  0.31907669760447993  0.4158311116693767  0.23628326024616814  1.0000
  Cu  Cu11      1.0  0.08262432122317886  0.7635558579085782  0.17937733150711926  1.0000
  Cu  Cu12      1.0  0.9033023410502923  0.8205633137660017  0.5842079515545041  1.0000
  P   P1        1.0  0.8454046725685701  0.581271673285194  0.6426942763953111  1.0000
  P   P2        1.0  0.20285702108341755  0.3574011476348248  0.9387209113983915  1.0000
  P   P3        1.0  0.2640824040957029  0.06127412401478691  0.41865929275394365  1.0000
  P   P4        1.0  0.15459650602283403  0.41872855874024845  0.35730722777388735  1.0000
  P   P5        1.0  0.7971429347944081  0.6425984241300142  0.06127958195781266  1.0000
  P   P6        1.0  0.735916096971572  0.9387261085169387  0.5813412869122846  1.0000
  H   H1        1.0  0.8456304612162456  0.40689990982274793  0.5362208998500366  1.0000
  H   H2        1.0  0.3096119116329633  0.46386657620721655  0.8708192630103684  1.0000
  H   H3        1.0  0.4387305934990664  0.1291778006147482  0.5929638091115451  1.0000
  H   H4        1.0  0.15436972637250787  0.5930983411390754  0.4637773788510844  1.0000
  H   H5        1.0  0.6903874816849936  0.5361336563054165  0.12918087980214216  1.0000
  H   H6        1.0  0.5612699249386212  0.8708211104022893  0.40703703478835973  1.0000
  H   H7        1.0  0.7504983569621758  0.2614053053662673  0.5265009701268824  1.0000
  H   H8        1.0  0.22430461237837562  0.47359058085219624  0.7350655404649731  1.0000
  H   H9        1.0  0.48905943291692466  0.2649421892371747  0.7383875746377344  1.0000
  H   H10       1.0  0.24949948395138935  0.7385936061570461  0.473498949270038  1.0000
  H   H11       1.0  0.7756932287282012  0.5264083305588727  0.2649349376979871  1.0000
  H   H12       1.0  0.5109417454814604  0.7350580429005192  0.26161337076543145  1.0000
  H   H13       1.0  0.6454592305213467  0.2582839556274407  0.6350070209162199  1.0000
  H   H14       1.0  0.010765838407763855  0.36515053294795763  0.6235084074096593  1.0000
  H   H15       1.0  0.38700731352418677  0.37650901421258004  0.7415170979770027  1.0000
  H   H16       1.0  0.35453960042977434  0.7417169375207351  0.3649933301186224  1.0000
  H   H17       1.0  0.9892337875862226  0.6348483782004236  0.37649231457792354  1.0000
  H   H18       1.0  0.6129935349903591  0.6234905573086637  0.258484076057549  1.0000
  H   H19       1.0  0.6283462578442781  0.3996255090887503  0.7435178195460568  1.0000
  H   H20       1.0  0.8850851249316278  0.2566800455967382  0.6563544873476419  1.0000
  H   H21       1.0  0.22852151436979543  0.34371942566166774  0.6002245863826873  1.0000
  H   H22       1.0  0.3716534651644993  0.6003753841525779  0.25648153586903544  1.0000
  H   H23       1.0  0.11491238609809787  0.7433182053101249  0.34364566068067176  1.0000
  H   H24       1.0  0.7714775496433862  0.6562801458977674  0.39977746135929976  1.0000
  H   H25       1.0  0.10592986054019358  0.6969686111852412  0.7463572930482275  1.0000
  H   H26       1.0  0.3596106373330984  0.25359680016158853  0.9507761651176455  1.0000
  H   H27       1.0  0.4088746820837272  0.0493236584106782  0.3028871117389188  1.0000
  H   H28       1.0  0.8940695325847512  0.3030316214396364  0.2536422909982435  1.0000
  H   H29       1.0  0.6403915307168049  0.7464054138254569  0.04922409439137017  1.0000
  H   H30       1.0  0.5911243819294613  0.9506759131487497  0.6971149360030681  1.0000
  H   H31       1.0  0.21950945794893786  0.8046348736211897  0.9086900466150639  1.0000
  H   H32       1.0  0.31084102863418656  0.0911841612223014  0.8960326667054448  1.0000
  H   H33       1.0  0.41463183543152843  0.10401801202760907  0.19516439435546576  1.0000
  H   H34       1.0  0.7804893728091571  0.19536601963923061  0.09130974565374571  1.0000
  H   H35       1.0  0.6891625938402159  0.9088173922223531  0.1039663889614887  1.0000
  H   H36       1.0  0.585364587194704  0.8959762759471915  0.8048327772451886  1.0000
  H   H37       1.0  0.09204034911475395  0.8268426886161606  0.010654752476931331  1.0000
  H   H38       1.0  0.08139268023908398  0.9892939760631875  0.8161990892818738  1.0000
  H   H39       1.0  0.2647929008132976  0.18370073034200374  0.17297846020547078  1.0000
  H   H40       1.0  0.9079602667237694  0.1731582042693276  0.9893458423825339  1.0000
  H   H41       1.0  0.9186115047951873  0.010706916633672799  0.18380031692876037  1.0000
  H   H42       1.0  0.7352019694085428  0.8162922366434769  0.8270184879796008  1.0000
  H   H43       1.0  0.8586514110148684  0.7393705482354633  0.9454701185462542  1.0000
  H   H44       1.0  0.913313003237029  0.05458758593844949  0.7939175316035263  1.0000
  H   H45       1.0  0.11897773474012042  0.20599222382193008  0.260562398072942  1.0000
  H   H46       1.0  0.1413476520332111  0.2606290238852154  0.05452913536556995  1.0000
  H   H47       1.0  0.08669085249246682  0.9454126458052199  0.20608377953658422  1.0000
  H   H48       1.0  0.881022453041652  0.7940060270276492  0.7394364393942117  1.0000
  H   H49       1.0  0.7359290671519576  0.6225829657636127  0.5103900616353912  1.0000
  H   H50       1.0  0.22556371127040362  0.48966130166091654  0.112361908468202  1.0000
  H   H51       1.0  0.11324553857541286  0.8875895192155526  0.3773891184115431  1.0000
  H   H52       1.0  0.26407154868656596  0.37741792712188277  0.489610533224081  1.0000
  H   H53       1.0  0.7744383597647018  0.5103389302331891  0.8876397176133113  1.0000
  H   H54       1.0  0.8867517405503593  0.11241005260656321  0.6226126855058142  1.0000
  H   H55       1.0  0.5353021377029209  0.6561068679468534  0.4724905072087256  1.0000
  H   H56       1.0  0.06276067121012828  0.5275022409137691  0.18372599490199815  1.0000
  H   H57       1.0  0.8790482027433487  0.8162168404334409  0.34370575368228645  1.0000
  H   H58       1.0  0.4646994687522152  0.3438960062267499  0.5275121955867592  1.0000
  H   H59       1.0  0.9372406047821118  0.472499972980124  0.8162752602267747  1.0000
  H   H60       1.0  0.12094884332036324  0.1837840529774226  0.6562943535279262  1.0000
  H   H61       1.0  0.3921888383836747  0.6549460423256692  0.5617646491258841  1.0000
  H   H62       1.0  0.8304380377629172  0.43830229104585783  0.09325210432406565  1.0000
  H   H63       1.0  0.7372324425239187  0.9067754606032282  0.34495048963139424  1.0000
  H   H64       1.0  0.607815115325714  0.3450561709497039  0.43823808927189856  1.0000
  H   H65       1.0  0.16956277268425177  0.5617025656887762  0.9067474336885158  1.0000
  H   H66       1.0  0.2627648348646758  0.0932241122291231  0.6550462853916701  1.0000
  H   H67       1.0  0.4522776332178113  0.6188614658505713  0.6809045380394282  1.0000
  H   H68       1.0  0.7714932128808842  0.319270173266375  0.9380205031113181  1.0000
  H   H69       1.0  0.8335860796442703  0.062105247062362395  0.3813686877460682  1.0000
  H   H70       1.0  0.5477249999911251  0.381138105520236  0.3190963210537206  1.0000
  H   H71       1.0  0.22850693799162514  0.6807333621231136  0.06198005093006039  1.0000
  H   H72       1.0  0.16641152762816355  0.9378949863864462  0.6186278586456099  1.0000
  C   C1        1.0  0.7815568711523256  0.4774143485604937  0.6421803344324106  1.0000
  C   C2        1.0  0.13957905109253232  0.3579341802365903  0.8354077491912266  1.0000
  C   C3        1.0  0.30404247328011996  0.16461348282479094  0.5224588051587348  1.0000
  C   C4        1.0  0.218444637322918  0.5225865440814061  0.3578209411054092  1.0000
  C   C5        1.0  0.8604209047852935  0.6420653915282415  0.1645927441649777  1.0000
  C   C6        1.0  0.6959562606562103  0.8353854282304382  0.4775429124485983  1.0000
  C   C7        1.0  0.7952496125748639  0.40199208366922085  0.5801806292551108  1.0000
  C   C8        1.0  0.21529116904183362  0.419919457926909  0.8219755056760081  1.0000
  C   C9        1.0  0.39319017878784024  0.1780165479864451  0.5978473039441854  1.0000
  C   C10       1.0  0.20475457303847133  0.5980088086908993  0.4198204532536212  1.0000
  C   C11       1.0  0.784707894392291  0.5800801139692737  0.17802486576788124  1.0000
  C   C12       1.0  0.606809447399165  0.8219823630496917  0.4021539768094371  1.0000
  C   C13       1.0  0.7430767322074417  0.3216202296673956  0.5753808456967208  1.0000
  C   C14       1.0  0.1679796506982711  0.42472905963547447  0.746421069665992  1.0000
  C   C15       1.0  0.4213830533033943  0.2535886611303155  0.6781842642582774  1.0000
  C   C16       1.0  0.2569253382486068  0.6783800025634505  0.4246191040866949  1.0000
  C   C17       1.0  0.832019082852014  0.5752698516442508  0.25357953040927594  1.0000
  C   C18       1.0  0.5786165726905992  0.7464102500180657  0.3218164577293054  1.0000
  C   C19       1.0  0.683318586693737  0.31958865038333784  0.6350434591600378  1.0000
  C   C20       1.0  0.048580232393227604  0.3650980314420734  0.6847538794825142  1.0000
  C   C21       1.0  0.3636169680861912  0.31527434540718957  0.680221790033045  1.0000
  C   C22       1.0  0.3166816984888642  0.6804115823346919  0.36495512926668294  1.0000
  C   C23       1.0  0.9514185011570576  0.6349008798376514  0.3152467205927608  1.0000
  C   C24       1.0  0.6363826579077954  0.6847245657411919  0.31977893195453805  1.0000
  C   C25       1.0  0.6743251746662509  0.39754144281918974  0.6955833659497872  1.0000
  C   C26       1.0  0.9789958896196895  0.30457232202331846  0.7021782053107659  1.0000
  C   C27       1.0  0.27661173350676194  0.2978761615461352  0.6023074435399992  1.0000
  C   C28       1.0  0.32567421807264924  0.6024587900301838  0.3044151005646258  1.0000
  C   C29       1.0  0.021001157216105144  0.6954285709385459  0.2978241369635769  1.0000
  C   C30       1.0  0.7233875627964113  0.7021220888735442  0.397694065844995  1.0000
  C   C31       1.0  0.92495567651779  0.6613449952644288  0.7624214639170293  1.0000
  C   C32       1.0  0.16266075828522017  0.23762154582730935  0.8990586782234901  1.0000
  C   C33       1.0  0.2634226210723297  0.10091236652280601  0.3385225243178312  1.0000
  C   C34       1.0  0.07504592916526323  0.3386578793581663  0.23757900381432523  1.0000
  C   C35       1.0  0.837340420113165  0.7623786863103844  0.10094226717967579  1.0000
  C   C36       1.0  0.7365752196482164  0.8990865451127589  0.6614768363130568  1.0000
  C   C37       1.0  0.05547509942518057  0.708292060774575  0.7932157506782505  1.0000
  C   C38       1.0  0.26232985038466694  0.20674927417467606  0.9152059669940374  1.0000
  C   C39       1.0  0.34699878944380214  0.0847948945173371  0.2915308847036188  1.0000
  C   C40       1.0  0.9445258464902011  0.29170949261511947  0.20678517431586857  1.0000
  C   C41       1.0  0.7376716578975577  0.7932516185794753  0.08479474977774981  1.0000
  C   C42       1.0  0.6529999433344004  0.9152040172113872  0.7084674803075263  1.0000
  C   C43       1.0  0.1175835229976273  0.7683179850315939  0.8831999241759552  1.0000
  C   C44       1.0  0.23445136734882516  0.1167287186453692  0.885215859908158  1.0000
  C   C45       1.0  0.3489764975084313  0.11474820998540032  0.23146851830740908  1.0000
  C   C46       1.0  0.8824170924548583  0.2316829080783904  0.1167995531514521  1.0000
  C   C47       1.0  0.7655510335701197  0.8832721738651871  0.11478553754197672  1.0000
  C   C48       1.0  0.6510224681388197  0.8852493802668207  0.7685309846448408  1.0000
  C   C49       1.0  0.047503930988078626  0.780939258124157  0.9398390718247288  1.0000
  C   C50       1.0  0.1077354637162955  0.06014044033852879  0.8411663059199129  1.0000
  C   C51       1.0  0.26617190666348023  0.1587255791985243  0.21884334778483358  1.0000
  C   C52       1.0  0.9524957924067369  0.21906163489267533  0.06016140112242861  1.0000
  C   C53       1.0  0.8922666067397531  0.9398597918923173  0.15883364386350984  1.0000
  C   C54       1.0  0.733825506193334  0.8412706902888872  0.7811548142197753  1.0000
  C   C55       1.0  0.9179955736592336  0.7322773989141779  0.9044063058573786  1.0000
  C   C56       1.0  0.013712658303958816  0.09562449157629521  0.8279277425812382  1.0000
  C   C57       1.0  0.18540753950475164  0.1719786181302396  0.2675871526317054  1.0000
  C   C58       1.0  0.08200348919583429  0.26772217331874504  0.09559238928841304  1.0000
  C   C59       1.0  0.9862903045957979  0.9043757405232071  0.17207232911449233  1.0000
  C   C60       1.0  0.8145910964516858  0.8280183113932793  0.7324131377179627  1.0000
  C   C61       1.0  0.6978230264891182  0.6048568158636769  0.6153410776605456  1.0000
  C   C62       1.0  0.08261402842372695  0.38478826089443874  0.9896587119225871  1.0000
  C   C63       1.0  0.09300718604033882  0.010363643878370998  0.3951989934094798  1.0000
  C   C64       1.0  0.30217749117649373  0.3951420956023597  0.384657531175229  1.0000
  C   C65       1.0  0.9173865874147964  0.6152126319910494  0.010341882936885038  1.0000
  C   C66       1.0  0.9069900923133574  0.9896359283927366  0.6048005754437472  1.0000
  C   C67       1.0  0.6701278432948287  0.6229304573517142  0.5462758059105471  1.0000
  C   C68       1.0  0.1238985200599103  0.45380751189213697  0.07679314925615445  1.0000
  C   C69       1.0  0.04717052792891959  0.9231918263010427  0.3770584498617284  1.0000
  C   C70       1.0  0.32987399487123537  0.3770710960188807  0.45372468222985435  1.0000
  C   C71       1.0  0.8761030858161691  0.5461953626182136  0.9232078772412322  1.0000
  C   C72       1.0  0.9528264205409371  0.0768070853536145  0.6229413476228844  1.0000
  C   C73       1.0  0.5592253806160273  0.6415142828733593  0.5258542269562697  1.0000
  C   C74       1.0  0.03336769892533204  0.47421346603047715  0.11576104437247657  1.0000
  C   C75       1.0  0.917647253890536  0.8842045378833776  0.35839465743088567  1.0000
  C   C76       1.0  0.44077546770549964  0.3584852887601357  0.47414638831224937  1.0000
  C   C77       1.0  0.9666323539672846  0.5257880878273015  0.88423808241123  1.0000
  C   C78       1.0  0.08235035415397361  0.1157956951164323  0.641604124024923  1.0000
  C   C79       1.0  0.4799615875833113  0.6412872965664604  0.5750853285243382  1.0000
  C   C80       1.0  0.9049193204655597  0.42500797635995724  0.06628282194860464  1.0000
  C   C81       1.0  0.8386945477872629  0.9337359024826951  0.3586898793597445  1.0000
  C   C82       1.0  0.5200399206989134  0.35871359618768384  0.42491538824744896  1.0000
  C   C83       1.0  0.09508050013707264  0.5749948986375771  0.9337168431920946  1.0000
  C   C84       1.0  0.16130239991051104  0.06626300962095398  0.6413076830607382  1.0000
  C   C85       1.0  0.5128615807622838  0.6214450065099016  0.6420211454273858  1.0000
  C   C86       1.0  0.8709458801827239  0.3581360810152461  0.9795107222143007  1.0000
  C   C87       1.0  0.8915013348210579  0.0205524281071732  0.3786746370277499  1.0000
  C   C88       1.0  0.4871401601959705  0.37855456487999817  0.3579801505194809  1.0000
  C   C89       1.0  0.129053940419901  0.6418667939822811  0.020488942926391716  1.0000
  C   C90       1.0  0.10849382798931381  0.9794464842591636  0.6213226815681027  1.0000
  I   I1        1.0  0.8376586629895473  0.4639406378957672  0.3911941360094603  1.0000
  I   I2        1.0  0.44645054649689103  0.6088980936761744  0.0728517864139919  1.0000
  I   I3        1.0  0.37379075653748106  0.9272119382511048  0.5360757962169701  1.0000
  I   I4        1.0  0.1623391775379731  0.5360582738520494  0.6088046658553953  1.0000
  I   I5        1.0  0.5535488839233552  0.3910968541842977  0.9271471985903263  1.0000
  I   I6        1.0  0.6262091993403517  0.07278763351372669  0.463924697139234  1.0000
  I   I7        1.0  0.5263520077248315  0.5871074729922298  0.8462041737472036  1.0000
  I   I8        1.0  0.6803953621626492  0.15389002518131184  0.7410077055220018  1.0000
  I   I9        1.0  0.9394033724878597  0.2591712782184104  0.4131062239816217  1.0000
  I   I10       1.0  0.47364850994077295  0.4128914384738066  0.15379443508856383  1.0000
  I   I11       1.0  0.3196052540619121  0.8461108674796877  0.25899400686953583  1.0000
  I   I12       1.0  0.0605960210231232  0.7408289541819714  0.5868944775969213  1.0000
  N   N1        1.0  0.7200797042025543  0.4750104463456993  0.6982784581174148  1.0000
  N   N2        1.0  0.02202077227453713  0.3018682639969654  0.7769298222064479  1.0000
  N   N3        1.0  0.24495213185299758  0.22311709073986208  0.5248767282859818  1.0000
  N   N4        1.0  0.2799221341565287  0.5249911069126512  0.3017225887890193  1.0000
  N   N5        1.0  0.9779779612757482  0.6981306472827598  0.22307077786882723  1.0000
  N   N6        1.0  0.7550469317741462  0.7768824810440621  0.4751242019239403  1.0000
  N   N7        1.0  0.8577134027624072  0.672845788476522  0.8177936497755244  1.0000
  N   N8        1.0  0.04006486089237171  0.1822793194190737  0.8551381685487203  1.0000
  N   N9        1.0  0.18467228224152882  0.14480974367527474  0.32705953035972624  1.0000
  N   N10       1.0  0.142286882806232  0.32715444401701177  0.18220605618326158  1.0000
  N   N11       1.0  0.9599357551391707  0.8177215733541702  0.14486298507678455  1.0000
  N   N12       1.0  0.8153258889419136  0.8551898282400001  0.6729412779378807  1.0000
  N   N13       1.0  0.6195776593691847  0.6035461788306763  0.661921980040717  1.0000
  N   N14       1.0  0.9578006450747766  0.33824890522785006  0.9417411681163801  1.0000
  N   N15       1.0  0.016117470784131206  0.0583156831887734  0.3965910788034891  1.0000
  N   N16       1.0  0.3804240810100056  0.396453392895971  0.33807763960805215  1.0000
  N   N17       1.0  0.04219997095676584  0.6617519875453866  0.058259985509124645  1.0000
  N   N18       1.0  0.9838798073765461  0.9416838891945858  0.6034079312837124  1.0000
