data_image0
_chemical_formula_structural       Zn2H8C16N8O4
_chemical_formula_sum              "Zn2 H8 C16 N8 O4"
_cell_length_a       4.845575277630536
_cell_length_b       8.207075632014062
_cell_length_c       10.576227243791745
_cell_angle_alpha    89.99979162681895
_cell_angle_beta     97.17570104292778
_cell_angle_gamma    89.99998439578773

_space_group_name_H-M_alt    "P 1"
_space_group_IT_number       1

loop_
  _space_group_symop_operation_xyz
  'x, y, z'

loop_
  _atom_site_type_symbol
  _atom_site_label
  _atom_site_symmetry_multiplicity
  _atom_site_fract_x
  _atom_site_fract_y
  _atom_site_fract_z
  _atom_site_occupancy
  Zn  Zn1       1.0  0.8164359342325227  0.1877793150043487  0.5400698184554215  1.0000
  Zn  Zn2       1.0  0.8164399303928391  0.8122221568584396  0.04007188326782091  1.0000
  H   H1        1.0  0.6211675061232  0.3861220981041597  0.3277975495603015  1.0000
  H   H2        1.0  0.6211754832999431  0.6138804925484321  0.827795862532312  1.0000
  H   H3        1.0  0.8472564946781843  0.6240669509115692  0.24694259252751039  1.0000
  H   H4        1.0  0.8472522664779374  0.37593232631927265  0.7469399842742064  1.0000
  H   H5        1.0  0.4146109166542472  0.9376787395607737  0.48713226329861914  1.0000
  H   H6        1.0  0.41461747492047607  0.06232070058147341  0.9871311124310296  1.0000
  H   H7        1.0  0.20124801913259918  0.6964598708991333  0.5725068369224927  1.0000
  H   H8        1.0  0.20125672580271467  0.3035415509518984  0.07250680528424167  1.0000
  C   C1        1.0  0.4044641518421912  0.5244768132953581  0.4594647541747037  1.0000
  C   C2        1.0  0.40446604064535313  0.4755251953298299  0.9594621892269259  1.0000
  C   C3        1.0  0.5790644421101447  0.506358509707269  0.36439641279768137  1.0000
  C   C4        1.0  0.5790642669767436  0.493645134607249  0.8643955783470431  1.0000
  C   C5        1.0  0.70133647416354  0.6420110729282554  0.3161449924121342  1.0000
  C   C6        1.0  0.701332229741382  0.35799034064418583  0.8161405428354128  1.0000
  C   C7        1.0  0.6486640460744438  0.7987903237473971  0.3611518243971687  1.0000
  C   C8        1.0  0.6486641740572026  0.20121088731293926  0.8611489948518452  1.0000
  C   C9        1.0  0.4660578767678629  0.817113335730241  0.45352998830013286  1.0000
  C   C10       1.0  0.4660600881161727  0.18288381667517234  0.9535263754263639  1.0000
  C   C11       1.0  0.34397795657221747  0.6808271730027117  0.5017263555479585  1.0000
  C   C12       1.0  0.343978324198595  0.31917333891138366  0.0017258374885215937  1.0000
  C   C13       1.0  0.2813622164828686  0.37820900452961587  0.5141331628982754  1.0000
  C   C14       1.0  0.2813663899642052  0.621792678013364  0.014132938001928597  1.0000
  C   C15       1.0  0.7883597645130963  0.9388914873674209  0.3122870548218231  1.0000
  C   C16       1.0  0.7883579661597723  0.061107492926986105  0.8122835730387904  1.0000
  N   N1        1.0  0.877961922633517  0.9469140972874542  0.19664545937575886  1.0000
  N   N2        1.0  0.8779601533494912  0.05308419247362651  0.6966429473391854  1.0000
  N   N3        1.0  0.004040322401543497  0.09307534193407459  0.18827314352726174  1.0000
  N   N4        1.0  0.004037576827542497  0.9069206954460827  0.6882719516681631  1.0000
  N   N5        1.0  0.9928996015249252  0.17272579601609556  0.293393259508619  1.0000
  N   N6        1.0  0.9928990532939042  0.8272732389631371  0.793393354589341  1.0000
  N   N7        1.0  0.8594152800661944  0.07980823510808221  0.37339270713095357  1.0000
  N   N8        1.0  0.8594145980680776  0.9201941019239898  0.8733915872614375  1.0000
  O   O1        1.0  0.4148447865264941  0.2439138656354274  0.5281960551714845  1.0000
  O   O2        1.0  0.4148467911487828  0.7560865102434634  0.028199118373720494  1.0000
  O   O3        1.0  0.0348473695219269  0.3919081094767023  0.5441265013611626  1.0000
  O   O4        1.0  0.03485155989842071  0.6080922547869749  0.044126316033512594  1.0000
