data_image0
_chemical_formula_structural       AlH30C45N3O6
_chemical_formula_sum              "Al1 H30 C45 N3 O6"
_cell_length_a       4.013329688807504
_cell_length_b       23.55868756231542
_cell_length_c       23.531373425348047
_cell_angle_alpha    60.055899226982596
_cell_angle_beta     87.28316985193807
_cell_angle_gamma    87.28007724329659

_space_group_name_H-M_alt    "P 1"
_space_group_IT_number       1

loop_
  _space_group_symop_operation_xyz
  'x, y, z'

loop_
  _atom_site_type_symbol
  _atom_site_label
  _atom_site_symmetry_multiplicity
  _atom_site_fract_x
  _atom_site_fract_y
  _atom_site_fract_z
  _atom_site_occupancy
  Al  Al1       1.0  0.9990037996847647  0.4996708634973998  0.49976934465340167  1.0000
  H   H1        1.0  0.6379102405991546  0.31905976980505096  0.678088359277581  1.0000
  H   H2        1.0  0.6270215370269838  0.2556598378864479  0.7986221263139017  1.0000
  H   H3        1.0  0.837069994537643  0.1657464743818835  0.018082770103902076  1.0000
  H   H4        1.0  0.31772626987442715  0.6846092203307634  0.32554224627911327  1.0000
  H   H5        1.0  0.3780526198316139  0.8039403043296145  0.2645497318428201  1.0000
  H   H6        1.0  0.22439629626126134  0.8932226844871846  0.2350009830073677  1.0000
  H   H7        1.0  0.2030830785296658  0.0121798510176916  0.1716964846855547  1.0000
  H   H8        1.0  0.48776884949285904  0.1040108979590499  0.10705111708781351  1.0000
  H   H9        1.0  0.6492561278744872  0.6772942868771422  0.499982539423158  1.0000
  H   H10       1.0  0.6380347964709188  0.7973735281917556  0.4439292036858832  1.0000
  H   H11       1.0  0.8125097760854487  0.0181346816815662  0.31412471049730334  1.0000
  H   H12       1.0  0.36504563439842025  0.325912482345494  0.49121173626078735  1.0000
  H   H13       1.0  0.42078474574964986  0.2646129918181757  0.4319530368257747  1.0000
  H   H14       1.0  0.2387144902711071  0.238867971326755  0.3732070085066398  1.0000
  H   H15       1.0  0.2010103457812988  0.17516558459522  0.3182746139419522  1.0000
  H   H16       1.0  0.49901281264380504  0.10720236896975877  0.28819792450639176  1.0000
  H   H17       1.0  0.7194029772910967  0.4984200640155052  0.3198874065883502  1.0000
  H   H18       1.0  0.7029917696176328  0.44243177595682687  0.2558164642731456  1.0000
  H   H19       1.0  0.8504641460664217  0.30983756997753886  0.16306890212604236  1.0000
  H   H20       1.0  0.3351945416062351  0.4931280667476088  0.6846249651711604  1.0000
  H   H21       1.0  0.39052622725410663  0.43335457140341294  0.8046508129390023  1.0000
  H   H22       1.0  0.18116637114885484  0.371275145918851  0.8937084750229406  1.0000
  H   H23       1.0  0.1612155573777798  0.315183235777873  0.013604946212964797  1.0000
  H   H24       1.0  0.4961147320036476  0.2878854678517015  0.10395713689734276  1.0000
  H   H25       1.0  0.06718494599643783  0.39446867942269387  0.2423427293432426  1.0000
  H   H26       1.0  0.12709210620940337  0.38001111020377454  0.18015837493577186  1.0000
  H   H27       1.0  0.023315191434242908  0.247874224969344  0.8486921715866773  1.0000
  H   H28       1.0  0.10688993691062622  0.186359727813695  0.9236597718100088  1.0000
  H   H29       1.0  0.010643893390579291  0.8509869690333574  0.40002429916292936  1.0000
  H   H30       1.0  0.06201402457013936  0.9260696117904174  0.3876879780404538  1.0000
  C   C1        1.0  0.487297687878268  0.4475556402530713  0.6004317621535409  1.0000
  C   C2        1.0  0.5269412709691819  0.4515424956028013  0.44717810058767077  1.0000
  C   C3        1.0  0.4858309230265477  0.6001254700583586  0.45172984531357246  1.0000
  C   C4        1.0  0.5774936151340456  0.34361607851184317  0.7062911196566618  1.0000
  C   C5        1.0  0.580324921956155  0.308404539079028  0.7744808808000772  1.0000
  C   C6        1.0  0.7136346254349419  0.24355000463186363  0.9219160622954025  1.0000
  C   C7        1.0  0.6857616710074482  0.21048050345062555  0.9907305486869193  1.0000
  C   C8        1.0  0.4001028180310441  0.709739418996527  0.35048400761252224  1.0000
  C   C9        1.0  0.42965671007092954  0.7773390618689646  0.31670044396798164  1.0000
  C   C10       1.0  0.36597297362840203  0.9199779544124027  0.2519196248305066  1.0000
  C   C11       1.0  0.3516250844927954  0.9878045936810763  0.21562904344003203  1.0000
  C   C12       1.0  0.48914437657089865  0.4103412598919718  0.6732895344839136  1.0000
  C   C13       1.0  0.5196465993790369  0.33938923832964457  0.8123383495613584  1.0000
  C   C14       1.0  0.5276024112207055  0.3032373859330236  0.8848293551155211  1.0000
  C   C15       1.0  0.49672902351605325  0.23550725162402128  0.024989059879310146  1.0000
  C   C16       1.0  0.48768902354694166  0.1999631696320563  0.09740572072759332  1.0000
  C   C17       1.0  0.487017252070608  0.1313319173024965  0.133231493330257  1.0000
  C   C18       1.0  0.5833679538951272  0.705625117134069  0.4485178958285518  1.0000
  C   C19       1.0  0.5877294559548645  0.7737147814745525  0.41578528121849  1.0000
  C   C20       1.0  0.7030391455971738  0.9219758142817868  0.33309277734552717  1.0000
  C   C21       1.0  0.674580611289784  0.9907133795759577  0.29724130372908064  1.0000
  C   C22       1.0  0.45183145402813096  0.35032325122480756  0.4400804026671709  1.0000
  C   C23       1.0  0.47844305374682966  0.31643403218039606  0.40584947605830746  1.0000
  C   C24       1.0  0.38578895186119405  0.25371633483205597  0.32815404684851773  1.0000
  C   C25       1.0  0.36231150569528847  0.2172573672512072  0.29715259460963506  1.0000
  C   C26       1.0  0.4878021886050093  0.6727931407240745  0.4164489604681096  1.0000
  C   C27       1.0  0.5232975735969562  0.8118620796359437  0.3480491047332637  1.0000
  C   C28       1.0  0.5362404206438285  0.8842961971647867  0.31139090375268114  1.0000
  C   C29       1.0  0.503634062005915  0.024748600897972005  0.23868960351194354  1.0000
  C   C30       1.0  0.491021919066938  0.09709865606889422  0.20197383553210818  1.0000
  C   C31       1.0  0.4940920316674636  0.13303768598719048  0.23475900743488154  1.0000
  C   C32       1.0  0.6482705264831027  0.4473134308568091  0.3438733445982865  1.0000
  C   C33       1.0  0.6494602473696389  0.41455869197191225  0.308351407568118  1.0000
  C   C34       1.0  0.7469258858093967  0.3304968358635704  0.24134963985436306  1.0000
  C   C35       1.0  0.7085564808111329  0.29480696808849416  0.2089221446003791  1.0000
  C   C36       1.0  0.4088306364133771  0.4413226072682619  0.7100003455196104  1.0000
  C   C37       1.0  0.43561774923901453  0.4070228260041233  0.7777837501728799  1.0000
  C   C38       1.0  0.337099171422814  0.32730369636878  0.9206093156289371  1.0000
  C   C39       1.0  0.3235744664278001  0.29566076647660827  0.9885923736818543  1.0000
  C   C40       1.0  0.5447786292191239  0.4159224773901898  0.4098829304820343  1.0000
  C   C41       1.0  0.5731854843550367  0.3474941102933329  0.33853484441678466  1.0000
  C   C42       1.0  0.5733542293654849  0.3110279382663493  0.3023962365014584  1.0000
  C   C43       1.0  0.52151559695956  0.2382925075300831  0.2356007890070587  1.0000
  C   C44       1.0  0.49853560873778946  0.20164827396076393  0.20023932497141322  1.0000
  C   C45       1.0  0.49198148959632687  0.23448513463660695  0.13156034407300157  1.0000
  N   N1        1.0  0.9536598497417828  0.3841902435309449  0.21092262411042387  1.0000
  N   N2        1.0  0.9233605887442239  0.21532997361306622  0.8932714774252589  1.0000
  N   N3        1.0  0.8935992669402493  0.8943270806976641  0.3892832726752362  1.0000
  O   O1        1.0  0.2595825433178122  0.5727516993614115  0.43815223708215734  1.0000
  O   O2        1.0  0.24598197892561302  0.4883942596455454  0.5731075702829502  1.0000
  O   O3        1.0  0.28472808016328344  0.43840695807210034  0.48876156320697844  1.0000
  O   O4        1.0  0.7136426101721797  0.56985871508234  0.49352219719123985  1.0000
  O   O5        1.0  0.7530538983021627  0.49274157698523186  0.43531465613157383  1.0000
  O   O6        1.0  0.7300061859975883  0.43578228417656095  0.5702876642432174  1.0000
