data_image0
_chemical_formula_structural       Mg2H32C24O16
_chemical_formula_sum              "Mg2 H32 C24 O16"
_cell_length_a       7.1071265514505795
_cell_length_b       7.8467803350431815
_cell_length_c       11.929609708649785
_cell_angle_alpha    90.00020880532573
_cell_angle_beta     93.6213585596641
_cell_angle_gamma    89.9996654306681

_space_group_name_H-M_alt    "P 1"
_space_group_IT_number       1

loop_
  _space_group_symop_operation_xyz
  'x, y, z'

loop_
  _atom_site_type_symbol
  _atom_site_label
  _atom_site_symmetry_multiplicity
  _atom_site_fract_x
  _atom_site_fract_y
  _atom_site_fract_z
  _atom_site_occupancy
  Mg  Mg1       1.0  2.0424190835976097e-06  0.500000171021938  0.5000005928778393  1.0000
  Mg  Mg2       1.0  0.4999965640517631  0.9999988378738537  0.49999915983904225  1.0000
  H   H1        1.0  0.4160314801390684  0.6085014831533683  0.6966708478404513  1.0000
  H   H2        1.0  0.08397554147519773  0.10849867300900229  0.3033383328758887  1.0000
  H   H3        1.0  0.583970533805534  0.39149623527102045  0.3033299679645225  1.0000
  H   H4        1.0  0.9160208076446282  0.8915028686514859  0.696661494419608  1.0000
  H   H5        1.0  0.5384521532673077  0.8005329032321811  0.7353802159659749  1.0000
  H   H6        1.0  0.9615557932102237  0.3005278847185551  0.2646282555452544  1.0000
  H   H7        1.0  0.46154557907667754  0.19946736401428208  0.2646188095859827  1.0000
  H   H8        1.0  0.03843919908388222  0.6994711081342118  0.73537321258641  1.0000
  H   H9        1.0  0.3288048792106865  0.7010777660691404  0.8687259706943563  1.0000
  H   H10       1.0  0.17120406325508247  0.201074763131416  0.1312734025166264  1.0000
  H   H11       1.0  0.6711984651651977  0.2989250499766598  0.131272365180557  1.0000
  H   H12       1.0  0.8287910081782857  0.7989306017687597  0.8687305829108852  1.0000
  H   H13       1.0  0.8067935942738345  0.3762964157786257  0.9524706743307263  1.0000
  H   H14       1.0  0.6932054184898176  0.8762902145458044  0.04753772604721009  1.0000
  H   H15       1.0  0.1932126220760608  0.6237102234889207  0.04752941444942849  1.0000
  H   H16       1.0  0.3067881905841361  0.12370877831293832  0.952464543826707  1.0000
  H   H17       1.0  0.9405763637663044  0.8021439301669986  0.2858820816497669  1.0000
  H   H18       1.0  0.5594159613308777  0.3021513054363254  0.7141226258449506  1.0000
  H   H19       1.0  0.059421421350535304  0.19785633708423941  0.7141186220951353  1.0000
  H   H20       1.0  0.44058597345443934  0.6978464129808798  0.2858756726706062  1.0000
  H   H21       1.0  0.775560834393403  0.6776166078357022  0.2015511313585847  1.0000
  H   H22       1.0  0.7244336300437838  0.1776210631801973  0.798451683829974  1.0000
  H   H23       1.0  0.22443976993660195  0.3223836594083664  0.7984496470947491  1.0000
  H   H24       1.0  0.27556833113196433  0.822375380831353  0.201547453780762  1.0000
  H   H25       1.0  0.004195929297360101  0.5929763914616117  0.2421487383000738  1.0000
  H   H26       1.0  0.49580108512697063  0.09298045909322639  0.7578525977248276  1.0000
  H   H27       1.0  0.9958046222557897  0.40702515018571717  0.7578503619616015  1.0000
  H   H28       1.0  0.5042008760407698  0.9070185337344155  0.2421465398884877  1.0000
  H   H29       1.0  0.7382970777182083  0.6767660065210919  0.4079537836082351  1.0000
  H   H30       1.0  0.7617002640223521  0.1767792506063088  0.5920507827729153  1.0000
  H   H31       1.0  0.2617021170092216  0.3232329863185157  0.5920469574895932  1.0000
  H   H32       1.0  0.23830026116038283  0.8232171934064353  0.4079474783871433  1.0000
  C   C1        1.0  0.6604494088428084  0.6515615477612543  0.6054427701259826  1.0000
  C   C2        1.0  0.8395721865049455  0.1515795966595519  0.3945665758673726  1.0000
  C   C3        1.0  0.33955252593850827  0.3484374450640003  0.3945555283908604  1.0000
  C   C4        1.0  0.16042849698434483  0.8484206705916932  0.6054367198753852  1.0000
  C   C5        1.0  0.5572026495343749  0.6656800273518256  0.713287176718822  1.0000
  C   C6        1.0  0.9428004003345622  0.16568033448315586  0.28671751667963  1.0000
  C   C7        1.0  0.442797902018775  0.33432151429550316  0.2867119235428532  1.0000
  C   C8        1.0  0.05719602795656441  0.8343173839603606  0.7132848279014253  1.0000
  C   C9        1.0  0.5759756086819863  0.5413441733694525  0.8980265048896711  1.0000
  C   C10       1.0  0.9240338345279326  0.04134222069180991  0.10197724774905478  1.0000
  C   C11       1.0  0.4240291716949189  0.45865609385906236  0.1019727074333616  1.0000
  C   C12       1.0  0.0759667698140944  0.9586542233281178  0.8980235307004207  1.0000
  C   C13       1.0  0.4032869930708642  0.6112867679061792  0.9249715980989208  1.0000
  C   C14       1.0  0.09671402959992292  0.11128127699575431  0.0750265305681737  1.0000
  C   C15       1.0  0.5967120960988411  0.3887160481480053  0.0750257866168766  1.0000
  C   C16       1.0  0.9032753506622838  0.8887151670576614  0.9249756272405277  1.0000
  C   C17       1.0  0.6723101738874464  0.430575143566557  0.9735491289945628  1.0000
  C   C18       1.0  0.8277009995237065  0.9305795826206874  0.02645384351458089  1.0000
  C   C19       1.0  0.3276945800950203  0.569427672475662  0.026449244234569798  1.0000
  C   C20       1.0  0.1722982743469927  0.06942450785827958  0.9735494148778158  1.0000
  C   C21       1.0  0.8885144841186731  0.6728400268389548  0.2686063021333709  1.0000
  C   C22       1.0  0.6114814727041065  0.17284723027569268  0.7313982189595265  1.0000
  C   C23       1.0  0.11148471060474918  0.327160240408702  0.7313944389657435  1.0000
  C   C24       1.0  0.3885204884716417  0.8271492137358578  0.2686009186512095  1.0000
  O   O1        1.0  0.7867867901618341  0.5392769360768098  0.6018813241275254  1.0000
  O   O2        1.0  0.713220005126509  0.0392803759344673  0.3981273842125717  1.0000
  O   O3        1.0  0.21321522376674557  0.46072587997976194  0.39811949168259275  1.0000
  O   O4        1.0  0.2867763967581638  0.9607237145468942  0.6018741212784491  1.0000
  O   O5        1.0  0.6100513745857514  0.7513272022471116  0.5245610523971607  1.0000
  O   O6        1.0  0.889956854676008  0.25133016837035876  0.4754464806620362  1.0000
  O   O7        1.0  0.389947793759255  0.24867051618205244  0.4754388496029094  1.0000
  O   O8        1.0  0.11004664803846251  0.7486662756495691  0.5245568897852877  1.0000
  O   O9        1.0  0.6624364789571332  0.5757896352091051  0.8003925201176755  1.0000
  O   O10       1.0  0.8375713909695579  0.07578870905248888  0.1996129429183284  1.0000
  O   O11       1.0  0.33756686542675846  0.4242106320206034  0.19960581575467268  1.0000
  O   O12       1.0  0.16242649969299797  0.92421155820832  0.8003911172124701  1.0000
  O   O13       1.0  0.8212561167347374  0.5969622411630978  0.3684736861726208  1.0000
  O   O14       1.0  0.6787374185066922  0.09697105455901318  0.6315280897001117  1.0000
  O   O15       1.0  0.17874587081543322  0.403038026074988  0.6315262905384529  1.0000
  O   O16       1.0  0.3212616970694597  0.9030253894573261  0.3684701341057277  1.0000
