data_image0
_chemical_formula_structural       V2Cd2P4H28C24O18
_chemical_formula_sum              "V2 Cd2 P4 H28 C24 O18"
_cell_length_a       6.976623668819761
_cell_length_b       8.866129748085887
_cell_length_c       14.746268031042543
_cell_angle_alpha    72.54783235070579
_cell_angle_beta     86.47747536475265
_cell_angle_gamma    78.0339080713555

_space_group_name_H-M_alt    "P 1"
_space_group_IT_number       1

loop_
  _space_group_symop_operation_xyz
  'x, y, z'

loop_
  _atom_site_type_symbol
  _atom_site_label
  _atom_site_symmetry_multiplicity
  _atom_site_fract_x
  _atom_site_fract_y
  _atom_site_fract_z
  _atom_site_occupancy
  V   V1        1.0  0.29582655112422146  0.7571709826848402  0.9920238027790874  1.0000
  V   V2        1.0  0.795750021981391  0.749155700156841  0.008159249714203965  1.0000
  Cd  Cd1       1.0  0.0714383521116062  0.2760776422664361  0.9540890056825903  1.0000
  Cd  Cd2       1.0  0.571796853357405  0.22994480004013695  0.04569386370613418  1.0000
  P   P1        1.0  0.5074053416240717  0.06022244133041682  0.8802440426487907  1.0000
  P   P2        1.0  0.007849201387685505  0.9407804235095153  0.11977928279159757  1.0000
  P   P3        1.0  0.640062332021941  0.5659987616467318  0.8799291017756233  1.0000
  P   P4        1.0  0.1407656449141682  0.44596479411833906  0.119882296635808  1.0000
  H   H1        1.0  0.28905224540256574  0.3438971306305872  0.7428691283782173  1.0000
  H   H2        1.0  0.7891615184921933  0.08732058194646437  0.25728763869852145  1.0000
  H   H3        1.0  0.3054204555440876  0.44195797788675134  0.5671648866577358  1.0000
  H   H4        1.0  0.8059796894023777  0.009534224392289911  0.43297860425485624  1.0000
  H   H5        1.0  0.5669068415077305  0.30447123617306443  0.47960991210450044  1.0000
  H   H6        1.0  0.06769876853689276  0.784525549418781  0.5204886396009272  1.0000
  H   H7        1.0  0.8120141044087249  0.06762638614225817  0.5690876527350214  1.0000
  H   H8        1.0  0.31321142492323173  0.637897159527398  0.43087327775175055  1.0000
  H   H9        1.0  0.7877952266880612  0.961629854167306  0.744923250294697  1.0000
  H   H10       1.0  0.2890110023747853  0.7081725185854565  0.255003284292016  1.0000
  H   H11       1.0  0.13126194248564355  0.0538643239766472  0.8539416906676678  1.0000
  H   H12       1.0  0.6318376044214772  0.9080014830368056  0.1467919788462524  1.0000
  H   H13       1.0  0.904416894258169  0.08367011128824935  0.8751493605792717  1.0000
  H   H14       1.0  0.4050185489005573  0.958860764505729  0.12549555175925778  1.0000
  H   H15       1.0  0.24395104738119505  0.5439744172041897  0.8738444991864756  1.0000
  H   H16       1.0  0.7451715469050129  0.416766823677001  0.1264619723679274  1.0000
  H   H17       1.0  0.014549475439650824  0.5993597706827598  0.859794343089135  1.0000
  H   H18       1.0  0.5160611406239896  0.45830821200540556  0.1407515726549562  1.0000
  H   H19       1.0  0.364103967062256  0.8022475739555401  0.743382874718087  1.0000
  H   H20       1.0  0.8651692206708786  0.5462976198302768  0.2558935183779525  1.0000
  H   H21       1.0  0.34976824192433037  0.8797828732611418  0.5670455825259851  1.0000
  H   H22       1.0  0.8501468330061427  0.4480906015453313  0.4322361516661816  1.0000
  H   H23       1.0  0.6030573005103363  0.7391649905146522  0.47759208103258294  1.0000
  H   H24       1.0  0.10258241274790683  0.21749920590794855  0.5220448172290588  1.0000
  H   H25       1.0  0.8633591577456553  0.5134759730563654  0.5656716697921668  1.0000
  H   H26       1.0  0.3626467926683077  0.07897390103157409  0.43437879825773257  1.0000
  H   H27       1.0  0.8698612224610544  0.4279259608589001  0.7417181214018953  1.0000
  H   H28       1.0  0.3698415679826538  0.1690495322084188  0.2583132063639937  1.0000
  C   C1        1.0  0.5368377773803061  0.14573676445122147  0.754762172767862  1.0000
  C   C2        1.0  0.03740548525959047  0.9014691344871223  0.2452464804468946  1.0000
  C   C3        1.0  0.4014392138548005  0.28167434457448337  0.7047025664610302  1.0000
  C   C4        1.0  0.9018590080218016  0.9870687711430856  0.2953773896971796  1.0000
  C   C5        1.0  0.41214592234760516  0.33743651673104574  0.605904204886798  1.0000
  C   C6        1.0  0.9128473336954883  0.9440113316972115  0.3941920336556209  1.0000
  C   C7        1.0  0.5592811092519696  0.26059302875751195  0.5569500354107506  1.0000
  C   C8        1.0  0.06016702381680969  0.8183104161889002  0.44312921899691565  1.0000
  C   C9        1.0  0.6963252395161632  0.1271842823251672  0.607045506689424  1.0000
  C   C10       1.0  0.19741383078545732  0.7353787397056449  0.3929603798966995  1.0000
  C   C11       1.0  0.684387278540662  0.06829383370740037  0.7057465922375884  1.0000
  C   C12       1.0  0.18546396891645145  0.7753970180853995  0.29424635024819423  1.0000
  C   C13       1.0  0.6179315634913252  0.6106501175509106  0.7535850042643872  1.0000
  C   C14       1.0  0.11855010322900475  0.36431007142247296  0.24615265591187102  1.0000
  C   C15       1.0  0.47099736678762844  0.7373972980627598  0.7042478750895995  1.0000
  C   C16       1.0  0.9717067736727858  0.44221313643922827  0.29525369997293893  1.0000
  C   C17       1.0  0.4646504446010906  0.7817081185190274  0.6052356424623184  1.0000
  C   C18       1.0  0.9649873940809429  0.38782957275955693  0.3942390345396944  1.0000
  C   C19       1.0  0.6063796319725796  0.7023296365433537  0.5551315201090717  1.0000
  C   C20       1.0  0.10622962803518722  0.2580384991191592  0.4445217769436385  1.0000
  C   C21       1.0  0.7527743988058974  0.5760599116683025  0.6044288527025259  1.0000
  C   C22       1.0  0.25248944817960245  0.18055682780469337  0.395452290315859  1.0000
  C   C23       1.0  0.7579725096413057  0.5286016258544065  0.7034626908645338  1.0000
  C   C24       1.0  0.2581695316897381  0.2319030061888725  0.2964359118427069  1.0000
  O   O1        1.0  0.4072639165275619  0.19238152727142924  0.9248951814649615  1.0000
  O   O2        1.0  0.907669614661721  0.11746351862467459  0.07488505012585733  1.0000
  O   O3        1.0  0.37661326543550183  0.9347285380503859  0.8882070957862497  1.0000
  O   O4        1.0  0.8769588534669099  0.8231739802511766  0.11194889884390588  1.0000
  O   O5        1.0  0.7129523899759673  0.9794900441417408  0.9253017969343347  1.0000
  O   O6        1.0  0.21344470540653765  0.9046423708827757  0.07499828847387133  1.0000
  O   O7        1.0  0.07239027350256318  0.7783333022815736  0.9512766925024464  1.0000
  O   O8        1.0  0.5726332167128163  0.7293769355601966  0.04902016909644397  1.0000
  O   O9        1.0  0.01387740359394474  0.14014202487931013  0.8495220068818626  1.0000
  O   O10       1.0  0.5144637962835787  0.9899972487711536  0.1510173484352464  1.0000
  O   O11       1.0  0.1281755660023974  0.517085181113387  0.850951145644821  1.0000
  O   O12       1.0  0.6294397652382812  0.36708551020285535  0.1493781949856015  1.0000
  O   O13       1.0  0.7351680127662307  0.3878389245100489  0.9238150498421478  1.0000
  O   O14       1.0  0.23574050546776704  0.31177896597125  0.07586206404667453  1.0000
  O   O15       1.0  0.43225060604046917  0.6018006318710429  0.9223009072057097  1.0000
  O   O16       1.0  0.9327964058906916  0.5241034205766012  0.0775110809260227  1.0000
  O   O17       1.0  0.7715569790360348  0.6796232125529255  0.893206691956067  1.0000
  O   O18       1.0  0.27223801011658827  0.5727419248438537  0.10688985196191682  1.0000
