data_image0
_chemical_formula_structural       Zn4H16C20Br4N28
_chemical_formula_sum              "Zn4 H16 C20 Br4 N28"
_cell_length_a       6.05220943445371
_cell_length_b       7.658595012996421
_cell_length_c       21.16358091653696
_cell_angle_alpha    90.00002297583035
_cell_angle_beta     89.99975713121361
_cell_angle_gamma    99.48876031579708

_space_group_name_H-M_alt    "P 1"
_space_group_IT_number       1

loop_
  _space_group_symop_operation_xyz
  'x, y, z'

loop_
  _atom_site_type_symbol
  _atom_site_label
  _atom_site_symmetry_multiplicity
  _atom_site_fract_x
  _atom_site_fract_y
  _atom_site_fract_z
  _atom_site_occupancy
  Zn  Zn1       1.0  0.7411122050690863  0.9375904802724192  0.4814711846154721  1.0000
  Zn  Zn2       1.0  0.2588875662901202  0.5624088016093796  0.9814703670951912  1.0000
  Zn  Zn3       1.0  0.2588945646722109  0.0624141008852988  0.5185314699383027  1.0000
  Zn  Zn4       1.0  0.7411046154095261  0.43758914110954084  0.018527562363423993  1.0000
  H   H1        1.0  0.9717299854413567  0.8560316535732325  0.3627007396314567  1.0000
  H   H2        1.0  0.028280862640798408  0.6439780216928739  0.8627020883340176  1.0000
  H   H3        1.0  0.0282610898219389  0.1439689344164492  0.6372971898169268  1.0000
  H   H4        1.0  0.9717371899243332  0.3560331927956851  0.13729158852559203  1.0000
  H   H5        1.0  0.4975329464550882  0.47295733631950304  0.2610352380933136  1.0000
  H   H6        1.0  0.5024672078528453  0.027042587299426695  0.7610357608262744  1.0000
  H   H7        1.0  0.5024595360273878  0.5270260489058032  0.7389574938059906  1.0000
  H   H8        1.0  0.4975362427260989  0.9729699295394098  0.23896122357884755  1.0000
  H   H9        1.0  0.2330164277540874  0.4761122932148892  0.3522179409312826  1.0000
  H   H10       1.0  0.7669792951937565  0.023885232252162304  0.8522158639589958  1.0000
  H   H11       1.0  0.7669936612595976  0.5238843521633427  0.647786131182684  1.0000
  H   H12       1.0  0.23301123367082244  0.9761127081150036  0.14778395553680207  1.0000
  H   H13       1.0  0.35276079992478043  0.6702734484009197  0.444954592284091  1.0000
  H   H14       1.0  0.6472510508722563  0.8297254822393041  0.9449553677573233  1.0000
  H   H15       1.0  0.6472669235214284  0.32972057554115963  0.5550442822533695  1.0000
  H   H16       1.0  0.3527518807447265  0.1702685058032927  0.055044924277545676  1.0000
  C   C1        1.0  0.8095318799595717  0.770350079904503  0.3587728397790072  1.0000
  C   C2        1.0  0.19046596287575562  0.7296514538182632  0.8587721497397351  1.0000
  C   C3        1.0  0.1904878388594966  0.22965319661675918  0.6412312323254097  1.0000
  C   C4        1.0  0.8095127234329809  0.27034514583807817  0.14122294464684867  1.0000
  C   C5        1.0  0.7534927039599849  0.6645832265388307  0.30561056539005443  1.0000
  C   C6        1.0  0.24651918600572734  0.8354145406203342  0.8056149875273843  1.0000
  C   C7        1.0  0.24654957993217852  0.33543331715785735  0.6943977592879944  1.0000
  C   C8        1.0  0.7534782406706524  0.16457679277724677  0.19439428219592256  1.0000
  C   C9        1.0  0.5453285871380515  0.555636513242824  0.3022137842769794  1.0000
  C   C10       1.0  0.454674108418395  0.9443637298852606  0.8022109346509293  1.0000
  C   C11       1.0  0.45468230750470434  0.4443720443801239  0.6977964304261872  1.0000
  C   C12       1.0  0.5453243974898571  0.05564083920759091  0.1977879398135229  1.0000
  C   C13       1.0  0.3982700200644871  0.5575274869044262  0.3528373451164838  1.0000
  C   C14       1.0  0.6017237180191941  0.9424764125788485  0.8528320548558238  1.0000
  C   C15       1.0  0.6017226938203778  0.44248104446656805  0.6471771221516319  1.0000
  C   C16       1.0  0.3982731351151115  0.05752815410758669  0.14716634709665746  1.0000
  C   C17       1.0  0.4631524384078745  0.6655529956347833  0.4045060199060443  1.0000
  C   C18       1.0  0.5368441444233625  0.8344480086573965  0.9045026972199036  1.0000
  C   C19       1.0  0.5368568172832369  0.33444761890198293  0.5955004147427799  1.0000
  C   C20       1.0  0.4631397734187885  0.16554992201852062  0.09549239716905328  1.0000
  Br  Br1       1.0  0.9667106085730808  0.6686069498445874  0.24009025339893234  1.0000
  Br  Br2       1.0  0.0332804127989661  0.8313983381207776  0.7400880059512357  1.0000
  Br  Br3       1.0  0.033289823259572374  0.33139894550966875  0.759910038593098  1.0000
  Br  Br4       1.0  0.9666963200997001  0.1686128164915957  0.2599061433647591  1.0000
  N   N1        1.0  0.9821133545735562  0.1540690687831443  0.473579409029206  1.0000
  N   N2        1.0  0.017885185666671088  0.345930114431269  0.9735746623694581  1.0000
  N   N3        1.0  0.017890942795716545  0.8459315385343796  0.5264256080837199  1.0000
  N   N4        1.0  0.9821081024571114  0.654065183027825  0.026423739609221293  1.0000
  N   N5        1.0  0.9557015461791494  0.2952886692849716  0.4515018283456981  1.0000
  N   N6        1.0  0.04429371064244951  0.2047200736553236  0.9515009245915064  1.0000
  N   N7        1.0  0.044301357952171834  0.7047211999750617  0.548498936146153  1.0000
  N   N8        1.0  0.9556948784876552  0.7952844811192746  0.048500312409267096  1.0000
  N   N9        1.0  0.9297761995301171  0.4299698953751729  0.4304472538181159  1.0000
  N   N10       1.0  0.0702187946796116  0.07002331364844849  0.9304449506966247  1.0000
  N   N11       1.0  0.07022507926402705  0.5700240903047342  0.5695544557441037  1.0000
  N   N12       1.0  0.9297720210843677  0.9299680099595162  0.06955534133138028  1.0000
  N   N13       1.0  0.52113058393779  0.8969786178856579  0.5532315743070483  1.0000
  N   N14       1.0  0.4788646018790814  0.6030153700135867  0.053230628632050477  1.0000
  N   N15       1.0  0.4788684820203173  0.1030206583029809  0.4467687177052182  1.0000
  N   N16       1.0  0.5211267602836216  0.3969786012168938  0.9467677733485402  1.0000
  N   N17       1.0  0.57858658571034  0.889127826590922  0.6077663969334137  1.0000
  N   N18       1.0  0.4214066113416024  0.6108647153851052  0.10776808490395948  1.0000
  N   N19       1.0  0.4214050495905965  0.11086746850547508  0.39223342257261606  1.0000
  N   N20       1.0  0.5785855702480233  0.3891332274321896  0.8922340971431166  1.0000
  N   N21       1.0  0.628699108086579  0.8816977921752666  0.660562372455125  1.0000
  N   N22       1.0  0.37129494952299763  0.6182905804435987  0.16056199085327447  1.0000
  N   N23       1.0  0.37128620295685266  0.1182908765909261  0.3394383920843892  1.0000
  N   N24       1.0  0.6287035701464205  0.38170604802414226  0.8394359386179457  1.0000
  N   N25       1.0  0.6656591020708403  0.7701837039162882  0.40715813253672195  1.0000
  N   N26       1.0  0.3343296396999449  0.7298121181467463  0.9071540349174184  1.0000
  N   N27       1.0  0.3343402784801696  0.2297930741098994  0.5928341268836872  1.0000
  N   N28       1.0  0.6656523386889147  0.27019242668520593  0.09283160925043889  1.0000
