data_image0
_chemical_formula_structural       Ni2H16C24N16
_chemical_formula_sum              "Ni2 H16 C24 N16"
_cell_length_a       6.869120180784114
_cell_length_b       9.74174381477277
_cell_length_c       10.422626767369882
_cell_angle_alpha    110.37319862003478
_cell_angle_beta     103.88466500965613
_cell_angle_gamma    104.24620152260472

_space_group_name_H-M_alt    "P 1"
_space_group_IT_number       1

loop_
  _space_group_symop_operation_xyz
  'x, y, z'

loop_
  _atom_site_type_symbol
  _atom_site_label
  _atom_site_symmetry_multiplicity
  _atom_site_fract_x
  _atom_site_fract_y
  _atom_site_fract_z
  _atom_site_occupancy
  Ni  Ni1       1.0  0.595755521513972  0.885181421628495  0.89655483151553  1.0000
  Ni  Ni2       1.0  0.4042395941831387  0.11481461062759023  0.10343931725472542  1.0000
  H   H1        1.0  0.636851696100635  0.9362991781199027  0.6210642313390194  1.0000
  H   H2        1.0  0.3631396319679182  0.06370402664577311  0.3789344872563588  1.0000
  H   H3        1.0  0.4837369462802883  0.7663970083331932  0.35161219739349997  1.0000
  H   H4        1.0  0.516260260789231  0.23360019988855646  0.648386500991087  1.0000
  H   H5        1.0  0.24150886052337484  0.4819918896375555  0.25745154259429626  1.0000
  H   H6        1.0  0.7584978755397811  0.5180064039060708  0.742555746015668  1.0000
  H   H7        1.0  0.05470689294448053  0.2676132360138581  0.31680438952514567  1.0000
  H   H8        1.0  0.9452953902611583  0.7323850820518842  0.6831954774760971  1.0000
  H   H9        1.0  0.9820437131963969  0.180789169805486  0.5034883748862953  1.0000
  H   H10       1.0  0.017957079495701536  0.8192091755779883  0.49651222160569086  1.0000
  H   H11       1.0  0.023989785170947173  0.24962458011237487  0.7697797070937821  1.0000
  H   H12       1.0  0.9760173059264332  0.7503772185077082  0.2302220451359744  1.0000
  H   H13       1.0  0.1857045369081405  0.4543506329631981  0.029755660149383783  1.0000
  H   H14       1.0  0.8143010692806313  0.5456511757452915  0.9702439385468221  1.0000
  H   H15       1.0  0.4126858232471804  0.7270742325054869  0.08758220420060066  1.0000
  H   H16       1.0  0.5873159234696954  0.2729288269809444  0.9124190960243437  1.0000
  C   C1        1.0  0.526127759542156  0.8154016028408148  0.5762702421363171  1.0000
  C   C2        1.0  0.4738636837425362  0.18458741646674784  0.42372682829490316  1.0000
  C   C3        1.0  0.4381988157677768  0.7178740732568515  0.4244613951479578  1.0000
  C   C4        1.0  0.5618092955927807  0.28213837842716316  0.5755468121354284  1.0000
  C   C5        1.0  0.30668908774411824  0.5632595112304345  0.37349985368390287  1.0000
  C   C6        1.0  0.6933089334001178  0.4367305561447451  0.6264918898246632  1.0000
  C   C7        1.0  0.2575065590107001  0.5070355264815588  0.4742599362499573  1.0000
  C   C8        1.0  0.7424939467538891  0.4929652470433298  0.525750986934824  1.0000
  C   C9        1.0  0.12232936327807661  0.34942356267914215  0.4327230924908959  1.0000
  C   C10       1.0  0.8776773877315802  0.6505746849196326  0.5672765080543127  1.0000
  C   C11       1.0  0.08154110809739726  0.30197854875078883  0.5358846059362177  1.0000
  C   C12       1.0  0.9184638804177038  0.6980221083622665  0.4641183627277668  1.0000
  C   C13       1.0  0.16765232769734692  0.40954816139763045  0.6877289236619076  1.0000
  C   C14       1.0  0.8323506524985617  0.5904572070227729  0.3122665976355775  1.0000
  C   C15       1.0  0.1251244236035234  0.3692178116196274  0.7985905782829757  1.0000
  C   C16       1.0  0.8748697287272478  0.630773535249034  0.2014076717947972  1.0000
  C   C17       1.0  0.213320250101404  0.4828555989255178  0.9420312722855041  1.0000
  C   C18       1.0  0.7866898994713478  0.5171520495614458  0.05796900623487737  1.0000
  C   C19       1.0  0.34316696203894986  0.6360626943238047  0.9754512453667131  1.0000
  C   C20       1.0  0.6568320149983791  0.3639320814112282  0.024540240866713147  1.0000
  C   C21       1.0  0.3015725103018737  0.5664932419193603  0.7318462244604685  1.0000
  C   C22       1.0  0.6984238071129596  0.4335051969035105  0.2681584825199365  1.0000
  C   C23       1.0  0.3500888124815802  0.6143766723399153  0.6245229835753391  1.0000
  C   C24       1.0  0.6499102363990872  0.3856240251267735  0.3754713709544787  1.0000
  N   N1        1.0  0.4851537113604962  0.7648891568196987  0.6737907229606105  1.0000
  N   N2        1.0  0.5148507425341434  0.23511623597093487  0.32621271791898465  1.0000
  N   N3        1.0  0.38681019933189725  0.6771925565116702  0.8734187714530959  1.0000
  N   N4        1.0  0.6131963590133366  0.3228139720428799  0.12658249198415913  1.0000
  N   N5        1.0  0.806309294823798  0.07412503911137949  0.8911087396894499  1.0000
  N   N6        1.0  0.1936892007532904  0.9258804514639536  0.1088956971369157  1.0000
  N   N7        1.0  0.983801698601624  0.138013320270268  0.979579955509308  1.0000
  N   N8        1.0  0.01617792231103721  0.8619817474210619  0.020410443014718272  1.0000
  N   N9        1.0  0.16073691624234238  0.20800355052553238  0.06826209210991857  1.0000
  N   N10       1.0  0.8392672013011975  0.7919982797575785  0.9317372750689399  1.0000
  N   N11       1.0  0.3404568853547902  0.9823973148066046  0.8817102716981536  1.0000
  N   N12       1.0  0.6595409319151527  0.0176010679830014  0.11828890075103259  1.0000
  N   N13       1.0  0.2958589132316191  0.024820609211594992  0.78635225718002  1.0000
  N   N14       1.0  0.7041392385211154  0.9751813418286444  0.21365194997799347  1.0000
  N   N15       1.0  0.25243013748661974  0.0632353034569633  0.6918124693549642  1.0000
  N   N16       1.0  0.7475659228937062  0.9367654716176119  0.3081871881887181  1.0000
