data_image0
_chemical_formula_structural       Nd2H28C24N18O14
_chemical_formula_sum              "Nd2 H28 C24 N18 O14"
_cell_length_a       8.711049462028333
_cell_length_b       9.869580372578627
_cell_length_c       11.128540565558495
_cell_angle_alpha    81.47491422903333
_cell_angle_beta     86.37446752819112
_cell_angle_gamma    77.03420577495899

_space_group_name_H-M_alt    "P 1"
_space_group_IT_number       1

loop_
  _space_group_symop_operation_xyz
  'x, y, z'

loop_
  _atom_site_type_symbol
  _atom_site_label
  _atom_site_symmetry_multiplicity
  _atom_site_fract_x
  _atom_site_fract_y
  _atom_site_fract_z
  _atom_site_occupancy
  Nd  Nd1       1.0  0.38474329324657935  0.031300763823772094  0.1593679129278485  1.0000
  Nd  Nd2       1.0  0.615257686113246  0.9686995075984225  0.8406328642648974  1.0000
  H   H1        1.0  0.2101712936950832  0.7265828979724984  0.4971443443471061  1.0000
  H   H2        1.0  0.7898265063915275  0.27341630927329413  0.5028558177038179  1.0000
  H   H3        1.0  0.3748852785656923  0.6017180299400876  0.4479302528996244  1.0000
  H   H4        1.0  0.6251139315713489  0.3982801312236006  0.5520699855247173  1.0000
  H   H5        1.0  0.6737481972772414  0.5879962898326453  0.7801109437767054  1.0000
  H   H6        1.0  0.3262511193961828  0.41200607390219085  0.21988873041437532  1.0000
  H   H7        1.0  0.3667932774209817  0.936018743998382  0.5973510933082196  1.0000
  H   H8        1.0  0.6332056881469441  0.06398045989573829  0.4026472199809775  1.0000
  H   H9        1.0  0.5260238937817051  0.39689337363731875  0.8494422694868862  1.0000
  H   H10       1.0  0.4739756835945315  0.6031079403668684  0.15055753282553044  1.0000
  H   H11       1.0  0.3761937350065879  0.34330519963951633  0.779049040453103  1.0000
  H   H12       1.0  0.623806739081303  0.6566971642437524  0.22094968348316263  1.0000
  H   H13       1.0  0.19445124657487878  0.8064964217870808  0.967347364806983  1.0000
  H   H14       1.0  0.8055485834373146  0.19350384598656234  0.032653464133673496  1.0000
  H   H15       1.0  0.11672697948598194  0.5163718445024089  0.747986303384572  1.0000
  H   H16       1.0  0.8832717092454417  0.4836284161225777  0.2520136787970912  1.0000
  H   H17       1.0  0.9630393112959795  0.08217549143479627  0.8411719320610731  1.0000
  H   H18       1.0  0.03695963813825646  0.917823719459541  0.158828178241933  1.0000
  H   H19       1.0  0.0026587179252501865  0.24274079863558032  0.8696043117514736  1.0000
  H   H20       1.0  0.9973402153752885  0.7572584192589815  0.1303975955653414  1.0000
  H   H21       1.0  0.17597633848667016  0.38496962462564704  0.471646908519233  1.0000
  H   H22       1.0  0.824027452907167  0.6150285581324508  0.528354919927267  1.0000
  H   H23       1.0  0.030658935174898296  0.0151773806469464  0.6224538103560208  1.0000
  H   H24       1.0  0.969339745489684  0.9848228834781521  0.37754707033255397  1.0000
  H   H25       1.0  0.13280187084001233  0.14278568203769734  0.3525610330650579  1.0000
  H   H26       1.0  0.8671982279418418  0.8572135325051914  0.6474390254900373  1.0000
  H   H27       1.0  0.05096854083163292  0.19044521489749394  0.2211235547241586  1.0000
  H   H28       1.0  0.9490312891805601  0.8095550528761493  0.7788772742165053  1.0000
  C   C1        1.0  0.35973084879723427  0.8142771301737284  0.3607214687250675  1.0000
  C   C2        1.0  0.6402701305625912  0.18572314124846656  0.6392793084676711  1.0000
  C   C3        1.0  0.3366503231580325  0.7085181188129184  0.47206199108941865  1.0000
  C   C4        1.0  0.6633488869790157  0.2914800423507771  0.527938247334923  1.0000
  C   C5        1.0  0.5892654531938321  0.6523468842137345  0.715867922451274  1.0000
  C   C6        1.0  0.4107329829016281  0.34765442264179564  0.2841310331021489  1.0000
  C   C7        1.0  0.43219103880478116  0.8305751591693777  0.6267567959728595  1.0000
  C   C8        1.0  0.5678076660603325  0.16942509445539136  0.3732413891950018  1.0000
  C   C9        1.0  0.3969301591371349  0.27076223805828886  0.9694614968468828  1.0000
  C   C10       1.0  0.6030697031424525  0.7292380157149196  0.03053573806615621  1.0000
  C   C11       1.0  0.4049483427134177  0.38191695614555227  0.8606319027252171  1.0000
  C   C12       1.0  0.5950515034324795  0.6180833046278735  0.13936712920163072  1.0000
  C   C13       1.0  0.20579771685899573  0.7135848461544256  0.9233877270931501  1.0000
  C   C14       1.0  0.7942009880061178  0.2864154074703435  0.07661045807471112  1.0000
  C   C15       1.0  0.16324453449703216  0.5709170900497257  0.8105939081060001  1.0000
  C   C16       1.0  0.8367564448627862  0.4290831813724694  0.18940686908673854  1.0000
  C   C17       1.0  0.20322407643789833  0.06756337410377707  0.8887902407477811  1.0000
  C   C18       1.0  0.7967746042266766  0.9324368900213217  0.1112106399407864  1.0000
  C   C19       1.0  0.050388564735691026  0.14804951787988324  0.8272054163732038  1.0000
  C   C20       1.0  0.9496103685648479  0.8519497000146781  0.17279649094360394  1.0000
  C   C21       1.0  0.1383662172212325  0.30317716260017846  0.5352095547191099  1.0000
  C   C22       1.0  0.8616364167581381  0.6968210200094872  0.4647932239822056  1.0000
  C   C23       1.0  0.06762816638633497  0.11458446660709143  0.6074101820654434  1.0000
  C   C24       1.0  0.9323702535754281  0.8854168472486561  0.3925905705017883  1.0000
  N   N1        1.0  0.42630194514787695  0.7171043097284694  0.5751169715647961  1.0000
  N   N2        1.0  0.5736969962195106  0.28289490466598  0.4248840372451141  1.0000
  N   N3        1.0  0.5273266203437359  0.6014909989776952  0.6308065240458662  1.0000
  N   N4        1.0  0.4726741144469671  0.3985103151749314  0.369192328011728  1.0000
  N   N5        1.0  0.5341629466384176  0.793042198985141  0.7166884299438935  1.0000
  N   N6        1.0  0.4658377881522854  0.20695911516748572  0.2833104221137006  1.0000
  N   N7        1.0  0.2975143602679752  0.5147766406423526  0.870342588787331  1.0000
  N   N8        1.0  0.7024843365302973  0.4852236164825285  0.1296564948874348  1.0000
  N   N9        1.0  0.07273044724233561  0.18916391561165816  0.6981691182346879  1.0000
  N   N10       1.0  0.9272696515395182  0.8108352989312306  0.30183094032040003  1.0000
  N   N11       1.0  0.10206739091487549  0.6978124841428864  0.8420543765547424  1.0000
  N   N12       1.0  0.8979312897496998  0.3021877799822192  0.1579465041338324  1.0000
  N   N13       1.0  0.326505715095557  0.6044940963263556  0.9433751508226607  1.0000
  N   N14       1.0  0.6734943917531525  0.3955051147164212  0.056624009225529896  1.0000
  N   N15       1.0  0.10803823776261373  0.18425788051009556  0.5018845078409343  1.0000
  N   N16       1.0  0.8919618529523916  0.8157413375329057  0.49811644922106524  1.0000
  N   N17       1.0  0.11894145171390143  0.31033447862949254  0.6538918707067937  1.0000
  N   N18       1.0  0.8810583782982988  0.6896657891441578  0.346108958233863  1.0000
  O   O1        1.0  0.13815140352903651  0.11876773923731321  0.267630157849915  1.0000
  O   O2        1.0  0.8618475459051994  0.8812314716570242  0.7323699524530909  1.0000
  O   O3        1.0  0.4405187067065626  0.9047353519980276  0.3693867587176102  1.0000
  O   O4        1.0  0.5594825494897648  0.09526386269330088  0.6306123495826625  1.0000
  O   O5        1.0  0.29388931717939226  0.80714911371075  0.26392191386977265  1.0000
  O   O6        1.0  0.7061116621804261  0.1928511577114449  0.7360788633229732  1.0000
  O   O7        1.0  0.4985635867553315  0.15337814002575806  0.9682177333980988  1.0000
  O   O8        1.0  0.5014371561022203  0.8466231706267491  0.03178022015259784  1.0000
  O   O9        1.0  0.29547398296617905  0.29040162355526883  0.05370742206463321  1.0000
  O   O10       1.0  0.704522170567735  0.7095996690029408  0.9462898399708166  1.0000
  O   O11       1.0  0.19210910227332792  0.04137530800511509  0.004030543751262896  1.0000
  O   O12       1.0  0.8078901159305617  0.9586228496584612  0.9959687961661815  1.0000
  O   O13       1.0  0.3242505240522818  0.03427965559473729  0.8217833608105495  1.0000
  O   O14       1.0  0.67574931402676  0.9657206086787937  0.1782165696232028  1.0000
