data_image0
_chemical_formula_structural       Mn4H28C28N32
_chemical_formula_sum              "Mn4 H28 C28 N32"
_cell_length_a       7.63619441439485
_cell_length_b       8.404656543439756
_cell_length_c       17.25251370445033
_cell_angle_alpha    95.99429902816003
_cell_angle_beta     90.00685074849088
_cell_angle_gamma    117.01043155963531

_space_group_name_H-M_alt    "P 1"
_space_group_IT_number       1

loop_
  _space_group_symop_operation_xyz
  'x, y, z'

loop_
  _atom_site_type_symbol
  _atom_site_label
  _atom_site_symmetry_multiplicity
  _atom_site_fract_x
  _atom_site_fract_y
  _atom_site_fract_z
  _atom_site_occupancy
  Mn  Mn1       1.0  0.7557113169488688  0.7751257613586092  0.7289384418163107  1.0000
  Mn  Mn2       1.0  0.9805859126546961  0.22524147672250186  0.7710945491772063  1.0000
  Mn  Mn3       1.0  0.2445279797736576  0.22500213300082095  0.2693086743110483  1.0000
  Mn  Mn4       1.0  0.019613197277181  0.7748574635550372  0.2306324587710407  1.0000
  H   H1        1.0  0.5343032782400812  0.39525581710797303  0.6270477363049025  1.0000
  H   H2        1.0  0.13822883357654805  0.6051095011148677  0.8730916557122796  1.0000
  H   H3        1.0  0.4642838748264495  0.6057478010927113  0.3719395526946627  1.0000
  H   H4        1.0  0.8591318003253436  0.3941028922103841  0.1279646764110041  1.0000
  H   H5        1.0  0.2619152916032448  0.23743051772349588  0.5229331248425807  1.0000
  H   H6        1.0  0.023345864602824035  0.7623201655960231  0.9773126470259114  1.0000
  H   H7        1.0  0.7364826190617181  0.7640956921053004  0.475941468909781  1.0000
  H   H8        1.0  0.9731391796869532  0.23611782032434556  0.023911997110403104  1.0000
  H   H9        1.0  0.11147713410125697  0.41572530783894013  0.4690137285533353  1.0000
  H   H10       1.0  0.6947554127786476  0.5833654207953602  0.031189380978098303  1.0000
  H   H11       1.0  0.8882064710879264  0.5870079002923062  0.5298804110178637  1.0000
  H   H12       1.0  0.3018182195856485  0.41352355093996357  0.9699742947868301  1.0000
  H   H13       1.0  0.2097859466052797  0.7304731137100478  0.5312395741754726  1.0000
  H   H14       1.0  0.4788369185258291  0.26871402016787743  0.9688177729730609  1.0000
  H   H15       1.0  0.7908412484172587  0.27225365284253666  0.4676797822802143  1.0000
  H   H16       1.0  0.518954241885183  0.7282528497026208  0.03225058215988951  1.0000
  H   H17       1.0  0.47073113064329425  0.15064747777022086  0.6732654745035019  1.0000
  H   H18       1.0  0.32042746411681855  0.8488809277107028  0.8267316014436688  1.0000
  H   H19       1.0  0.5297423747419003  0.8510721544310583  0.3267905466369641  1.0000
  H   H20       1.0  0.678616923076362  0.14919687283578045  0.17322890008163938  1.0000
  H   H21       1.0  0.23016101534852856  0.971551064903558  0.6525462272431923  1.0000
  H   H22       1.0  0.2582619469248968  0.0276084711396152  0.8474947749268578  1.0000
  H   H23       1.0  0.7703943957092532  0.030324832953546408  0.3464577759268721  1.0000
  H   H24       1.0  0.7402940501918212  0.9701103151825523  0.1535287997846595  1.0000
  H   H25       1.0  0.39761503065332704  0.029424208439643003  0.5770283841748665  1.0000
  H   H26       1.0  0.36840321134440057  0.9700684087318481  0.922972110461643  1.0000
  H   H27       1.0  0.6048119652414174  0.9734709283769408  0.42271354622280904  1.0000
  H   H28       1.0  0.6313073150486163  0.026824454292608404  0.0773142656359624  1.0000
  C   C1        1.0  0.45203263221038276  0.46115838660296055  0.6062310570108521  1.0000
  C   C2        1.0  0.9901176213448011  0.5389433494466118  0.8938823787291099  1.0000
  C   C3        1.0  0.5467361967047921  0.5399467000866098  0.39270839496673204  1.0000
  C   C4        1.0  0.0073345168993058305  0.46009058527187824  0.10719489019174232  1.0000
  C   C5        1.0  0.3037573004857635  0.37557047137021743  0.5473298440560797  1.0000
  C   C6        1.0  0.9272480209683212  0.6241766306880339  0.9528722991772296  1.0000
  C   C7        1.0  0.6951121309314346  0.6260685402804713  0.4515409406967734  1.0000
  C   C8        1.0  0.06971816678802872  0.37417075948824424  0.04831435892899091  1.0000
  C   C9        1.0  0.21856476661726285  0.4745560167550736  0.5184625987626248  1.0000
  C   C10       1.0  0.7432209815532148  0.5248523978549713  0.9817087015373075  1.0000
  C   C11       1.0  0.7812135326796295  0.5278086644428939  0.4804102502305411  1.0000
  C   C12       1.0  0.2539602235885284  0.4725996405013363  0.019456125841323103  1.0000
  C   C13       1.0  0.2729456537394271  0.649344705369586  0.5527821399978591  1.0000
  C   C14       1.0  0.6230299656048146  0.3501006870169405  0.9472930330936293  1.0000
  C   C15       1.0  0.7272517851666792  0.353096088153201  0.4461552609457868  1.0000
  C   C16       1.0  0.3745832625406963  0.6472987335638366  0.0537608698908301  1.0000
  C   C17       1.0  0.410921018838721  0.7196251329648649  0.6162090894517859  1.0000
  C   C18       1.0  0.690919301946309  0.2801851348049383  0.8838107744561512  1.0000
  C   C19       1.0  0.5886899543800723  0.2819516081397993  0.3829270755113967  1.0000
  C   C20       1.0  0.3070489382931427  0.7182152294240254  0.11702952957135442  1.0000
  C   C21       1.0  0.45791394349915043  0.8919464624378932  0.6632533135802348  1.0000
  C   C22       1.0  0.5658014208707699  0.10784616964873812  0.8367399202641366  1.0000
  C   C23       1.0  0.5418666133008402  0.10932235175643971  0.3363618197458891  1.0000
  C   C24       1.0  0.43266563292545634  0.8907976828874172  0.16362991026491613  1.0000
  C   C25       1.0  0.3862907107913855  0.018343657598265395  0.6397817127292098  1.0000
  C   C26       1.0  0.3679780235314284  0.9811511789592517  0.860221484713854  1.0000
  C   C27       1.0  0.6146493437300223  0.9837749419998829  0.35987163232046976  1.0000
  C   C28       1.0  0.630937481058112  0.016511540360937705  0.14014440044586246  1.0000
  N   N1        1.0  0.5059955614877866  0.6287721880622005  0.6395812127098635  1.0000
  N   N2        1.0  0.8767641240611398  0.37133535384703725  0.8604504044503685  1.0000
  N   N3        1.0  0.4927398587726871  0.3721219727009597  0.3594610708770816  1.0000
  N   N4        1.0  0.121014948232201  0.6278915510057602  0.1404901331695143  1.0000
  N   N5        1.0  0.5627374641099794  0.9199971411721891  0.7274619385895064  1.0000
  N   N6        1.0  0.6426250012580469  0.0800240660970175  0.7725047106798968  1.0000
  N   N7        1.0  0.4358408995535683  0.08010851465894582  0.2723913897466659  1.0000
  N   N8        1.0  0.3558003750816214  0.9199090940593566  0.227607487087063  1.0000
  N   N9        1.0  0.942239003775036  0.025918551955648194  0.6698192817183255  1.0000
  N   N10       1.0  0.9165887873229863  0.974458433249815  0.8301900939086122  1.0000
  N   N11       1.0  0.058714435658437515  0.9767635610935487  0.3307481476061227  1.0000
  N   N12       1.0  0.08192228867734032  0.023131659517226004  0.16918804837683146  1.0000
  N   N13       1.0  0.8834970383876667  0.041127391387881594  0.6072770482268621  1.0000
  N   N14       1.0  0.8426418744816006  0.9592134265253237  0.8927364351895903  1.0000
  N   N15       1.0  0.11831887660711257  0.962656483142908  0.393277585810182  1.0000
  N   N16       1.0  0.15560806929767068  0.037236125176647816  0.10667177118523338  1.0000
  N   N17       1.0  0.8244307264348619  0.05446087110785671  0.5471417989962787  1.0000
  N   N18       1.0  0.7702899028165079  0.9458811130569489  0.9528608202670553  1.0000
  N   N19       1.0  0.1777707657866898  0.9499239940732949  0.453434362591608  1.0000
  N   N20       1.0  0.22776978030491798  0.04994164485700742  0.0465072271480977  1.0000
  N   N21       1.0  0.9289525734038268  0.6554051735953409  0.6860222053375296  1.0000
  N   N22       1.0  0.27359022423753027  0.3453307306615231  0.8140090619962735  1.0000
  N   N23       1.0  0.06933915907281117  0.3413419182428257  0.30694730046608504  1.0000
  N   N24       1.0  0.7280982962824538  0.6581965597656705  0.19293234416099375  1.0000
  N   N25       1.0  0.9632886157102266  0.5328010698639433  0.6913973632614727  1.0000
  N   N26       1.0  0.43068641953154  0.46759006388133173  0.8085966645143969  1.0000
  N   N27       1.0  0.044504279005103335  0.4706695797832269  0.30643306525519165  1.0000
  N   N28       1.0  0.5737421286593617  0.529178580854108  0.193536923814186  1.0000
  N   N29       1.0  0.004005083252337712  0.41355029768300267  0.6931860309989375  1.0000
  N   N30       1.0  0.5908259491007755  0.5865398830420219  0.8067711237694439  1.0000
  N   N31       1.0  0.01372397632896148  0.5967219436101772  0.3090132596187729  1.0000
  N   N32       1.0  0.4167199755531287  0.4034389470151894  0.19102845103670058  1.0000
