data_image0
_chemical_formula_structural       Yb2H36C36N8O16
_chemical_formula_sum              "Yb2 H36 C36 N8 O16"
_cell_length_a       9.798449002931
_cell_length_b       10.245796713833046
_cell_length_c       10.990415979731566
_cell_angle_alpha    77.11287210903846
_cell_angle_beta     76.37378121483934
_cell_angle_gamma    65.35516611457243

_space_group_name_H-M_alt    "P 1"
_space_group_IT_number       1

loop_
  _space_group_symop_operation_xyz
  'x, y, z'

loop_
  _atom_site_type_symbol
  _atom_site_label
  _atom_site_symmetry_multiplicity
  _atom_site_fract_x
  _atom_site_fract_y
  _atom_site_fract_z
  _atom_site_occupancy
  Yb  Yb1       1.0  0.055445125259105076  0.7715988303211533  0.6754857909736317  1.0000
  Yb  Yb2       1.0  0.9445538227097856  0.22840211669034005  0.32451400917574363  1.0000
  H   H1        1.0  0.07757630978130696  0.4617394741162143  0.86619365146737  1.0000
  H   H2        1.0  0.9224241270998803  0.5382603993374673  0.1338061488103435  1.0000
  H   H3        1.0  0.9680774489402211  0.38232777377828603  0.5612292502822172  1.0000
  H   H4        1.0  0.031922987940966284  0.6176720996753884  0.4387705499954961  1.0000
  H   H5        1.0  0.4484058421141269  0.6343679766945841  0.5673781794190448  1.0000
  H   H6        1.0  0.5515940434132603  0.3656308231483647  0.4326216177808676  1.0000
  H   H7        1.0  0.2806562753540761  0.8505773106218296  0.24858153321986268  1.0000
  H   H8        1.0  0.7193436927478558  0.1494236364161238  0.7514182685325894  1.0000
  H   H9        1.0  0.5670381900215772  0.5875039256797335  0.7730746098933212  1.0000
  H   H10       1.0  0.4329624309424318  0.4124961026915344  0.226924244665895  1.0000
  H   H11       1.0  0.2403707536789812  0.49988573032880607  0.08294668351847181  1.0000
  H   H12       1.0  0.7596296832022064  0.5001141431248755  0.9170531167592418  1.0000
  H   H13       1.0  0.6084951243419353  0.1280249279455745  0.3074559852721707  1.0000
  H   H14       1.0  0.3915036395441336  0.8719758641483321  0.6925447605957091  1.0000
  H   H15       1.0  0.6639604709378446  0.8486549008879718  0.6620537820855505  1.0000
  H   H16       1.0  0.3360377415944313  0.15134481759520918  0.3379469607045281  1.0000
  H   H17       1.0  0.707307557345935  0.08239250874137835  0.9950928102327269  1.0000
  H   H18       1.0  0.29269222667317524  0.9176082833789819  0.004907937238222401  1.0000
  H   H19       1.0  0.5525824570387812  0.7978138726024607  0.8841882988705052  1.0000
  H   H20       1.0  0.4474176116767551  0.20218569101604084  0.11581339284420984  1.0000
  H   H21       1.0  0.6749040966922237  0.5654497352016817  0.3735847202058126  1.0000
  H   H22       1.0  0.3250960554925371  0.4345513667538583  0.6264141358281422  1.0000
  H   H23       1.0  0.6396715000489978  0.7356039638202104  0.41666138414442616  1.0000
  H   H24       1.0  0.360327447919893  0.26439698319128263  0.5833384160049563  1.0000
  H   H25       1.0  0.5319014111748006  0.8599982131267863  0.23185208211180003  1.0000
  H   H26       1.0  0.4680981896561678  0.1400018152180209  0.7681467708443463  1.0000
  H   H27       1.0  0.5824526152951677  0.6901251042613408  0.18170734872491326  1.0000
  H   H28       1.0  0.4175468014529713  0.3098747691658801  0.8182924499497306  1.0000
  H   H29       1.0  0.9847868780501089  0.24926784214101613  0.9501469967014202  1.0000
  H   H30       1.0  0.015213374748256786  0.7507318763950719  0.04985374929479752  1.0000
  H   H31       1.0  0.1630070844387674  0.18121796813301208  0.8477897410798224  1.0000
  H   H32       1.0  0.836993168359591  0.818781750403083  0.15221100491639564  1.0000
  H   H33       1.0  0.006488078779973647  0.14778000816343706  0.7259286930498308  1.0000
  H   H34       1.0  0.9935121740183845  0.8522197103726512  0.27407205294638715  1.0000
  H   H35       1.0  0.8411852349403613  0.2938915681900553  0.7830953964804694  1.0000
  H   H36       1.0  0.15881622207386673  0.7061083052900797  0.21690440540031375  1.0000
  C   C1        1.0  0.39145261936060666  0.5506402690583839  0.919428981270201  1.0000
  C   C2        1.0  0.6085459613373205  0.449359759259977  0.0805698700828756  1.0000
  C   C3        1.0  0.5386126356758965  0.5484641044790164  0.872570303569937  1.0000
  C   C4        1.0  0.4613866804586523  0.4515371523676563  0.12742760514244372  1.0000
  C   C5        1.0  0.35349138038514394  0.5012554351200791  0.04749521482652601  1.0000
  C   C6        1.0  0.6465097093581134  0.4987435196669238  0.952503638257959  1.0000
  C   C7        1.0  0.27515286096444663  0.6087970374516587  0.8337082992065848  1.0000
  C   C8        1.0  0.7248475759167334  0.39120283600202294  0.16629150107112883  1.0000
  C   C9        1.0  0.6504528969043977  0.986879359260051  0.48269496913527393  1.0000
  C   C10       1.0  0.3495463357609196  0.013120359249583687  0.5173057752578742  1.0000
  C   C11       1.0  0.5595242201627145  0.07173498814429986  0.39057391925487656  1.0000
  C   C12       1.0  0.4404741764523906  0.9282648852564674  0.6094258778166975  1.0000
  C   C13       1.0  0.5906127565870561  0.914885697834094  0.5921801913155635  1.0000
  C   C14       1.0  0.4093849871659714  0.08511509423335177  0.4078205529492467  1.0000
  C   C15       1.0  0.8094003732241147  0.9782227052337403  0.467534898427843  1.0000
  C   C16       1.0  0.1905984921702313  0.021776094582762057  0.5324648971689927  1.0000
  C   C17       1.0  0.6454458611119732  0.932747704082743  0.9320638263409297  1.0000
  C   C18       1.0  0.35455447426092956  0.0672541616483429  0.0679369242078209  1.0000
  C   C19       1.0  0.6160714813606133  0.046577509033845346  0.9980212627425828  1.0000
  C   C20       1.0  0.38392756722188187  0.9534220545582028  0.0019804273690625  1.0000
  C   C21       1.0  0.5283420091915191  0.8866657571876501  0.9350781099642732  1.0000
  C   C22       1.0  0.4716577748275911  0.11333503493271017  0.064922637506676  1.0000
  C   C23       1.0  0.7968329870811459  0.8667748513913055  0.8519570500892542  1.0000
  C   C24       1.0  0.203166612855135  0.13322578581146868  0.1480446431001923  1.0000
  C   C25       1.0  0.3280696236553169  0.7254985601257216  0.4192539303982486  1.0000
  C   C26       1.0  0.6719287729597883  0.2745013132750458  0.5807458666733325  1.0000
  C   C27       1.0  0.5886973811672721  0.6746588925991474  0.38424751539754004  1.0000
  C   C28       1.0  0.41130221966369623  0.3253411357456598  0.6157513375586063  1.0000
  C   C29       1.0  0.5231967110584819  0.7536546143634836  0.2603082027903768  1.0000
  C   C30       1.0  0.47680223691041584  0.24634633264800945  0.7396915973590056  1.0000
  C   C31       1.0  0.03136555200364192  0.45568652486247163  0.6932165441121685  1.0000
  C   C32       1.0  0.9686357209277576  0.544313193700077  0.306784203487112  1.0000
  C   C33       1.0  0.04524773814390671  0.2629052400358488  0.8538502667721775  1.0000
  C   C34       1.0  0.9547525146544518  0.7370944785002462  0.1461504792240333  1.0000
  C   C35       1.0  0.9651556158059973  0.25616681716285666  0.7521171412442272  1.0000
  C   C36       1.0  0.034845657125409046  0.743832901399692  0.24788360635505316  1.0000
  N   N1        1.0  0.044682829571819155  0.4094002897915841  0.8170201018812124  1.0000
  N   N2        1.0  0.9553174232265467  0.5905994287445038  0.18298064411500553  1.0000
  N   N3        1.0  0.001683212213841065  0.35966941841591177  0.6475115302163845  1.0000
  N   N4        1.0  0.998317224667339  0.6403304550377696  0.35248827006132905  1.0000
  N   N5        1.0  0.45517155413577365  0.6673278765968645  0.47228650176828085  1.0000
  N   N6        1.0  0.5448295356074839  0.3326710781901312  0.5277123513161969  1.0000
  N   N7        1.0  0.36395983920760944  0.7685476157553167  0.2928088555083833  1.0000
  N   N8        1.0  0.6360383733246663  0.23145210272786435  0.7071918872816954  1.0000
  O   O1        1.0  0.13663737112293717  0.6250207848202932  0.8763964486909191  1.0000
  O   O2        1.0  0.8633636171120427  0.374980162244114  0.12360335466460275  1.0000
  O   O3        1.0  0.31357684050654916  0.6471483113895502  0.7160706714092984  1.0000
  O   O4        1.0  0.6864225762415899  0.3528515620376708  0.2839291272653455  1.0000
  O   O5        1.0  0.8852991675389177  0.9008953740393577  0.5545588495645718  1.0000
  O   O6        1.0  0.11469922907618016  0.09910449936140953  0.44544094750700225  1.0000
  O   O7        1.0  0.858162580875998  0.05006566131248039  0.3699664442462024  1.0000
  O   O8        1.0  0.1418368358721481  0.9499342121147476  0.6300333544284485  1.0000
  O   O9        1.0  0.8315410922770993  0.7479436437832874  0.8116756841750857  1.0000
  O   O10       1.0  0.16845665147592834  0.25205714828416587  0.18832506008972424  1.0000
  O   O11       1.0  0.8867337156899283  0.9353191528189483  0.8199243357376037  1.0000
  O   O12       1.0  0.11326606832917462  0.06468163930141198  0.18007641173334585  1.0000
  O   O13       1.0  0.04792323583313164  0.5692059318051221  0.628928380380259  1.0000
  O   O14       1.0  0.9520779545237308  0.4307916395624287  0.3710723626664888  1.0000
  O   O15       1.0  0.19630450194181037  0.737014654603101  0.4750931485291263  1.0000
  O   O16       1.0  0.8036956682820033  0.2629829167379967  0.5249075929145449  1.0000
