data_image0
_chemical_formula_structural       Zn2H36C56N8O8
_chemical_formula_sum              "Zn2 H36 C56 N8 O8"
_cell_length_a       7.720278289983791
_cell_length_b       10.23118342286075
_cell_length_c       15.223940652436383
_cell_angle_alpha    73.39421578326959
_cell_angle_beta     80.72168415879494
_cell_angle_gamma    81.85556221351821

_space_group_name_H-M_alt    "P 1"
_space_group_IT_number       1

loop_
  _space_group_symop_operation_xyz
  'x, y, z'

loop_
  _atom_site_type_symbol
  _atom_site_label
  _atom_site_symmetry_multiplicity
  _atom_site_fract_x
  _atom_site_fract_y
  _atom_site_fract_z
  _atom_site_occupancy
  Zn  Zn1       1.0  0.21536678605281173  0.4786897988201417  0.9857764120431228  1.0000
  Zn  Zn2       1.0  0.7846326551770135  0.5213107857205942  0.014225347166139046  1.0000
  H   H1        1.0  0.2131223109221665  0.5308282195057288  0.5399869423083601  1.0000
  H   H2        1.0  0.7868821575181499  0.4691733577393293  0.4600108899523149  1.0000
  H   H3        1.0  0.03193316585647209  0.9453218038927388  0.2934766890747298  1.0000
  H   H4        1.0  0.9680651106259645  0.0546777626435215  0.7065260298408234  1.0000
  H   H5        1.0  0.10348190343112412  0.17563561484237064  0.2954190060402482  1.0000
  H   H6        1.0  0.8965161113542308  0.8243649504495353  0.7045789425144521  1.0000
  H   H7        1.0  0.2584676170296447  0.20119180180174823  0.41821990834841927  1.0000
  H   H8        1.0  0.7415319875699922  0.7988067135055913  0.5817789559046602  1.0000
  H   H9        1.0  0.3525101165438116  0.998025751935373  0.5432434656077588  1.0000
  H   H10       1.0  0.6474892299427638  0.001974813731124  0.4567550210546898  1.0000
  H   H11       1.0  0.5372644337910444  0.5242055850217185  0.5624035715857332  1.0000
  H   H12       1.0  0.4627374438028582  0.47578576195284944  0.43759846136102  1.0000
  H   H13       1.0  0.714937650501696  0.4396926120869723  0.6933457315639727  1.0000
  H   H14       1.0  0.28506021662391134  0.5602997815924837  0.3066584253203927  1.0000
  H   H15       1.0  0.43045542079729426  0.7482382850926543  0.8180521816954068  1.0000
  H   H16       1.0  0.5695473287721954  0.2517663673165488  0.18194454607157695  1.0000
  H   H17       1.0  0.25254160469670234  0.8338539532255639  0.686802377960106  1.0000
  H   H18       1.0  0.7474677808462289  0.1661496456782459  0.3131919930660345  1.0000
  H   H19       1.0  0.5608628738649344  0.2780002100536478  0.9827204406540203  1.0000
  H   H20       1.0  0.43914198532900883  0.7219993432561864  0.017282350762819487  1.0000
  H   H21       1.0  0.07164264525577829  0.47912357196411653  0.7872329656438808  1.0000
  H   H22       1.0  0.9283591980248359  0.5208688190642762  0.21277215105436642  1.0000
  H   H23       1.0  0.04277253501496861  0.3812980004717589  0.6575135925857792  1.0000
  H   H24       1.0  0.9572214160401559  0.618704651804002  0.3424889091486705  1.0000
  H   H25       1.0  0.25782365899992504  0.19956736656940421  0.6191883651278403  1.0000
  H   H26       1.0  0.7421754483222288  0.8004352532311003  0.3808103984533416  1.0000
  H   H27       1.0  0.5097410841754026  0.0990276039778166  0.7114969693715877  1.0000
  H   H28       1.0  0.4902519033994537  0.9009719686097668  0.2885049061316991  1.0000
  H   H29       1.0  0.5075692028474493  0.9451643445533763  0.8728590638634942  1.0000
  H   H30       1.0  0.4924249115774941  0.05483623848898841  0.1271405429147805  1.0000
  H   H31       1.0  0.739060652346467  0.7524036164225477  0.8929472309007307  1.0000
  H   H32       1.0  0.26093636106131163  0.24759386163147917  0.10704878240408529  1.0000
  H   H33       1.0  0.114699796852662  0.017988402924253005  0.9055254482377109  1.0000
  H   H34       1.0  0.8852955355815979  0.9820121578436131  0.09447076959213514  1.0000
  H   H35       1.0  0.8796740913338327  0.2173514268883281  0.8795655683501664  1.0000
  H   H36       1.0  0.12032288776066484  0.7826470952195165  0.12043352870614399  1.0000
  C   C1        1.0  0.2074317666284031  0.6401641273763873  0.5064372315292899  1.0000
  C   C2        1.0  0.7925770272392254  0.35983436412916353  0.49356081791248835  1.0000
  C   C3        1.0  0.15164186766143936  0.8424840664801889  0.4178478425967711  1.0000
  C   C4        1.0  0.8483586661051846  0.1575185725691526  0.5821547316389583  1.0000
  C   C5        1.0  0.10012133132560307  0.9570678219830457  0.3477089913354873  1.0000
  C   C6        1.0  0.8998778138938519  0.0429348053671532  0.6522910812644156  1.0000
  C   C7        1.0  0.14059062332345462  0.0847022383582399  0.3494749315500769  1.0000
  C   C8        1.0  0.8594056951237408  0.9153024574761807  0.6505269597905181  1.0000
  C   C9        1.0  0.2300185478998102  0.0994033927069822  0.4192253243065025  1.0000
  C   C10       1.0  0.769976659061939  0.9005992448439816  0.5807750974982467  1.0000
  C   C11       1.0  0.2831231834433937  0.9866846928703267  0.48941076809895623  1.0000
  C   C12       1.0  0.716881155940385  0.013317909554309896  0.5105868753663997  1.0000
  C   C13       1.0  0.24326362166306134  0.8589053128813192  0.4872314105278689  1.0000
  C   C14       1.0  0.7567370754733818  0.1410952569346264  0.5127682687516923  1.0000
  C   C15       1.0  0.38355265908202085  0.6836394999741344  0.6168427410660653  1.0000
  C   C16       1.0  0.6164573717435787  0.3163589730317682  0.3831525739366483  1.0000
  C   C17       1.0  0.5144177093524789  0.5733512684919332  0.6184866187183856  1.0000
  C   C18       1.0  0.48558753342704364  0.4266441576756463  0.38151234631417447  1.0000
  C   C19       1.0  0.6140641670970054  0.5261667185918313  0.6917435853587008  1.0000
  C   C20       1.0  0.3859371942707526  0.4738287291010579  0.30825769240679785  1.0000
  C   C21       1.0  0.5837975002946718  0.5887274508134583  0.7643672158964634  1.0000
  C   C22       1.0  0.41621135041891233  0.41127105201664454  0.23563279707339996  1.0000
  C   C23       1.0  0.45586735613731116  0.7012075209608355  0.7609980319839381  1.0000
  C   C24       1.0  0.5441379055908585  0.2987879089815877  0.2390015875579862  1.0000
  C   C25       1.0  0.3554845463668742  0.748903318573639  0.6878815855910503  1.0000
  C   C26       1.0  0.6445241563415253  0.25109620566119173  0.31211758407413004  1.0000
  C   C27       1.0  0.682763843753122  0.52970706339012  0.8460503844057213  1.0000
  C   C28       1.0  0.31722603998775867  0.4702966242659913  0.15395227773825576  1.0000
  C   C29       1.0  0.48998974344511487  0.2821106620366933  0.9256780797933147  1.0000
  C   C30       1.0  0.5100122664439012  0.7178899043789926  0.07432148308462416  1.0000
  C   C31       1.0  0.3007399446919195  0.337561902194679  0.8249602149725632  1.0000
  C   C32       1.0  0.6992596255944363  0.6624376571664854  0.17504173303201032  1.0000
  C   C33       1.0  0.1661283998578611  0.39749745215700477  0.7709061458642096  1.0000
  C   C34       1.0  0.8338704496966685  0.6024980249854792  0.2290992917606829  1.0000
  C   C35       1.0  0.15232340739006386  0.3438658815301849  0.6982331308110474  1.0000
  C   C36       1.0  0.8476760906857097  0.6561347143351031  0.30177059192629224  1.0000
  C   C37       1.0  0.27407605646756383  0.23746751642774203  0.6771352079021186  1.0000
  C   C38       1.0  0.7259116990456606  0.7625320735357094  0.32286778771698715  1.0000
  C   C39       1.0  0.41314260202641856  0.1794295690587973  0.7286356822997673  1.0000
  C   C40       1.0  0.5868529542076218  0.8205699854037292  0.27136399687220336  1.0000
  C   C41       1.0  0.42209480030076213  0.23072718806770365  0.8033182015408826  1.0000
  C   C42       1.0  0.5778983352792794  0.769271363115152  0.1966845172670801  1.0000
  C   C43       1.0  0.6804464034881124  0.0909647108989304  0.8777897316481783  1.0000
  C   C44       1.0  0.31955512807206776  0.9090399637847714  0.12221038506723392  1.0000
  C   C45       1.0  0.6409382707267782  0.9613196506118484  0.8794172159920848  1.0000
  C   C46       1.0  0.35906043047712194  0.0386860409525482  0.12058032669379057  1.0000
  C   C47       1.0  0.7719607507539762  0.8523601265349897  0.8922128886481532  1.0000
  C   C48       1.0  0.2280411111298477  0.1476414612854242  0.107785830925117  1.0000
  C   C49       1.0  0.9414780587489275  0.870495582716288  0.9051092453316159  1.0000
  C   C50       1.0  0.058523784186249386  0.1295060013292755  0.0948888197322901  1.0000
  C   C51       1.0  0.9811476233214976  0.0030629659033181  0.8986506072532235  1.0000
  C   C52       1.0  0.018855752582013  0.9969365568331414  0.10134640998096954  1.0000
  C   C53       1.0  0.851369958438042  0.11388450335995508  0.8848552263190257  1.0000
  C   C54       1.0  0.1486359328627316  0.8861160415304141  0.11514202382598877  1.0000
  C   C55       1.0  0.07722689887828693  0.7513736464185783  0.9293316991729909  1.0000
  C   C56       1.0  0.9227754070210922  0.24862487718763765  0.07066955031430668  1.0000
  N   N1        1.0  0.1300335847419376  0.7045337543125855  0.4327136852937343  1.0000
  N   N2        1.0  0.8699710317035566  0.2954668015277377  0.5672849902716167  1.0000
  N   N3        1.0  0.2794623532756262  0.726536101231666  0.5430191935257368  1.0000
  N   N4        1.0  0.7205453291065426  0.27346033199044234  0.4569773863801956  1.0000
  N   N5        1.0  0.34596170834925744  0.365761971526247  0.9025182738638832  1.0000
  N   N6        1.0  0.6540341438951531  0.6342355401268236  0.09748309191743937  1.0000
  N   N7        1.0  0.5411641895531217  0.1993206259758793  0.8683396683165938  1.0000
  N   N8        1.0  0.45883158689669296  0.8006768705777957  0.13165907942728697  1.0000
  O   O1        1.0  0.6284475954102008  0.5781799278288633  0.9175641795729275  1.0000
  O   O2        1.0  0.3715477785053806  0.42182169209221604  0.0824377400458545  1.0000
  O   O3        1.0  0.807117805618013  0.43790543196320914  0.8448343625900065  1.0000
  O   O4        1.0  0.19288281930784731  0.56209617435686  0.15516709142232085  1.0000
  O   O5        1.0  0.2320397130589456  0.7676196642282916  0.9332043837926208  1.0000
  O   O6        1.0  0.7679595233197389  0.23238193039263416  0.06679456858387312  1.0000
  O   O7        1.0  0.025219452387908313  0.6271013530001852  0.947685520025253  1.0000
  O   O8        1.0  0.9747773254394689  0.3728992307913614  0.052315162968511714  1.0000
