data_image0
_chemical_formula_structural       U3Ag2H12C16O26
_chemical_formula_sum              "U3 Ag2 H12 C16 O26"
_cell_length_a       8.832329987094257
_cell_length_b       9.881937671872418
_cell_length_c       10.34874937414525
_cell_angle_alpha    112.52084011932133
_cell_angle_beta     100.50110183487608
_cell_angle_gamma    110.11736162229917

_space_group_name_H-M_alt    "P 1"
_space_group_IT_number       1

loop_
  _space_group_symop_operation_xyz
  'x, y, z'

loop_
  _atom_site_type_symbol
  _atom_site_label
  _atom_site_symmetry_multiplicity
  _atom_site_fract_x
  _atom_site_fract_y
  _atom_site_fract_z
  _atom_site_occupancy
  U   U1        1.0  0.33212725788006736  0.1891030550960906  0.7258081722817381  1.0000
  U   U2        1.0  0.667878922230983  0.8108909066618181  0.27419700005110303  1.0000
  U   U3        1.0  9.848276185661605e-06  0.5000044358247209  0.5000107853311705  1.0000
  Ag  Ag1       1.0  0.3554920767119966  0.8493114890508621  0.900558506452491  1.0000
  Ag  Ag2       1.0  0.6444968381775454  0.15068030628989248  0.09943752955885542  1.0000
  H   H1        1.0  0.2125964727495741  0.8504558957127059  0.4639281136249451  1.0000
  H   H2        1.0  0.7874053490432331  0.14954810560034557  0.5360744112049219  1.0000
  H   H3        1.0  0.11621344097981963  0.9391641285785891  0.39817591561450866  1.0000
  H   H4        1.0  0.8837848268181077  0.06083495656800861  0.6018252022229335  1.0000
  H   H5        1.0  0.5246036002016935  0.49741823071983043  0.6241177668330664  1.0000
  H   H6        1.0  0.47540087626980204  0.5025795906579091  0.3758779823259247  1.0000
  H   H7        1.0  0.7073458306130789  0.7964280409123103  0.6214313467759354  1.0000
  H   H8        1.0  0.2926497581262666  0.20355877742198908  0.3785570213330303  1.0000
  H   H9        1.0  0.9532936804253325  0.878993754955516  0.9086980150305024  1.0000
  H   H10       1.0  0.04670119107322528  0.12100789994001099  0.09129971073506482  1.0000
  H   H11       1.0  0.8823899726311664  0.6086578526537989  0.8422747880692186  1.0000
  H   H12       1.0  0.11760738064747038  0.3913486373024568  0.15773285515555807  1.0000
  C   C1        1.0  0.6560364256430944  0.5079338323805798  0.6487462554136485  1.0000
  C   C2        1.0  0.343962854099999  0.492060281875851  0.351253135005166  1.0000
  C   C3        1.0  0.8034437756801651  0.7645240231028011  0.6683591277846049  1.0000
  C   C4        1.0  0.1965584376127936  0.23547379855489933  0.33163919026183925  1.0000
  C   C5        1.0  0.8190404539467339  0.7972466069205737  0.8312394388002107  1.0000
  C   C6        1.0  0.180955576849172  0.20275500992031675  0.1687603746657302  1.0000
  C   C7        1.0  0.76430967805571  0.6240094756529186  0.8166937450113565  1.0000
  C   C8        1.0  0.23568460466420765  0.37599092714638976  0.18330535526838085  1.0000
  C   C9        1.0  0.6500958235553966  0.3397560144543376  0.5919087487701589  1.0000
  C   C10       1.0  0.3499250480547642  0.6602564518116194  0.408093952110022  1.0000
  C   C11       1.0  0.9767253412885847  0.856461740678668  0.6620095204168308  1.0000
  C   C12       1.0  0.023276028104348295  0.14352490904794726  0.33798735925449824  1.0000
  C   C13       1.0  0.7015567218044296  0.8721747328550719  0.8831254719515796  1.0000
  C   C14       1.0  0.2984357970062987  0.12782447756817564  0.11687098820246433  1.0000
  C   C15       1.0  0.6771171498203756  0.5914148479610616  0.922563268960623  1.0000
  C   C16       1.0  0.3228927109447993  0.40861003845559907  0.07745410639635249  1.0000
  O   O1        1.0  0.4379740505636818  0.09386314691205648  0.8006272629566101  1.0000
  O   O2        1.0  0.5620221220945467  0.9061459775097233  0.19936863849040512  1.0000
  O   O3        1.0  0.2205863697439767  0.2740716074193514  0.6415081255333563  1.0000
  O   O4        1.0  0.7794126025183914  0.7259337059900445  0.3584915790299519  1.0000
  O   O5        1.0  0.12745887146196813  0.5484138588084803  0.6839414495291862  1.0000
  O   O6        1.0  0.8725462753808557  0.45158767025048246  0.3160557961448803  1.0000
  O   O7        1.0  0.534339641136583  0.22643467230121667  0.5969175918585777  1.0000
  O   O8        1.0  0.465651534504758  0.7735545588469677  0.40308263893349056  1.0000
  O   O9        1.0  0.7699212218478664  0.3222504144655503  0.5447844470091567  1.0000
  O   O10       1.0  0.2300793962111597  0.6777485512407251  0.45522470010797633  1.0000
  O   O11       1.0  0.029648260643711  0.006024164376434297  0.6937706732661797  1.0000
  O   O12       1.0  0.9703536031588057  0.9939823466854207  0.3062299052442158  1.0000
  O   O13       1.0  0.06452459759032068  0.7784914911999933  0.6313128620890609  1.0000
  O   O14       1.0  0.9354754420333861  0.22150877548990877  0.3686918593438051  1.0000
  O   O15       1.0  0.5403702792424668  0.7752238701421986  0.8194075816975117  1.0000
  O   O16       1.0  0.45962632449888474  0.2247790204604314  0.18058893031478362  1.0000
  O   O17       1.0  0.7764191648373924  0.02273074063686659  0.9829320550340912  1.0000
  O   O18       1.0  0.22357803317246522  0.9772708273166228  0.01707080960195362  1.0000
  O   O19       1.0  0.5644972407973228  0.4455785540018056  0.8774002798011155  1.0000
  O   O20       1.0  0.4354921630182459  0.5544094956030746  0.12259634739552173  1.0000
  O   O21       1.0  0.7283852723120603  0.7094616968689067  0.05290550069774015  1.0000
  O   O22       1.0  0.2716045832732803  0.2905252250765216  0.9470801366673175  1.0000
  O   O23       1.0  0.7485343094884412  0.5901228218040087  0.5783362296162906  1.0000
  O   O24       1.0  0.2514724594012491  0.4098723920501185  0.42166756820238765  1.0000
  O   O25       1.0  0.21003209595269096  0.9557121444084941  0.48010150421021064  1.0000
  O   O26       1.0  0.7899684666901549  0.044286897127101085  0.5199008986187437  1.0000
