data_image0
_chemical_formula_structural       Zn6H40C56N12O20
_chemical_formula_sum              "Zn6 H40 C56 N12 O20"
_cell_length_a       10.102107473331175
_cell_length_b       12.18125633706619
_cell_length_c       12.217051883354355
_cell_angle_alpha    90.00011861468103
_cell_angle_beta     105.17020451161946
_cell_angle_gamma    89.99962123100664

_space_group_name_H-M_alt    "P 1"
_space_group_IT_number       1

loop_
  _space_group_symop_operation_xyz
  'x, y, z'

loop_
  _atom_site_type_symbol
  _atom_site_label
  _atom_site_symmetry_multiplicity
  _atom_site_fract_x
  _atom_site_fract_y
  _atom_site_fract_z
  _atom_site_occupancy
  Zn  Zn1       1.0  0.500000544786424  0.5000001160378177  0.5000003656788152  1.0000
  Zn  Zn2       1.0  4.17111976998575e-07  5.209633684000002e-07  0.5000001848999317  1.0000
  Zn  Zn3       1.0  0.48690706797741984  0.8679357207182365  0.30122343879293817  1.0000
  Zn  Zn4       1.0  0.0130930405762442  0.36793810965605195  0.6987752145470123  1.0000
  Zn  Zn5       1.0  0.5130940215954284  0.13206451135739172  0.6987772925646922  1.0000
  Zn  Zn6       1.0  0.9869080316981428  0.6320629433513077  0.3012238760703596  1.0000
  H   H1        1.0  0.8678251203715563  0.9270482725326945  0.9250657443683892  1.0000
  H   H2        1.0  0.6321746423663371  0.4270495268825699  0.07493717229928622  1.0000
  H   H3        1.0  0.1321718495263298  0.07295031768489933  0.07493248615721629  1.0000
  H   H4        1.0  0.36782749875556686  0.5729482423927976  0.9250662351913375  1.0000
  H   H5        1.0  0.4617679798551606  0.5207375472303967  0.23867562014444837  1.0000
  H   H6        1.0  0.0382297776011313  0.020738286266443105  0.7613275743893198  1.0000
  H   H7        1.0  0.538230032928091  0.47926268485302603  0.7613244661446927  1.0000
  H   H8        1.0  0.9617672095920117  0.9792603039528134  0.23867229687669322  1.0000
  H   H9        1.0  0.4229617573664158  0.38632277884216404  0.07713207711309876  1.0000
  H   H10       1.0  0.07703619939345431  0.8863214787957219  0.9228702547192994  1.0000
  H   H11       1.0  0.5770362640612562  0.6136782741754843  0.9228688295463953  1.0000
  H   H12       1.0  0.9229618133962209  0.11367711142093381  0.0771298315695432  1.0000
  H   H13       1.0  0.6831149994238147  0.044686623152522004  0.9545332077389475  1.0000
  H   H14       1.0  0.8168836610328328  0.5446862790720958  0.04546953013447565  1.0000
  H   H15       1.0  0.3168819791184916  0.9553127879992905  0.04546584315701098  1.0000
  H   H16       1.0  0.18311745449253183  0.4553114902058726  0.9545336623333254  1.0000
  H   H17       1.0  0.9474054701581877  0.761841682567891  0.046342690094199696  1.0000
  H   H18       1.0  0.5525934820082554  0.26184438519239  0.9536548142177991  1.0000
  H   H19       1.0  0.052593559573971015  0.23815854951210716  0.9536567908475674  1.0000
  H   H20       1.0  0.4474065733268588  0.7381542050182404  0.046344881746499283  1.0000
  H   H21       1.0  0.5639423041903412  0.0007800861730942  0.10538110402724496  1.0000
  H   H22       1.0  0.9360546399227518  0.5007824974467354  0.894620367461094  1.0000
  H   H23       1.0  0.43605569994848997  0.9992193249761172  0.8946181618915432  1.0000
  H   H24       1.0  0.06394544134560928  0.49921855556654293  0.10538178961426328  1.0000
  H   H25       1.0  0.41219110049898694  0.18597652174697998  0.11850038143446538  1.0000
  H   H26       1.0  0.08780634655462902  0.6859758971357337  0.881498986371696  1.0000
  H   H27       1.0  0.587808963477329  0.8140237103312489  0.8815001349003351  1.0000
  H   H28       1.0  0.9121926745363284  0.3140226930766589  0.11849967419956911  1.0000
  H   H29       1.0  0.7012730941045079  0.6648280456839827  0.3432703796977776  1.0000
  H   H30       1.0  0.798725574152904  0.16483452116402472  0.656725233565794  1.0000
  H   H31       1.0  0.298729021068084  0.33517136545566484  0.6567305666825334  1.0000
  H   H32       1.0  0.20127447251852712  0.8351681737127028  0.3432736420290468  1.0000
  H   H33       1.0  0.7610972515045304  0.4748098281498658  0.4527331477774367  1.0000
  H   H34       1.0  0.7389020943308041  0.97481013809049  0.5472656844109096  1.0000
  H   H35       1.0  0.23890176958320816  0.525189582995914  0.5472655127939773  1.0000
  H   H36       1.0  0.26109796100109156  0.02518927305352041  0.45273401155353804  1.0000
  H   H37       1.0  0.8023505462722725  0.5194809363490053  0.5790309749732855  1.0000
  H   H38       1.0  0.6976482595002126  0.01948008855534771  0.420966831510988  1.0000
  H   H39       1.0  0.19765052601174202  0.48051765385819334  0.42096811564363884  1.0000
  H   H40       1.0  0.3023507615907448  0.9805185016570448  0.579031829060277  1.0000
  C   C1        1.0  0.4661817507643492  0.2915782359265152  0.3832534569856064  1.0000
  C   C2        1.0  0.0338200067299965  0.7915781777416561  0.6167478447145456  1.0000
  C   C3        1.0  0.533820364405031  0.7084219961465196  0.6167474893948537  1.0000
  C   C4        1.0  0.9661810655508063  0.20842123339892993  0.3832512459025281  1.0000
  C   C5        1.0  0.8202867817249808  0.9058150317077892  0.9925713520626046  1.0000
  C   C6        1.0  0.679713129836756  0.4058167046254086  0.007429916141774151  1.0000
  C   C7        1.0  0.17971121376623242  0.09418437944059123  0.007427093485979716  1.0000
  C   C8        1.0  0.3202879683901402  0.5941818855842842  0.9925716355857686  1.0000
  C   C9        1.0  0.4570032667787345  0.4325561939647714  0.2522256146295944  1.0000
  C   C10       1.0  0.042995353862629294  0.9325555373736166  0.7477769490417925  1.0000
  C   C11       1.0  0.5429957802454625  0.5674448590502765  0.7477755070527293  1.0000
  C   C12       1.0  0.9570016333273091  0.06744387377902683  0.25222292222436243  1.0000
  C   C13       1.0  0.4361457257090181  0.3573389583090076  0.1633668815742624  1.0000
  C   C14       1.0  0.0638534747488464  0.8573400139334099  0.8366348343691712  1.0000
  C   C15       1.0  0.5638533126707728  0.6426612737718217  0.8366334197377083  1.0000
  C   C16       1.0  0.936145554980101  0.14266103907997527  0.16336464657274524  1.0000
  C   C17       1.0  0.7126778064934811  0.9725167816966974  0.008236938521406494  1.0000
  C   C18       1.0  0.7873226174674172  0.4725174506549408  0.9917653893366276  1.0000
  C   C19       1.0  0.2873201976453572  0.027482629452514108  0.9917623273973817  1.0000
  C   C20       1.0  0.21267950635279928  0.5274819604855381  0.008236377413886883  1.0000
  C   C21       1.0  0.8640287158823909  0.8128867421876863  0.058989271644215066  1.0000
  C   C22       1.0  0.6359698369225415  0.3128906013498068  0.9410082512341303  1.0000
  C   C23       1.0  0.1359703052085592  0.18711184802470632  0.9410093889270427  1.0000
  C   C24       1.0  0.3640302270537745  0.6871096307284292  0.05899226510067021  1.0000
  C   C25       1.0  0.6451131804168924  0.9483996730189048  0.09110660280973093  1.0000
  C   C26       1.0  0.8548843467855037  0.4484014392286113  0.9088942508379104  1.0000
  C   C27       1.0  0.3548848237219461  0.051599738130306605  0.90889266310905  1.0000
  C   C28       1.0  0.1451147002419049  0.5515987928530495  0.0911068708442642  1.0000
  C   C29       1.0  0.6869623171571817  0.8545718661614503  0.15699445456158398  1.0000
  C   C30       1.0  0.813036926463198  0.35457700916825985  0.8430024781313675  1.0000
  C   C31       1.0  0.31303670393376853  0.14542672405094953  0.8430042060096739  1.0000
  C   C32       1.0  0.1869631202082331  0.6454256857084604  0.15699639746347316  1.0000
  C   C33       1.0  0.4423809473075551  0.21144854712407832  0.29835747273501306  1.0000
  C   C34       1.0  0.05762041148763331  0.7114501766980795  0.7016435847977929  1.0000
  C   C35       1.0  0.5576201509129248  0.788551684952381  0.7016440789928281  1.0000
  C   C36       1.0  0.9423806607899581  0.2885500553758932  0.2983555058194298  1.0000
  C   C37       1.0  0.7954749322230937  0.7870013455576841  0.1417023015321063  1.0000
  C   C38       1.0  0.7045238144537863  0.28700465497789207  0.8582943915608823  1.0000
  C   C39       1.0  0.20452408886465182  0.21299806558809567  0.8582963590393076  1.0000
  C   C40       1.0  0.2954762408716931  0.7129963980328927  0.14170530440386384  1.0000
  C   C41       1.0  0.4227158389675126  0.09071641049452953  0.3169731365742123  1.0000
  C   C42       1.0  0.07728131046467722  0.5907178930305079  0.6830243408210208  1.0000
  C   C43       1.0  0.5772862675542427  0.909283821577674  0.6830269894360512  1.0000
  C   C44       1.0  0.9227187275687572  0.4092823390452268  0.31697371440316874  1.0000
  C   C45       1.0  0.4297612503945416  0.24633895525118285  0.18663241607961817  1.0000
  C   C46       1.0  0.0702367586508643  0.7463382853831108  0.8133680090746367  1.0000
  C   C47       1.0  0.5702388135817741  0.753661276827046  0.8133681002551825  1.0000
  C   C48       1.0  0.9297622710877109  0.25366030483012036  0.186631471866832  1.0000
  C   C49       1.0  0.7147096977239826  0.7185867612770809  0.27594370150779207  1.0000
  C   C50       1.0  0.7852875330057288  0.21859098822725542  0.724052536655904  1.0000
  C   C51       1.0  0.28529139184886537  0.28141347079855455  0.7240570298498383  1.0000
  C   C52       1.0  0.2147114880723819  0.7814108857186782  0.27594612391595763  1.0000
  C   C53       1.0  0.4887432651233894  0.26555964039452823  0.5073267761504994  1.0000
  C   C54       1.0  0.011259730162315401  0.7655627315875508  0.4926755514797563  1.0000
  C   C55       1.0  0.5112588586936226  0.734440591679338  0.4926749906001645  1.0000
  C   C56       1.0  0.9887413507532727  0.2344399632874073  0.5073243595081179  1.0000
  N   N1        1.0  0.47214626300218054  0.399315028882235  0.3589781759041202  1.0000
  N   N2        1.0  0.0278556771905656  0.8993166959838845  0.6410233800052793  1.0000
  N   N3        1.0  0.5278548265706676  0.6006852031933932  0.6410225554535103  1.0000
  N   N4        1.0  0.972144369487282  0.1006843570260685  0.358975495589263  1.0000
  N   N5        1.0  0.6383195765277848  0.808874832685568  0.24291440672651277  1.0000
  N   N6        1.0  0.8616779820649896  0.3088795288814552  0.7570828996699459  1.0000
  N   N7        1.0  0.3616804788041179  0.19112457845844943  0.7570852892379349  1.0000
  N   N8        1.0  0.13832104765753436  0.6911231659986967  0.24291658127226864  1.0000
  N   N9        1.0  0.8106847121122202  0.7009454002146428  0.21894836556565883  1.0000
  N   N10       1.0  0.689313673583115  0.20095027425929865  0.7810472608342492  1.0000
  N   N11       1.0  0.1893153432164709  0.29905483186275467  0.7810513303989379  1.0000
  N   N12       1.0  0.3106863644438961  0.7990515996832104  0.2189507943902314  1.0000
  O   O1        1.0  0.5243506652194796  0.029183059918551607  0.3083828427888449  1.0000
  O   O2        1.0  0.9756480559862339  0.5291856511432941  0.6916141468547039  1.0000
  O   O3        1.0  0.47565041570895533  0.9708163512228583  0.6916170681984326  1.0000
  O   O4        1.0  0.024350965098300002  0.4708145809358727  0.3083845137168524  1.0000
  O   O5        1.0  0.3099275035930233  0.05727354720095691  0.3270590529295773  1.0000
  O   O6        1.0  0.1900719586788782  0.5572743878304252  0.672938842347335  1.0000
  O   O7        1.0  0.6900725430912475  0.9427258639422222  0.6729398226646665  1.0000
  O   O8        1.0  0.809928088002181  0.44272584424614103  0.3270600332470579  1.0000
  O   O9        1.0  0.5047065723329567  0.3439399264695667  0.5775808898208225  1.0000
  O   O10       1.0  0.995297925713885  0.843938564842077  0.4224212159690666  1.0000
  O   O11       1.0  0.4952955428396352  0.6560594846700809  0.42242005655949544  1.0000
  O   O12       1.0  0.0047031638653863  0.15606002536678432  0.5775795153882655  1.0000
  O   O13       1.0  0.4907035114232414  0.1639978884828039  0.533457537459995  1.0000
  O   O14       1.0  0.009296167418732201  0.663998473221092  0.4665430727681679  1.0000
  O   O15       1.0  0.5092965525530745  0.8360023435954318  0.4665429788748056  1.0000
  O   O16       1.0  0.9907048962080226  0.33600257978542913  0.5334551974790004  1.0000
  O   O17       1.0  0.7239500105583333  0.49823122609939213  0.5162945522198967  1.0000
  O   O18       1.0  0.7760501776348151  0.9982311990950095  0.48370450351006866  1.0000
  O   O19       1.0  0.27605004477677403  0.5017673641112382  0.4837051437444017  1.0000
  O   O20       1.0  0.22395091193803301  0.0017690329806186007  0.5162962278475617  1.0000
