data_image0
_chemical_formula_structural       Al2C48O12F24
_chemical_formula_sum              "Al2 C48 O12 F24"
_cell_length_a       3.9709425032919827
_cell_length_b       29.08863773054599
_cell_length_c       29.089069646020043
_cell_angle_alpha    119.9987250494557
_cell_angle_beta     90.00078501274116
_cell_angle_gamma    89.9986520813256

_space_group_name_H-M_alt    "P 1"
_space_group_IT_number       1

loop_
  _space_group_symop_operation_xyz
  'x, y, z'

loop_
  _atom_site_type_symbol
  _atom_site_label
  _atom_site_symmetry_multiplicity
  _atom_site_fract_x
  _atom_site_fract_y
  _atom_site_fract_z
  _atom_site_occupancy
  Al  Al1       1.0  2.968728488640001e-05  0.4999983663243341  0.4999997685039475  1.0000
  Al  Al2       1.0  0.9995894677636982  0.1666639801147624  0.8333449288315576  1.0000
  C   C1        1.0  0.5000087619628458  0.4593601975676265  0.4187144865361389  1.0000
  C   C2        1.0  0.4999994715130924  0.4593546459304392  0.5406429927716232  1.0000
  C   C3        1.0  0.49999929693827017  0.58128565821783  0.5406399311737076  1.0000
  C   C4        1.0  0.49957183554609225  0.2073157668640491  0.792707389013998  1.0000
  C   C5        1.0  0.4995795649026888  0.0853765469982619  0.7926939070322022  1.0000
  C   C6        1.0  0.49963305735275293  0.20730576041587062  0.9146286619074574  1.0000
  C   C7        1.0  0.4996233249776835  0.23701103789479563  0.7630088746009422  1.0000
  C   C8        1.0  0.49239292698396747  0.2099302832560639  0.7074304395247708  1.0000
  C   C9        1.0  0.496353088158223  0.2374133062833792  0.679697280708865  1.0000
  C   C10       1.0  0.4998148425061401  0.293373206849985  0.7066263783299219  1.0000
  C   C11       1.0  0.5031645797773904  0.3203161635278704  0.7625921840490478  1.0000
  C   C12       1.0  0.5070564673002379  0.29259128866254974  0.7900783467287837  1.0000
  C   C13       1.0  0.49985649832773044  0.321250868163709  0.6787467947210857  1.0000
  C   C14       1.0  0.4999036817602799  0.34540006617439195  0.6545900634857844  1.0000
  C   C15       1.0  0.49995792877699324  0.3732800560621  0.6267088388805034  1.0000
  C   C16       1.0  0.5032539685482645  0.346342656956132  0.5707450297018893  1.0000
  C   C17       1.0  0.5072116022954063  0.37407453011216063  0.543258733762336  1.0000
  C   C18       1.0  0.50003360438739  0.4296522477026982  0.5703355710789779  1.0000
  C   C19       1.0  0.4928039591639219  0.4567343996834837  0.6259153781653097  1.0000
  C   C20       1.0  0.49668324704913397  0.42924432961189035  0.6536438854744233  1.0000
  C   C21       1.0  0.49964861460651366  0.02598513073939996  0.762992679348386  1.0000
  C   C22       1.0  0.4923936392113148  0.9974762075649365  0.7900651331437628  1.0000
  C   C23       1.0  0.4963355790660485  0.9422676739303313  0.7625806257269261  1.0000
  C   C24       1.0  0.49983325822929453  0.9132364632360251  0.7066149891235298  1.0000
  C   C25       1.0  0.5031939730842011  0.9422747402603165  0.6796848344551236  1.0000
  C   C26       1.0  0.5070713473527563  0.997482729948203  0.7074153218825214  1.0000
  C   C27       1.0  0.4998617962395072  0.8574876440405887  0.6787398474090479  1.0000
  C   C28       1.0  0.49991506956875037  0.8091755753227332  0.6545818960555961  1.0000
  C   C29       1.0  0.49996375430468015  0.7534221664043131  0.6267065312251959  1.0000
  C   C30       1.0  0.503279036317238  0.7243864307733004  0.6536396359076591  1.0000
  C   C31       1.0  0.507218446178875  0.6691802788841272  0.6259141756027091  1.0000
  C   C32       1.0  0.5000259423928667  0.6406741399913614  0.5703358428271414  1.0000
  C   C33       1.0  0.4927897145741937  0.6691808424179726  0.543260736330282  1.0000
  C   C34       1.0  0.49667966848253536  0.7243869719073359  0.5707400746399287  1.0000
  C   C35       1.0  0.49967620653045225  0.23700737080763185  0.9740215637352775  1.0000
  C   C36       1.0  0.4924379614190427  0.2925863543544978  0.002519149744976806  1.0000
  C   C37       1.0  0.49636932212813173  0.3203201687029065  0.057731246862850596  1.0000
  C   C38       1.0  0.4998129606821777  0.29338752176334276  0.0867662287734561  1.0000
  C   C39       1.0  0.503195829344179  0.2374226567614386  0.05774100957922459  1.0000
  C   C40       1.0  0.5070736772677192  0.20993230084684458  0.0025274597251367954  1.0000
  C   C41       1.0  0.49987119888638887  0.3212681248084052  0.14251769676936013  1.0000
  C   C42       1.0  0.49990924851349655  0.34542627462273146  0.19082884962533328  1.0000
  C   C43       1.0  0.4999725236293314  0.37330317398920704  0.24658058355755227  1.0000
  C   C44       1.0  0.5032857986026967  0.42926691557863705  0.27561104238575496  1.0000
  C   C45       1.0  0.5072222168698559  0.4567514399788948  0.3308235379485183  1.0000
  C   C46       1.0  0.5000285691625236  0.42967116526043003  0.3593234449411682  1.0000
  C   C47       1.0  0.49279934020809424  0.3740910734813667  0.33082032368242403  1.0000
  C   C48       1.0  0.4966696533068671  0.3463645869673612  0.275611201459995  1.0000
  O   O1        1.0  0.7365400117594588  0.5583834443288183  0.5508501245110152  1.0000
  O   O2        1.0  0.7365478933411678  0.49246863591348955  0.4416152635498989  1.0000
  O   O3        1.0  0.7365622353289821  0.4491436640396103  0.5075344618994038  1.0000
  O   O4        1.0  0.26349659492982613  0.5583849711907122  0.507531705924265  1.0000
  O   O5        1.0  0.263506720938139  0.49246385471935383  0.5508526015929149  1.0000
  O   O6        1.0  0.2635127030076133  0.4491487596883061  0.4416148989827207  1.0000
  O   O7        1.0  0.7361000198845742  0.17418586942240225  0.8917208331572014  1.0000
  O   O8        1.0  0.7360881963984552  0.21751972209856513  0.8258216303208669  1.0000
  O   O9        1.0  0.7361028635102116  0.10828891642702847  0.7824887430666793  1.0000
  O   O10       1.0  0.2630499934817649  0.21750949835777073  0.891735202607272  1.0000
  O   O11       1.0  0.2630661006865367  0.10827020093492483  0.8257946680148366  1.0000
  O   O12       1.0  0.2630610105737432  0.17421350282100417  0.7824983392917843  1.0000
  F   F1        1.0  0.49197555273739363  0.1564732683406334  0.6799400974742724  1.0000
  F   F2        1.0  0.5073513479344882  0.320087808491813  0.8435359758763497  1.0000
  F   F3        1.0  0.5017536656709679  0.3736841226421389  0.7897783173161058  1.0000
  F   F4        1.0  0.49786380312784223  0.21021788898871557  0.6263283823128276  1.0000
  F   F5        1.0  0.5016454482340221  0.292974862077287  0.5435566736402535  1.0000
  F   F6        1.0  0.4982524057007395  0.4564349682893507  0.7070099954778115  1.0000
  F   F7        1.0  0.49256405864733915  0.5101939672834632  0.6534086686812159  1.0000
  F   F8        1.0  0.5074783011678504  0.3465763969622558  0.48979790446559696  1.0000
  F   F9        1.0  0.4919693573201299  0.023439512551241916  0.843524206549965  1.0000
  F   F10       1.0  0.5073634339113581  0.023447662276971756  0.6799194342165505  1.0000
  F   F11       1.0  0.5017934548245647  0.9160972134669622  0.6263156168310289  1.0000
  F   F12       1.0  0.49781227893512175  0.916085877283443  0.789769554738541  1.0000
  F   F13       1.0  0.5016953761652089  0.7505649156773941  0.7070058368385972  1.0000
  F   F14       1.0  0.49823247629921497  0.7505671760303939  0.5435527340801372  1.0000
  F   F15       1.0  0.49254758925631137  0.6432150219424814  0.48979875898209707  1.0000
  F   F16       1.0  0.5074913982678025  0.6432132507316268  0.6534115507135496  1.0000
  F   F17       1.0  0.4920288420247019  0.3200792367535428  0.9765504274077231  1.0000
  F   F18       1.0  0.5073664110134217  0.15647457897164688  0.9765714796308701  1.0000
  F   F19       1.0  0.5017614180538672  0.21023470485831552  0.08392299428299309  1.0000
  F   F20       1.0  0.497839287862348  0.37368739217033914  0.08390401237505779  1.0000
  F   F21       1.0  0.5016932205866381  0.45645879889249846  0.24943338071081192  1.0000
  F   F22       1.0  0.4982266765562429  0.2929976248163584  0.24943473299215668  1.0000
  F   F23       1.0  0.49255357916338477  0.3465962961693663  0.35678797906312804  1.0000
  F   F24       1.0  0.5075060483770244  0.510211177495691  0.3567855394137496  1.0000
