data_image0
_chemical_formula_structural       Cu2H24C28S4N20
_chemical_formula_sum              "Cu2 H24 C28 S4 N20"
_cell_length_a       8.198139694380968
_cell_length_b       8.910519426037002
_cell_length_c       12.365081245767735
_cell_angle_alpha    90.00032014846964
_cell_angle_beta     110.92798910232948
_cell_angle_gamma    89.99992910450526

_space_group_name_H-M_alt    "P 1"
_space_group_IT_number       1

loop_
  _space_group_symop_operation_xyz
  'x, y, z'

loop_
  _atom_site_type_symbol
  _atom_site_label
  _atom_site_symmetry_multiplicity
  _atom_site_fract_x
  _atom_site_fract_y
  _atom_site_fract_z
  _atom_site_occupancy
  Cu  Cu1       1.0  1.215575274201442e-06  0.9999993815117277  0.9999986649546669  1.0000
  Cu  Cu2       1.0  0.4999999922115421  0.49999973263597747  4.352602928724247e-06  1.0000
  H   H1        1.0  0.6727734174773446  0.7820719646626131  0.9148044655121906  1.0000
  H   H2        1.0  0.8272318900367567  0.2820709268242396  0.08520030226232227  1.0000
  H   H3        1.0  0.32723235428391456  0.21792457315166305  0.08520018324792739  1.0000
  H   H4        1.0  0.1727721868311676  0.7179323445823159  0.9147983236925866  1.0000
  H   H5        1.0  0.6121917609780211  0.0713392236324921  0.37760592302591783  1.0000
  H   H6        1.0  0.8877949427273177  0.5713344110611303  0.6223924421418161  1.0000
  H   H7        1.0  0.38780215655027217  0.9286651700564479  0.6223946130519593  1.0000
  H   H8        1.0  0.11220630169317053  0.42866212671834353  0.3776023500733601  1.0000
  H   H9        1.0  0.7273860743683542  0.1368038729705603  0.21970132648675636  1.0000
  H   H10       1.0  0.7726126651939393  0.6368015227533236  0.7803030787926415  1.0000
  H   H11       1.0  0.2726170321558925  0.8631960316471848  0.7803019521300172  1.0000
  H   H12       1.0  0.22739005118648245  0.36320062638083783  0.21969445148874905  1.0000
  H   H13       1.0  0.41851406236889943  0.6868904854910911  0.3906516152377931  1.0000
  H   H14       1.0  0.08148914073857579  0.18689597668752364  0.6093464821000295  1.0000
  H   H15       1.0  0.5814811041757011  0.3131127859259876  0.6093483741257727  1.0000
  H   H16       1.0  0.9185108546662092  0.8131028056328375  0.3906488568319019  1.0000
  H   H17       1.0  0.338629575194858  0.8742656993012548  0.3923058421584357  1.0000
  H   H18       1.0  0.1613689440987045  0.37427557127146127  0.6076969002250933  1.0000
  H   H19       1.0  0.661362981845329  0.12573644984626503  0.6076935982434861  1.0000
  H   H20       1.0  0.8386323003223809  0.625722088777046  0.39229789199252707  1.0000
  H   H21       1.0  0.5540348906052229  0.8271620413451759  0.48343943055581917  1.0000
  H   H22       1.0  0.9459637185295477  0.3271686339805768  0.5165608763873877  1.0000
  H   H23       1.0  0.4459590269218694  0.1728401078057047  0.5165611055171695  1.0000
  H   H24       1.0  0.0540364998140603  0.6728279038140953  0.4834377473055227  1.0000
  C   C1        1.0  0.8830413082856765  0.9157300875098713  0.7503549154793061  1.0000
  C   C2        1.0  0.6169590349119715  0.4157294312337925  0.2496509786895516  1.0000
  C   C3        1.0  0.11696254563923249  0.08426757253915441  0.24964042569751393  1.0000
  C   C4        1.0  0.3830347482977102  0.5842715957127282  0.7503665279222033  1.0000
  C   C5        1.0  0.6494851597051579  0.8087789146862292  0.9936090856976847  1.0000
  C   C6        1.0  0.8505175111899419  0.3087817381246865  0.0063944282129285495  1.0000
  C   C7        1.0  0.35051930730479347  0.19121874539681025  0.006395288585274313  1.0000
  C   C8        1.0  0.14948520518926497  0.6912181664714226  0.9936031020635808  1.0000
  C   C9        1.0  0.5699218704820197  0.7900876923944935  0.1407677276523103  1.0000
  C   C10       1.0  0.9300806689143711  0.2900901789945253  0.8592340624956377  1.0000
  C   C11       1.0  0.43007993129091904  0.20991333449202904  0.859235276487311  1.0000
  C   C12       1.0  0.0699220474648428  0.7099097256015766  0.1407634677808645  1.0000
  C   C13       1.0  0.5205089463085385  0.8494720912493893  0.3051723358006767  1.0000
  C   C14       1.0  0.9794829957656505  0.3494743893849517  0.6948242322956445  1.0000
  C   C15       1.0  0.4794849712185538  0.15053005790149143  0.6948282002723117  1.0000
  C   C16       1.0  0.020518415859250197  0.6505210261347614  0.3051730234914912  1.0000
  C   C17       1.0  0.6009000517745092  0.9917005775394115  0.308687769871561  1.0000
  C   C18       1.0  0.8990922099080335  0.4917007007251327  0.6913118810375918  1.0000
  C   C19       1.0  0.39909517050509175  0.008302693880764904  0.6913130406834753  1.0000
  C   C20       1.0  0.100910450734375  0.5082958370607856  0.3086848280401213  1.0000
  C   C21       1.0  0.6648371461492389  0.03077307173346361  0.22417939723696623  1.0000
  C   C22       1.0  0.8351561493177687  0.5307694901935633  0.7758218060949674  1.0000
  C   C23       1.0  0.3351620461198834  0.9692279551525259  0.7758230579434481  1.0000
  C   C24       1.0  0.16485036984775547  0.4692315366661716  0.224174905239849  1.0000
  C   C25       1.0  0.4534170784689877  0.8059744590680182  0.3979118146773644  1.0000
  C   C26       1.0  0.04658239372123062  0.3059788145587703  0.6020867988858001  1.0000
  C   C27       1.0  0.5465768390587087  0.19402881235189545  0.6020887213980686  1.0000
  C   C28       1.0  0.9534189621692661  0.6940177232268853  0.39790963571230986  1.0000
  S   S1        1.0  0.8980695151190121  0.8925300567782771  0.6252102265247431  1.0000
  S   S2        1.0  0.6019228632365737  0.3925281266104648  0.3747922773710711  1.0000
  S   S3        1.0  0.10192792651816518  0.1074709700827157  0.37478538464434047  1.0000
  S   S4        1.0  0.3980756931043033  0.6074796339265591  0.6252197576420073  1.0000
  N   N1        1.0  0.8663121329055912  0.92967463893428  0.8419673867705483  1.0000
  N   N2        1.0  0.6336828390200681  0.4296710206762029  0.1580350066116978  1.0000
  N   N3        1.0  0.13368666921850547  0.0703263879300664  0.15802932006959475  1.0000
  N   N4        1.0  0.36631418962287643  0.5703255171578762  0.8419734691314814  1.0000
  N   N5        1.0  0.6982643604988681  0.9405723104455177  0.0463457440601189  1.0000
  N   N6        1.0  0.8017357863799147  0.44057454735511226  0.9536569735087708  1.0000
  N   N7        1.0  0.3017401065110832  0.059425349637528796  0.9536586302228399  1.0000
  N   N8        1.0  0.19826823475180788  0.5594264795102861  0.04634083124978619  1.0000
  N   N9        1.0  0.5724881724982822  0.7137606936589264  0.04667189838684752  1.0000
  N   N10       1.0  0.9275129803580243  0.21376277735426905  0.9533292849634307  1.0000
  N   N11       1.0  0.4275150454953759  0.28623808869598133  0.9533330226104225  1.0000
  N   N12       1.0  0.0724871265173732  0.7862371272413143  0.046667696353878796  1.0000
  N   N13       1.0  0.5047899233489801  0.7503282889211038  0.22082801883485806  1.0000
  N   N14       1.0  0.99520968526474  0.2503312102750784  0.7791689432905571  1.0000
  N   N15       1.0  0.49520790843383367  0.24967386023055835  0.7791733406769339  1.0000
  N   N16       1.0  0.004793031112072303  0.7496642052448976  0.2208285869761824  1.0000
  N   N17       1.0  0.6482615153416093  0.9279898163502408  0.13996129249915165  1.0000
  N   N18       1.0  0.8517359528140033  0.42798903616220235  0.8600400001300628  1.0000
  N   N19       1.0  0.3517389259444171  0.07201121053292073  0.860040615969403  1.0000
  N   N20       1.0  0.1482640425913857  0.572010868427185  0.1399553388043131  1.0000
