data_image0
_chemical_formula_structural       Zn2H32C52N2O8
_chemical_formula_sum              "Zn2 H32 C52 N2 O8"
_cell_length_a       10.901641740908778
_cell_length_b       18.253256833705116
_cell_length_c       19.45843254232763
_cell_angle_alpha    90.17506672800451
_cell_angle_beta     88.77078622521913
_cell_angle_gamma    90.05951191722221

_space_group_name_H-M_alt    "P 1"
_space_group_IT_number       1

loop_
  _space_group_symop_operation_xyz
  'x, y, z'

loop_
  _atom_site_type_symbol
  _atom_site_label
  _atom_site_symmetry_multiplicity
  _atom_site_fract_x
  _atom_site_fract_y
  _atom_site_fract_z
  _atom_site_occupancy
  Zn  Zn1       1.0  0.4998266224859549  0.4240588096631085  0.49960510674939945  1.0000
  Zn  Zn2       1.0  0.5001344864994975  0.5760508313860484  0.5004199338190034  1.0000
  H   H1        1.0  0.9079018446410173  0.7529719069753825  0.4617717643344151  1.0000
  H   H2        1.0  0.09228607963035533  0.246979544638087  0.5379417435392284  1.0000
  H   H3        1.0  0.0942849208546903  0.7532773572886029  0.5368457706135956  1.0000
  H   H4        1.0  0.9053807064406598  0.24667399788947358  0.46327696082065734  1.0000
  H   H5        1.0  0.47108115375282  0.6179438667034062  0.1580561898990638  1.0000
  H   H6        1.0  0.5293170041751337  0.3819236687765937  0.8418907771939033  1.0000
  H   H7        1.0  0.5525300291477534  0.617588477483359  0.8440306618630871  1.0000
  H   H8        1.0  0.44773903948580335  0.3822841515732165  0.1560497031441059  1.0000
  H   H9        1.0  0.35440316172761743  0.41107862476322776  0.0534010604843189  1.0000
  H   H10       1.0  0.645908420802712  0.5887561121632316  0.9466121752594318  1.0000
  H   H11       1.0  0.38833338997325473  0.41104214570057723  0.9276621484197348  1.0000
  H   H12       1.0  0.6120065184164858  0.5887772710355819  0.0723565443929317  1.0000
  H   H13       1.0  0.3373843326779493  0.3074137685973072  0.44726252118382354  1.0000
  H   H14       1.0  0.6626514033958344  0.6926459388209805  0.5526946613854874  1.0000
  H   H15       1.0  0.6626711226216243  0.307879288991991  0.5528462074398561  1.0000
  H   H16       1.0  0.3372473972665375  0.6921762070941851  0.4472468562633908  1.0000
  H   H17       1.0  0.3290954519108382  0.17050975773205576  0.445445631826729  1.0000
  H   H18       1.0  0.6709428168121148  0.8295685971587828  0.5545238971142084  1.0000
  H   H19       1.0  0.6707596660621887  0.17103844232509155  0.5547536198697145  1.0000
  H   H20       1.0  0.3291733127399183  0.8290235744226351  0.44530236054287536  1.0000
  H   H21       1.0  0.5769574753095768  0.0677883421859704  0.6011434234980443  1.0000
  H   H22       1.0  0.42303331774733977  0.9322708775267969  0.3988623451568643  1.0000
  H   H23       1.0  0.42295771691202316  0.06718422893947461  0.3989324738718665  1.0000
  H   H24       1.0  0.5770506442076524  0.9328777251280087  0.601065995670524  1.0000
  H   H25       1.0  0.8046836012724083  0.3630495841414501  0.4369917621602326  1.0000
  H   H26       1.0  0.19485753862343808  0.6369420072785061  0.5633137289862873  1.0000
  H   H27       1.0  0.19389663836376775  0.36343237250116533  0.5637104378133984  1.0000
  H   H28       1.0  0.8063950668888251  0.636533197462441  0.4358991504852838  1.0000
  H   H29       1.0  0.45539543942702204  0.6167640178465491  0.2861441322439333  1.0000
  H   H30       1.0  0.5449524253316225  0.3831878578196354  0.713797099577782  1.0000
  H   H31       1.0  0.5696598187052259  0.617444331643888  0.7160357342451605  1.0000
  H   H32       1.0  0.43039286436836494  0.3825054559211338  0.284041446749491  1.0000
  C   C1        1.0  0.5550283410338963  0.5008921461895994  0.6303248694836442  1.0000
  C   C2        1.0  0.4450126374584896  0.49915889746275593  0.3696949695093892  1.0000
  C   C3        1.0  0.44255320464979053  0.49961505124478117  0.29276548163268507  1.0000
  C   C4        1.0  0.5576024258346804  0.5003237228635982  0.7072514334986622  1.0000
  C   C5        1.0  0.4199767566105947  0.44950186600414804  0.0303284087991855  1.0000
  C   C6        1.0  0.5803522309671293  0.5503208263788579  0.9696857303568649  1.0000
  C   C7        1.0  0.4393527190525218  0.44932854279063866  0.9594209940443647  1.0000
  C   C8        1.0  0.56099735434735  0.5504842970040257  0.040593515179480705  1.0000
  C   C9        1.0  0.5199463658271524  0.49969261479578364  0.927528784577639  1.0000
  C   C10       1.0  0.4803972601781793  0.5001262513879113  0.07248731487758421  1.0000
  C   C11       1.0  0.4091191838041651  0.27442002072650945  0.47014083036711446  1.0000
  C   C12       1.0  0.5908975369941628  0.7256523374193833  0.5298524635944872  1.0000
  C   C13       1.0  0.590897633767014  0.2746989381933318  0.529933632477949  1.0000
  C   C14       1.0  0.4090595460597939  0.7253641538320537  0.4701036988799245  1.0000
  C   C15       1.0  0.405944199770282  0.1983539579288447  0.46913076336090137  1.0000
  C   C16       1.0  0.5940882063521754  0.8017057973585082  0.5308572764189564  1.0000
  C   C17       1.0  0.593958604275727  0.19864795147373118  0.5310397515121111  1.0000
  C   C18       1.0  0.40599866781968785  0.8014085582074911  0.4689924302126229  1.0000
  C   C19       1.0  0.4999442867592805  0.15844695431866995  0.5000863937800091  1.0000
  C   C20       1.0  0.5000391225291095  0.8416188409196295  0.4999219995483557  1.0000
  C   C21       1.0  0.5447361644492545  0.0382728685259579  0.5561789366159928  1.0000
  C   C22       1.0  0.4552362572766313  0.9617814153113499  0.44382796552879006  1.0000
  C   C23       1.0  0.4551833592038435  0.037950081845757204  0.4438773909606227  1.0000
  C   C24       1.0  0.544814798368634  0.9621025639714134  0.556126781031189  1.0000
  C   C25       1.0  0.500035828199472  0.9224286744396152  0.4999486129826849  1.0000
  C   C26       1.0  0.4999366128105081  0.07764149621944229  0.5000577983118506  1.0000
  C   C27       1.0  0.7365637900107841  0.5002375074636163  0.4696750221613826  1.0000
  C   C28       1.0  0.2633830049126757  0.4999027783334711  0.5303316490659854  1.0000
  C   C29       1.0  0.8889382979191609  0.3631695041203357  0.46550576171939184  1.0000
  C   C30       1.0  0.11080981726498605  0.6367879156052042  0.5346210975495255  1.0000
  C   C31       1.0  0.10974542113368808  0.36341644835103176  0.5351116678160395  1.0000
  C   C32       1.0  0.8903896608795349  0.6365372215640831  0.46463146264331107  1.0000
  C   C33       1.0  0.945113060562285  0.2981974000177133  0.4808357618259649  1.0000
  C   C34       1.0  0.054695222282951816  0.7017549879524624  0.5192131149452806  1.0000
  C   C35       1.0  0.05300469889621698  0.29835273544993157  0.5201203927373612  1.0000
  C   C36       1.0  0.9470750576459533  0.7015977281882043  0.4796868019367579  1.0000
  C   C37       1.0  0.060539090071230796  0.4326761845001386  0.5144278681143959  1.0000
  C   C38       1.0  0.9394588414211354  0.5672880381008625  0.4854384388395446  1.0000
  C   C39       1.0  0.9387636492485427  0.4325982525590604  0.4858091892099168  1.0000
  C   C40       1.0  0.061116505783225285  0.567363371761715  0.5141739887149654  1.0000
  C   C41       1.0  0.12468039205030827  0.5000042999719483  0.5236007809036209  1.0000
  C   C42       1.0  0.8752753935612956  0.4999649889527902  0.47636087205853533  1.0000
  C   C43       1.0  0.4532013501281966  0.5658449540018892  0.25683100451217916  1.0000
  C   C44       1.0  0.5470769510168481  0.43408504471186404  0.7431501962661571  1.0000
  C   C45       1.0  0.5620922097560168  0.5661828046110954  0.7443919650376642  1.0000
  C   C46       1.0  0.43801044999577227  0.4337527198980666  0.2556612467622585  1.0000
  C   C47       1.0  0.46312972906868305  0.5660561605185279  0.1854800247950763  1.0000
  C   C48       1.0  0.5372182148491191  0.4338311368869157  0.814503769606546  1.0000
  C   C49       1.0  0.5529542712785228  0.5658553080756902  0.8158047338416524  1.0000
  C   C50       1.0  0.4472667665309728  0.43404464638228285  0.1842451293407521  1.0000
  C   C51       1.0  0.46224327471901455  0.5000930375928971  0.1478469548384425  1.0000
  C   C52       1.0  0.538042685213668  0.4997712695306689  0.8521639117272458  1.0000
  N   N1        1.0  0.5000307652596447  0.3118597253553331  0.5000350615051872  1.0000
  N   N2        1.0  0.49994503921517  0.6882291004539381  0.4999883165743029  1.0000
  O   O1        1.0  0.5520641703702508  0.4389509362852096  0.5998280572805541  1.0000
  O   O2        1.0  0.44919292492224366  0.5611452122446252  0.4000127222643215  1.0000
  O   O3        1.0  0.4465109509490332  0.43689642279487373  0.39920881160742994  1.0000
  O   O4        1.0  0.5521823366026908  0.5632157872340713  0.6010146915290163  1.0000
  O   O5        1.0  0.6798702452987868  0.4391262539376656  0.4686089155128244  1.0000
  O   O6        1.0  0.31975330130352825  0.5611307182311761  0.530440376089075  1.0000
  O   O7        1.0  0.31922117131797734  0.43857862869310793  0.5294715596347785  1.0000
  O   O8        1.0  0.6810682214800394  0.5616559818479557  0.47154407520559266  1.0000
