data_image0
_chemical_formula_structural       Mg3H46C56O2
_chemical_formula_sum              "Mg3 H46 C56 O2"
_cell_length_a       9.052074597682262
_cell_length_b       9.541230272113685
_cell_length_c       13.1755
_cell_angle_alpha    97.00736632992361
_cell_angle_beta     98.1285571821037
_cell_angle_gamma    95.79633509670073

_space_group_name_H-M_alt    "P 1"
_space_group_IT_number       1

loop_
  _space_group_symop_operation_xyz
  'x, y, z'

loop_
  _atom_site_type_symbol
  _atom_site_label
  _atom_site_symmetry_multiplicity
  _atom_site_fract_x
  _atom_site_fract_y
  _atom_site_fract_z
  _atom_site_occupancy
  Mg  Mg1       1.0  0.5000024195524234  0.5000032101959064  1.1258390700213035e-06  1.0000
  Mg  Mg2       1.0  0.16810929430798896  0.48135866212052764  0.012243753291421909  1.0000
  Mg  Mg3       1.0  0.8318994674166262  0.5186435034679846  0.9877554676117625  1.0000
  H   H1        1.0  0.4494084167496695  0.559435366438251  0.388605965594749  1.0000
  H   H2        1.0  0.5505889151182899  0.44056467174861075  0.6113934749932569  1.0000
  H   H3        1.0  0.34868664817381767  0.5809678622557968  0.5552264767129174  1.0000
  H   H4        1.0  0.6513065242488878  0.4190257937261067  0.44477275495480484  1.0000
  H   H5        1.0  0.0868050506403435  0.6362005276377118  0.5596137631787172  1.0000
  H   H6        1.0  0.9131895082641108  0.3637952557458419  0.4403827551860076  1.0000
  H   H7        1.0  0.9274789291071244  0.675686165993838  0.3972808293006834  1.0000
  H   H8        1.0  0.0725146491423985  0.3243106810905445  0.6027164467577819  1.0000
  H   H9        1.0  0.028086497448882104  0.6573086068257439  0.23167744715843952  1.0000
  H   H10       1.0  0.9719119503496216  0.3426914313611107  0.7683190658971171  1.0000
  H   H11       1.0  0.4686299850813214  0.2539819735882602  0.7095443678489701  1.0000
  H   H12       1.0  0.5313669409598347  0.7460148734961224  0.2904547513948614  1.0000
  H   H13       1.0  0.4541608928539773  0.097519028012492  0.5418602394825811  1.0000
  H   H14       1.0  0.5458360331871788  0.9024778190718905  0.4581396387457204  1.0000
  H   H15       1.0  0.22852205071173873  0.9173228277973635  0.47798971495697634  1.0000
  H   H16       1.0  0.7714769719149004  0.0826729555861974  0.5220110319520117  1.0000
  H   H17       1.0  0.0216973674025098  0.89727844943517  0.5825117679344203  1.0000
  H   H18       1.0  0.9783017904997282  0.1027183976492125  0.41748908608929725  1.0000
  H   H19       1.0  0.036623989045566005  0.05357222839277401  0.7491543941680162  1.0000
  H   H20       1.0  0.9633720916162503  0.9464267460932589  0.2508440719153242  1.0000
  H   H21       1.0  0.137107165440959  0.32953345214543367  0.3035606076039699  1.0000
  H   H22       1.0  0.862909543073066  0.6704697771439074  0.6964447921435735  1.0000
  H   H23       1.0  0.2865445583559776  0.172436540877456  0.4028149963512675  1.0000
  H   H24       1.0  0.7134617346820491  0.8275549877027971  0.5971853219526082  1.0000
  H   H25       1.0  0.3487721127491454  0.945083291950219  0.31281443251509694  1.0000
  H   H26       1.0  0.6512228857078455  0.05490717292920521  0.6871816586814533  1.0000
  H   H27       1.0  0.2614832946497501  0.8762480204074239  0.12456301188371552  1.0000
  H   H28       1.0  0.7385058198775951  0.1237488266769589  0.8754338305528789  1.0000
  H   H29       1.0  0.1218605428754955  0.0395728618238493  0.023630525404755097  1.0000
  H   H30       1.0  0.8781377359216906  0.9604346222687924  0.9763711829553117  1.0000
  H   H31       1.0  0.5751957712193558  0.8430254525138567  0.9560869921651404  1.0000
  H   H32       1.0  0.4248019664754139  0.1569777767754772  0.043915046720492484  1.0000
  H   H33       1.0  0.4244297972973285  0.8171892231549478  0.028498587298351186  1.0000
  H   H34       1.0  0.5755643220546035  0.18281187873273552  0.9715013941724635  1.0000
  H   H35       1.0  0.2542151418122743  0.90530939067029  0.9000504579926556  1.0000
  H   H36       1.0  0.7457834412618354  0.0946917112174006  0.09994768014659167  1.0000
  H   H37       1.0  0.4188967846239109  0.9771432348411367  0.8572052658791094  1.0000
  H   H38       1.0  0.5811006825196544  0.0228578670465467  0.1427942818236261  1.0000
  H   H39       1.0  0.19937746520769656  0.7297540789714534  0.758472975299469  1.0000
  H   H40       1.0  0.8006232144518961  0.2702459592154014  0.2415252725359878  1.0000
  H   H41       1.0  0.3509020724550852  0.8100539180151927  0.7049939961815427  1.0000
  H   H42       1.0  0.6490997231350518  0.189946120171669  0.2950051190438572  1.0000
  H   H43       1.0  0.35376544084284944  0.5386134227723645  0.769099939807738  1.0000
  H   H44       1.0  0.6462364900228935  0.46138767911531897  0.2309000415168754  1.0000
  H   H45       1.0  0.5225812663687677  0.6580478788997084  0.7758732488809912  1.0000
  H   H46       1.0  0.4774196838420366  0.3419542866888038  0.22412673115287868  1.0000
  C   C1        1.0  0.36533586903829024  0.5755940456836371  0.12473385477514402  1.0000
  C   C2        1.0  0.634667144032278  0.42441556581065504  0.8752647065138531  1.0000
  C   C3        1.0  0.30483758828967217  0.5915176470465084  0.20357051607116014  1.0000
  C   C4        1.0  0.695159845128174  0.4084919644477836  0.7964350930352851  1.0000
  C   C5        1.0  0.24607670723936081  0.6071859602111829  0.2986954827989834  1.0000
  C   C6        1.0  0.7539243782470422  0.3928172690781509  0.7013015684116938  1.0000
  C   C7        1.0  0.33542596018774873  0.5856704836068474  0.3911758754068231  1.0000
  C   C8        1.0  0.6645702557496733  0.4143295545800072  0.60882269779124  1.0000
  C   C9        1.0  0.27825218819279485  0.5967691380237028  0.4842077357883596  1.0000
  C   C10       1.0  0.7217425059872653  0.4032277090606797  0.515791166644533  1.0000
  C   C11       1.0  0.13127527224013852  0.6282887208950854  0.4868050464483176  1.0000
  C   C12       1.0  0.8687192866643159  0.3717070624884684  0.5131929898853613  1.0000
  C   C13       1.0  0.04195750440888452  0.6500254472711975  0.3957961602902813  1.0000
  C   C14       1.0  0.9580385762529318  0.34997352721483577  0.6042015468085751  1.0000
  C   C15       1.0  0.09841750308264352  0.6404744775559479  0.3024248772955573  1.0000
  C   C16       1.0  0.9015821959220108  0.3595266243317354  0.6975726102646789  1.0000
  C   C17       1.0  0.27603795470792397  0.3492565928582181  0.9110956048835773  1.0000
  C   C18       1.0  0.7239717876716298  0.6507445090294652  0.08890513527931178  1.0000
  C   C19       1.0  0.26310892484688253  0.2606673332786826  0.8327345524761185  1.0000
  C   C20       1.0  0.7368914842615057  0.7393305775065216  0.16726499909884043  1.0000
  C   C21       1.0  0.2535255544301691  0.16554163212434506  0.7396244381870005  1.0000
  C   C22       1.0  0.7464724875415243  0.8344552149600375  0.2603763074312511  1.0000
  C   C23       1.0  0.3711009856295604  0.17588612265566891  0.6801934910006722  1.0000
  C   C24       1.0  0.6288969210665345  0.8241096607278848  0.31980714750284994  1.0000
  C   C25       1.0  0.3622854084209379  0.0870522118861885  0.5869578680282999  1.0000
  C   C26       1.0  0.6377124982751569  0.9129435714973655  0.4130427704752293  1.0000
  C   C27       1.0  0.2365785197132837  0.9865867707729735  0.5511690929243898  1.0000
  C   C28       1.0  0.7634191164316065  0.01340688520893  0.4488320903341503  1.0000
  C   C29       1.0  0.12007521566091842  0.9751519868951634  0.6100325572122927  1.0000
  C   C30       1.0  0.8799226910351762  0.0248437964883976  0.3899680812912294  1.0000
  C   C31       1.0  0.1277728551185007  0.0628796106189  0.7036044418427353  1.0000
  C   C32       1.0  0.8722230902677099  0.9371183001663043  0.2963954350948228  1.0000
  C   C33       1.0  0.957699277690736  0.3670225240514569  0.0563863425315105  1.0000
  C   C34       1.0  0.042313778754731905  0.6329870874428352  0.943619266282525  1.0000
  C   C35       1.0  0.034334067637644204  0.2862270004228762  0.101581207764383  1.0000
  C   C36       1.0  0.9656781434284838  0.7137847384730733  0.8984245068736386  1.0000
  C   C37       1.0  0.1190249493412665  0.1942987839510195  0.1572931423364494  1.0000
  C   C38       1.0  0.8809875660017853  0.8057065727399717  0.8427097610652439  1.0000
  C   C39       1.0  0.16640714157428962  0.2310283734673888  0.2647318321393826  1.0000
  C   C40       1.0  0.8336070645274348  0.7689727284203018  0.7352731365677627  1.0000
  C   C41       1.0  0.2502139396561134  0.1426518540530211  0.3198656199267234  1.0000
  C   C42       1.0  0.7497951263454183  0.8573439293305327  0.6801368616159564  1.0000
  C   C43       1.0  0.2847724137378762  0.0151566730674446  0.2695789052815059  1.0000
  C   C44       1.0  0.7152275895437015  0.9848380466152875  0.7304195659647874  1.0000
  C   C45       1.0  0.2370533651889346  0.9770443106643327  0.1632673304666525  1.0000
  C   C46       1.0  0.7629438314034261  0.0229546638217002  0.8367312440221469  1.0000
  C   C47       1.0  0.15662984598454696  0.0667855200513969  0.10689395479857919  1.0000
  C   C48       1.0  0.8433724907080061  0.9332187729387658  0.8931063478702156  1.0000
  C   C49       1.0  0.4545274500486371  0.8068340956153648  0.9504870551674998  1.0000
  C   C50       1.0  0.5454700170949283  0.1931670062723185  0.049513251519719914  1.0000
  C   C51       1.0  0.3576574264388341  0.8785987992325346  0.872013281155624  1.0000
  C   C52       1.0  0.642337944119241  0.1214033663559775  0.12798463888194792  1.0000
  C   C53       1.0  0.3201984083755889  0.766891065904126  0.7735690268649762  1.0000
  C   C54       1.0  0.6798015611802697  0.2331121633852149  0.22643171086263436  1.0000
  C   C55       1.0  0.41039643445734697  0.6456727834918468  0.7994411079705372  1.0000
  C   C56       1.0  0.5896045157534502  0.35432938209666537  0.2005588720633327  1.0000
  O   O1        1.0  0.42868881118857877  0.6561151344991458  0.9113835461610265  1.0000
  O   O2        1.0  0.5713099071611297  0.3438870310893592  0.08861545807742742  1.0000
