data_image0
_chemical_formula_structural       Ag4H16C24N12O12
_chemical_formula_sum              "Ag4 H16 C24 N12 O12"
_cell_length_a       7.1804507670297735
_cell_length_b       7.46653217139848
_cell_length_c       14.890079968925038
_cell_angle_alpha    98.88709912225583
_cell_angle_beta     89.99976118045085
_cell_angle_gamma    89.99981788304537

_space_group_name_H-M_alt    "P 1"
_space_group_IT_number       1

loop_
  _space_group_symop_operation_xyz
  'x, y, z'

loop_
  _atom_site_type_symbol
  _atom_site_label
  _atom_site_symmetry_multiplicity
  _atom_site_fract_x
  _atom_site_fract_y
  _atom_site_fract_z
  _atom_site_occupancy
  Ag  Ag1       1.0  0.8215231606461798  0.38972066321210974  0.6187333553299155  1.0000
  Ag  Ag2       1.0  0.6784804948789116  0.889722452608126  0.11873668916496881  1.0000
  Ag  Ag3       1.0  0.1784736380245917  0.6102891064997352  0.3812623650478173  1.0000
  Ag  Ag4       1.0  0.3215135184688051  0.1102684211931759  0.8812623491634071  1.0000
  H   H1        1.0  0.5433542875165287  0.21920200701467246  0.28637511083515943  1.0000
  H   H2        1.0  0.9566387715026606  0.7191814921914245  0.7863822830881377  1.0000
  H   H3        1.0  0.45664529649967267  0.7808023638588466  0.713621557524263  1.0000
  H   H4        1.0  0.043362205165323096  0.2808135414102892  0.21362243266899844  1.0000
  H   H5        1.0  0.2350811621353657  0.10090633184031358  0.33294794589238563  1.0000
  H   H6        1.0  0.26491478917982647  0.6008904655547483  0.832947796756514  1.0000
  H   H7        1.0  0.7649198145373359  0.8991021289354392  0.667050365107187  1.0000
  H   H8        1.0  0.7350820094992158  0.399096411547994  0.16705497865368102  1.0000
  H   H9        1.0  0.16913054704973965  0.1112234366952336  0.49872665716864634  1.0000
  H   H10       1.0  0.33088764668254805  0.6112140881143163  0.9987261767620766  1.0000
  H   H11       1.0  0.8308760002956672  0.8887877467894613  0.5012725247636142  1.0000
  H   H12       1.0  0.6691175080178551  0.3887727889727018  0.0012765986382987998  1.0000
  H   H13       1.0  0.414457086978075  0.23061439062708192  0.612093382293864  1.0000
  H   H14       1.0  0.0855611867529618  0.7306124399417726  0.11209529183397392  1.0000
  H   H15       1.0  0.5855550310591153  0.7693927145937068  0.3879048294559269  1.0000
  H   H16       1.0  0.9144425752560392  0.2693866253023387  0.887907704232376  1.0000
  C   C1        1.0  0.8089524859709198  0.36014153032252955  0.40294197133038523  1.0000
  C   C2        1.0  0.6910446919560939  0.860115272623979  0.902951288860649  1.0000
  C   C3        1.0  0.19104570537883345  0.6398695483149055  0.5970511584189568  1.0000
  C   C4        1.0  0.3089548920685559  0.13986754952298946  0.09705186130207011  1.0000
  C   C5        1.0  0.6344314337483822  0.2873367974121025  0.42577966674972606  1.0000
  C   C6        1.0  0.8655699714161429  0.7873179343625409  0.9257844623673465  1.0000
  C   C7        1.0  0.3655695429248738  0.712675695011299  0.5742169245623288  1.0000
  C   C8        1.0  0.13443100526860968  0.2126743415654175  0.0742173650529736  1.0000
  C   C9        1.0  0.5081208216344422  0.2204265385726316  0.3574361408052553  1.0000
  C   C10       1.0  0.9918730264293457  0.7204140010120952  0.8574424807587208  1.0000
  C   C11       1.0  0.4918759770557698  0.779579117931462  0.6425565919989751  1.0000
  C   C12       1.0  0.008129342906571  0.2795850758860823  0.14256118777512944  1.0000
  C   C13       1.0  0.33742819188698536  0.15630397928632783  0.38348709187549457  1.0000
  C   C14       1.0  0.1625768976415429  0.656292564872338  0.8834874809206428  1.0000
  C   C15       1.0  0.6625783554639498  0.8437058370129334  0.6165113183542202  1.0000
  C   C16       1.0  0.8374310423886298  0.3436997343453925  0.11651569142321701  1.0000
  C   C17       1.0  0.3004036581024678  0.16073164619413663  0.47556702423671743  1.0000
  C   C18       1.0  0.1996034251430672  0.6607296160892916  0.9755700383385105  1.0000
  C   C19       1.0  0.6995987112488391  0.8392754357421237  0.5244298425928023  1.0000
  C   C20       1.0  0.8004003368851826  0.3392639920645308  0.024430543383509504  1.0000
  C   C21       1.0  0.4354491158382459  0.2283202857684401  0.539386520725678  1.0000
  C   C22       1.0  0.06456838628307078  0.7283143591588298  0.039388854346810796  1.0000
  C   C23       1.0  0.5645643948611576  0.771690886051708  0.46061198873254483  1.0000
  C   C24       1.0  0.9354381610772505  0.271680627826619  0.9606131715403381  1.0000
  N   N1        1.0  0.6006977889751184  0.2913488201232041  0.5158270890083189  1.0000
  N   N2        1.0  0.8993098469795909  0.7913390038483074  0.015833144873702985  1.0000
  N   N3        1.0  0.399305973046978  0.708662293458076  0.4841680581320561  1.0000
  N   N4        1.0  0.1006897370213977  0.20865870586968072  0.9841697519608631  1.0000
  N   N5        1.0  0.9484186353818201  0.4243132007019525  0.38362891028383933  1.0000
  N   N6        1.0  0.5515617802302939  0.9242901441708541  0.8836367366089493  1.0000
  N   N7        1.0  0.051579555964885095  0.5756965457043749  0.6163654651605341  1.0000
  N   N8        1.0  0.4484266624241613  0.07569405683396009  0.1163678577352627  1.0000
  N   N9        1.0  0.5814665043765924  0.372456256314571  0.790651797654981  1.0000
  N   N10       1.0  0.9185274019610714  0.8724869055229405  0.2906533883255378  1.0000
  N   N11       1.0  0.41853029431921834  0.6275278631144232  0.20934808941839833  1.0000
  N   N12       1.0  0.08146382600308039  0.1275229690623618  0.7093483842514701  1.0000
  O   O1        1.0  0.6528936634187018  0.5101343897916593  0.7628781679920139  1.0000
  O   O2        1.0  0.84711978583762  0.010168730254996199  0.2628747359473351  1.0000
  O   O3        1.0  0.3471087059690632  0.48984699525598063  0.23712017566972324  1.0000
  O   O4        1.0  0.152879798162374  0.9898424299399196  0.7371231010613855  1.0000
  O   O5        1.0  0.5875055846806274  0.21865472217561432  0.7416569619331312  1.0000
  O   O6        1.0  0.9124697486633551  0.7186787096947357  0.24166345035878584  1.0000
  O   O7        1.0  0.4124828579936305  0.7813280533865521  0.258343498379233  1.0000
  O   O8        1.0  0.0875117306000845  0.2813271682156042  0.7583420593147636  1.0000
  O   O9        1.0  0.5032301073594566  0.392728516124869  0.8684023248364597  1.0000
  O   O10       1.0  0.9967658609701215  0.8927602379928034  0.3684045033774694  1.0000
  O   O11       1.0  0.49677086933349546  0.6072610370836671  0.13159863164462146  1.0000
  O   O12       1.0  0.003229544996706599  0.10725370318662189  0.6315975669046949  1.0000
