data_image0
_chemical_formula_structural       Cu8H24C16N8O32
_chemical_formula_sum              "Cu8 H24 C16 N8 O32"
_cell_length_a       8.52232915901598
_cell_length_b       9.625198896053242
_cell_length_c       10.791589226047616
_cell_angle_alpha    90.00032615539682
_cell_angle_beta     89.99996233924377
_cell_angle_gamma    90.00021604248498

_space_group_name_H-M_alt    "P 1"
_space_group_IT_number       1

loop_
  _space_group_symop_operation_xyz
  'x, y, z'

loop_
  _atom_site_type_symbol
  _atom_site_label
  _atom_site_symmetry_multiplicity
  _atom_site_fract_x
  _atom_site_fract_y
  _atom_site_fract_z
  _atom_site_occupancy
  Cu  Cu1       1.0  0.8822022577149582  0.7614807401818593  0.921728883860908  1.0000
  Cu  Cu2       1.0  0.3821925607028049  0.23851813801065447  0.5782694166154486  1.0000
  Cu  Cu3       1.0  0.11780002296515593  0.7385265807418904  0.4217274678470845  1.0000
  Cu  Cu4       1.0  0.6178022537863015  0.2614795468862424  0.07827636687054002  1.0000
  Cu  Cu5       1.0  0.1178027434838782  0.2385129317637862  0.0782754269801984  1.0000
  Cu  Cu6       1.0  0.6177983598617303  0.7614828064484412  0.42172284782638064  1.0000
  Cu  Cu7       1.0  0.882192071022935  0.2614951425470123  0.578275916416942  1.0000
  Cu  Cu8       1.0  0.38219922723970257  0.7385110082437689  0.9217307239058955  1.0000
  H   H1        1.0  0.7214576294820106  0.7738494423512917  0.7270940182420419  1.0000
  H   H2        1.0  0.2214581719736017  0.2261364182573757  0.7729098700899613  1.0000
  H   H3        1.0  0.27854374739582244  0.7261399812100036  0.22709992618714386  1.0000
  H   H4        1.0  0.7785504535411008  0.27386150209689214  0.2729122203436702  1.0000
  H   H5        1.0  0.2785391579890301  0.22613903488244352  0.2729102925869285  1.0000
  H   H6        1.0  0.7785397888883807  0.773853097914909  0.22709351409390177  1.0000
  H   H7        1.0  0.7214518667078593  0.2738640801698793  0.7729210643368419  1.0000
  H   H8        1.0  0.22146745495558656  0.7261467150339341  0.7270948704750071  1.0000
  H   H9        1.0  0.8928648670055283  0.7005108832200476  0.6940041636496732  1.0000
  H   H10       1.0  0.39287505516292504  0.2994953041074949  0.8059996948709482  1.0000
  H   H11       1.0  0.1071271686452633  0.799493907734302  0.19400027109541904  1.0000
  H   H12       1.0  0.6071206172368093  0.2005017939573932  0.3060081986943858  1.0000
  H   H13       1.0  0.1071237067860196  0.2994962949179508  0.3060020005214171  1.0000
  H   H14       1.0  0.6071405065412705  0.7005035625480075  0.19400276268692812  1.0000
  H   H15       1.0  0.8928848728977528  0.20050807574906324  0.8060068197083583  1.0000
  H   H16       1.0  0.3928620895666413  0.7994856443490688  0.694007231904159  1.0000
  H   H17       1.0  0.7511533723017861  0.6091537825744168  0.7597199428838622  1.0000
  H   H18       1.0  0.2511393894749716  0.39084880270030437  0.7402802337271767  1.0000
  H   H19       1.0  0.248858519915764  0.8908545555134707  0.25972018408148767  1.0000
  H   H20       1.0  0.7488610675072566  0.1091395535329127  0.2402789945368369  1.0000
  H   H21       1.0  0.24885749586341185  0.3908513177074369  0.24028158804226515  1.0000
  H   H22       1.0  0.7488573980411104  0.6091604533157308  0.2597212972104543  1.0000
  H   H23       1.0  0.7511464813011344  0.1091453500453241  0.7402767135944259  1.0000
  H   H24       1.0  0.2511568409128699  0.8908302228186571  0.759723462948898  1.0000
  C   C1        1.0  0.08610360822346762  0.5128166506102473  0.9787551567616151  1.0000
  C   C2        1.0  0.5861021611776138  0.4871770580698893  0.5212404153417796  1.0000
  C   C3        1.0  0.9138950732869234  0.9871868879171969  0.47875205197280496  1.0000
  C   C4        1.0  0.4138903855410803  0.0128212923612026  0.021244317987246606  1.0000
  C   C5        1.0  0.9138966994193466  0.4871759823938645  0.021251007372484303  1.0000
  C   C6        1.0  0.4139004932640518  0.5128218085301554  0.47875184909388235  1.0000
  C   C7        1.0  0.08610288763753  0.012829640653563998  0.5212420658020989  1.0000
  C   C8        1.0  0.5861005350034532  0.9871734184938463  0.9787581395625014  1.0000
  C   C9        1.0  0.9855025240109827  0.9778352063580369  0.06698134574787672  1.0000
  C   C10       1.0  0.48548439734980786  0.0221597128529467  0.43301686500098674  1.0000
  C   C11       1.0  0.014502594883261099  0.5221749865982588  0.5669808026893719  1.0000
  C   C12       1.0  0.5145169660383003  0.4778392557888012  0.933024048412783  1.0000
  C   C13       1.0  0.014502477194085402  0.0221605434576517  0.9330201851556341  1.0000
  C   C14       1.0  0.514497136104616  0.9778391537139799  0.5669763260840953  1.0000
  C   C15       1.0  0.985503579761691  0.47784569776911207  0.43302072827570737  1.0000
  C   C16       1.0  0.48549624887562  0.5221544161800081  0.0669830423703388  1.0000
  N   N1        1.0  0.8039313965809711  0.7044121582514576  0.757903944605886  1.0000
  N   N2        1.0  0.30393813689549626  0.29558437407607124  0.7420832497278697  1.0000
  N   N3        1.0  0.19606172391625884  0.7955888953873043  0.25791947685304  1.0000
  N   N4        1.0  0.6960587974462342  0.20441334440174325  0.24207878433600885  1.0000
  N   N5        1.0  0.19606069736931894  0.2955867083214087  0.24208553988797382  1.0000
  N   N6        1.0  0.6960727312631293  0.7044113756889842  0.25789974822360767  1.0000
  N   N7        1.0  0.803943277321558  0.20442139957022218  0.74207834749614  1.0000
  N   N8        1.0  0.3039321231177894  0.7955824053109664  0.7578986537317505  1.0000
  O   O1        1.0  0.9311204122516871  0.8559717139105486  0.08421669404116022  1.0000
  O   O2        1.0  0.4310922547051915  0.144018863323673  0.4157778195814289  1.0000
  O   O3        1.0  0.0688893763231064  0.6440406697814893  0.5842167442370468  1.0000
  O   O4        1.0  0.5689032656144022  0.3559758366799457  0.9157853174533063  1.0000
  O   O5        1.0  0.06889162928202101  0.1440229969685163  0.9157820569164414  1.0000
  O   O6        1.0  0.5688857585808976  0.8559768864063813  0.5842116649059508  1.0000
  O   O7        1.0  0.9311144515556933  0.3559852092827498  0.41578571338865106  1.0000
  O   O8        1.0  0.43110056218743154  0.6440126405567457  0.08421621343232741  1.0000
  O   O9        1.0  0.11802121170383369  0.628126372889973  0.9306967158896738  1.0000
  O   O10       1.0  0.6180215663273431  0.3718695229311493  0.5692932907731604  1.0000
  O   O11       1.0  0.8819775363892717  0.871878928842008  0.43068841311863093  1.0000
  O   O12       1.0  0.3819709138290506  0.12813225894775118  0.06929962258118391  1.0000
  O   O13       1.0  0.8819802693262561  0.371865221170509  0.0693075949466007  1.0000
  O   O14       1.0  0.38198226151168774  0.6281303825771046  0.43068878054163673  1.0000
  O   O15       1.0  0.11801573098883722  0.12813967759075948  0.5693029247190895  1.0000
  O   O16       1.0  0.6180211801042718  0.8718624519062743  0.9307019083208916  1.0000
  O   O17       1.0  0.019269405035885305  0.062798194417411  0.1521445658649085  1.0000
  O   O18       1.0  0.5192388650290312  0.9371920117015405  0.34785372609573534  1.0000
  O   O19       1.0  0.9807311740917725  0.4372155582544862  0.6521459072152711  1.0000
  O   O20       1.0  0.4807646913567111  0.5628075529849282  0.8478607159807368  1.0000
  O   O21       1.0  0.9807320760041092  0.9371975553952859  0.8478578916864877  1.0000
  O   O22       1.0  0.48073328130041665  0.0627985433448899  0.6521431715599135  1.0000
  O   O23       1.0  0.019269133610940497  0.562804087160238  0.34785469710016775  1.0000
  O   O24       1.0  0.5192555639007566  0.4371944305246274  0.15215008141262845  1.0000
  O   O25       1.0  0.18529341275842628  0.4145591654743583  0.9955179597904975  1.0000
  O   O26       1.0  0.6852806628342025  0.5854379995942409  0.5044748150998688  1.0000
  O   O27       1.0  0.8147043439067829  0.08544748491755877  0.4955128853154991  1.0000
  O   O28       1.0  0.3147081151729623  0.9145530831848204  0.004479795314672702  1.0000
  O   O29       1.0  0.8147104150735913  0.5854438569163064  0.0044835711311038  1.0000
  O   O30       1.0  0.31470791093312295  0.4145525554621088  0.49551652266889334  1.0000
  O   O31       1.0  0.1852854032789182  0.9145607321438194  0.5044877189725983  1.0000
  O   O32       1.0  0.6852874989191946  0.08543954980215321  0.995523588877106  1.0000
