data_image0
_chemical_formula_structural       Sm4H96C100S8N12O32
_chemical_formula_sum              "Sm4 H96 C100 S8 N12 O32"
_cell_length_a       16.139558570135684
_cell_length_b       16.139498423844824
_cell_length_c       27.950610532665834
_cell_angle_alpha    80.33717652237542
_cell_angle_beta     80.33708083713204
_cell_angle_gamma    62.78455560662756

_space_group_name_H-M_alt    "P 1"
_space_group_IT_number       1

loop_
  _space_group_symop_operation_xyz
  'x, y, z'

loop_
  _atom_site_type_symbol
  _atom_site_label
  _atom_site_symmetry_multiplicity
  _atom_site_fract_x
  _atom_site_fract_y
  _atom_site_fract_z
  _atom_site_occupancy
  Sm  Sm1       1.0  0.529656740328285  0.06614046517608327  0.045030490210478995  1.0000
  Sm  Sm2       1.0  0.9338599641741041  0.4703433131277423  0.4549698982684447  1.0000
  Sm  Sm3       1.0  0.47034491007958207  0.9338597646876682  0.9549703234811274  1.0000
  Sm  Sm4       1.0  0.06613818244438362  0.5296571910064287  0.5450298026940743  1.0000
  H   H1        1.0  0.6299676791888871  0.06312510806894524  0.203939174920869  1.0000
  H   H2        1.0  0.9368750962818311  0.37003155621233225  0.29606160622155636  1.0000
  H   H3        1.0  0.37003256891620145  0.9368757357586404  0.796061358711725  1.0000
  H   H4        1.0  0.0631258542762012  0.6299683506318415  0.7039389505310893  1.0000
  H   H5        1.0  0.7096580759982274  0.10584362479582404  0.25949933726680996  1.0000
  H   H6        1.0  0.894157387088647  0.2903412363596942  0.24050133237036408  1.0000
  H   H7        1.0  0.2903428713516476  0.8941569101412772  0.740500800107327  1.0000
  H   H8        1.0  0.1058442620481586  0.7096589922316741  0.7594991237959263  1.0000
  H   H9        1.0  0.8479186072555437  0.2030756644235865  0.1341062706363942  1.0000
  H   H10       1.0  0.7969234351778383  0.1520813494701513  0.36589378146662443  1.0000
  H   H11       1.0  0.15208234076034438  0.7969242398758282  0.8658935710656335  1.0000
  H   H12       1.0  0.20307751283804976  0.8479185548292635  0.6341060602354032  1.0000
  H   H13       1.0  0.7674872735985403  0.16016842752168972  0.07864491185503648  1.0000
  H   H14       1.0  0.8398305220457232  0.23251245570006762  0.4213555599079156  1.0000
  H   H15       1.0  0.23251297583858127  0.8398311550305239  0.9213550304333396  1.0000
  H   H16       1.0  0.16016973059954856  0.767486498759233  0.5786448017589692  1.0000
  H   H17       1.0  0.31684407383779245  0.8310098341270236  0.0834141040011289  1.0000
  H   H18       1.0  0.1689930925921885  0.6831545604958863  0.4165850321463579  1.0000
  H   H19       1.0  0.6831526672088017  0.16899317461166422  0.9165858463934028  1.0000
  H   H20       1.0  0.831007858026801  0.31684408380053963  0.5834145757367536  1.0000
  H   H21       1.0  0.2445421591893009  0.7676237448411315  0.15863680334695118  1.0000
  H   H22       1.0  0.2323781395664355  0.7554567822005892  0.3413620533705525  1.0000
  H   H23       1.0  0.7554573865238083  0.23237677342211804  0.8413627582960642  1.0000
  H   H24       1.0  0.7676221105367061  0.24454216971394527  0.6586375932457074  1.0000
  H   H25       1.0  0.3744114096409064  0.8555142048535346  0.2487648636704876  1.0000
  H   H26       1.0  0.14448350669594132  0.6255904423564473  0.2512340898831694  1.0000
  H   H27       1.0  0.6255916463998119  0.1444822578579519  0.751234751719572  1.0000
  H   H28       1.0  0.8555174426519726  0.37440820066760255  0.7487651604746332  1.0000
  H   H29       1.0  0.44715120164300254  0.9186955916895413  0.17293492887231562  1.0000
  H   H30       1.0  0.0813033667770142  0.5528498892277226  0.327064328281466  1.0000
  H   H31       1.0  0.5528504501578552  0.08130211435108954  0.8270643446055387  1.0000
  H   H32       1.0  0.9186975806338181  0.4471493831616229  0.6729348602231369  1.0000
  H   H33       1.0  0.8351328543612908  0.7980927232225739  0.056731901420263894  1.0000
  H   H34       1.0  0.2019095258500414  0.16486856337733968  0.4432680958123995  1.0000
  H   H35       1.0  0.16486879029628201  0.20190813218933812  0.9432677778422017  1.0000
  H   H36       1.0  0.7980893199522753  0.8351328944140944  0.5567321577611821  1.0000
  H   H37       1.0  0.9676021717798022  0.6373003711472406  0.04559251740934659  1.0000
  H   H38       1.0  0.3627011218835108  0.032399343612858914  0.4544069941273746  1.0000
  H   H39       1.0  0.0323994748148522  0.36269985489936823  0.954407223706319  1.0000
  H   H40       1.0  0.6372977226477374  0.9676021129061921  0.5455929019208978  1.0000
  H   H41       1.0  0.8025157620426384  0.5841424471529564  0.9603280796948893  1.0000
  H   H42       1.0  0.4158569104649885  0.19748774023331356  0.5396723942709016  1.0000
  H   H43       1.0  0.19748449120769607  0.41585713921639916  0.03967293516941339  1.0000
  H   H44       1.0  0.5841419321291638  0.8025143456510409  0.46032743992417824  1.0000
  H   H45       1.0  0.6713531462253358  0.7456661259148376  0.9701052086485261  1.0000
  H   H46       1.0  0.254332630521418  0.32864924538269247  0.5298949109706541  1.0000
  H   H47       1.0  0.3286464065091436  0.2543337680726339  0.029895844948924794  1.0000
  H   H48       1.0  0.745665513493975  0.6713525187544678  0.470105023810774  1.0000
  H   H49       1.0  0.2811625600804106  0.3553398511785417  0.11306285362451259  1.0000
  H   H50       1.0  0.6446600189296274  0.7188365304847296  0.3869373229024759  1.0000
  H   H51       1.0  0.7188355910173101  0.6446600261350854  0.8869376242418239  1.0000
  H   H52       1.0  0.3553402292364254  0.28116305079510795  0.6130622618605912  1.0000
  H   H53       1.0  0.2852344774090979  0.3450343624209253  0.17772608023731348  1.0000
  H   H54       1.0  0.6549665261840331  0.7147635379386232  0.3222740924272003  1.0000
  H   H55       1.0  0.714762971901699  0.6549658212384344  0.8222740788368623  1.0000
  H   H56       1.0  0.3450337219820198  0.28523604334121433  0.6777254923358667  1.0000
  H   H57       1.0  0.2311165887674349  0.2867284316706034  0.15319535028897482  1.0000
  H   H58       1.0  0.7132709293593464  0.7688829102647997  0.3468048239496397  1.0000
  H   H59       1.0  0.7688815610592101  0.7132714443706403  0.8468047700520528  1.0000
  H   H60       1.0  0.2867293200777752  0.23111667228742055  0.6531951183387364  1.0000
  H   H61       1.0  0.3250110803869717  0.13510756661191442  0.20218019858155145  1.0000
  H   H62       1.0  0.8648910185991383  0.6749882148608676  0.29781955302142654  1.0000
  H   H63       1.0  0.6749877731636786  0.8648913737182938  0.7978203024048368  1.0000
  H   H64       1.0  0.135107827930149  0.32501134974512524  0.7021794560105192  1.0000
  H   H65       1.0  0.38943199871282985  0.18123074353864876  0.22789370856489194  1.0000
  H   H66       1.0  0.8187690873344095  0.610565747592041  0.27210677645630443  1.0000
  H   H67       1.0  0.6105661517188706  0.818769764412664  0.7721070649735607  1.0000
  H   H68       1.0  0.1812304661270403  0.38943225320999625  0.7278930325995177  1.0000
  H   H69       1.0  0.45162373859864846  0.07599773903762502  0.19760386452568204  1.0000
  H   H70       1.0  0.9240021327509921  0.548374760802112  0.30239643213490547  1.0000
  H   H71       1.0  0.5483751110778315  0.924002460023196  0.8023965127543063  1.0000
  H   H72       1.0  0.07599811862321808  0.45162419238480556  0.6976035720066704  1.0000
  H   H73       1.0  0.46813165150547315  0.40340479114071576  0.054696001892622796  1.0000
  H   H74       1.0  0.5965967440320058  0.5318681113133151  0.4453034951070762  1.0000
  H   H75       1.0  0.5318671917546992  0.5965966641059596  0.9453035366303411  1.0000
  H   H76       1.0  0.40340420271281363  0.4681317917137163  0.5546959890696357  1.0000
  H   H77       1.0  0.5792421788412341  0.3964827711438445  0.02433281792754369  1.0000
  H   H78       1.0  0.6035184175091645  0.4207571023850747  0.4756666831005773  1.0000
  H   H79       1.0  0.42075736620586207  0.6035183777570977  0.9756670393875806  1.0000
  H   H80       1.0  0.39648182938581294  0.5792424776223798  0.5243325441371736  1.0000
  H   H81       1.0  0.5770468837149281  0.31076814930479907  0.07399207143800617  1.0000
  H   H82       1.0  0.6892334817772436  0.42295242185470283  0.42600768643477227  1.0000
  H   H83       1.0  0.4229526613321681  0.6892329995961362  0.9260077858771181  1.0000
  H   H84       1.0  0.3107681686915882  0.5770465454613004  0.5739921783873  1.0000
  H   H85       1.0  0.4680288931195519  0.33392681161515725  0.9293183290439868  1.0000
  H   H86       1.0  0.6660731637048511  0.5319716136319811  0.5706813614141025  1.0000
  H   H87       1.0  0.531971354380488  0.6660734003023662  0.07068155139118912  1.0000
  H   H88       1.0  0.33392708379518155  0.46802859828554233  0.42931851902107343  1.0000
  H   H89       1.0  0.5170078519770698  0.40863111546963876  0.9392519988813318  1.0000
  H   H90       1.0  0.5913695264376527  0.4829919920160178  0.5607477081138157  1.0000
  H   H91       1.0  0.4829923942518945  0.5913690951755016  0.060747524028535296  1.0000
  H   H92       1.0  0.40863072493655045  0.5170069611708998  0.4392522960277603  1.0000
  H   H93       1.0  0.40787737178488465  0.4173129355781242  0.9735895429551533  1.0000
  H   H94       1.0  0.5826874488849254  0.5921229313991034  0.5264102216155917  1.0000
  H   H95       1.0  0.5921228744440797  0.5826872750670233  0.02640997995471385  1.0000
  H   H96       1.0  0.4173120987652723  0.40787695749884273  0.4735894018806235  1.0000
  C   C1        1.0  0.6403592849861254  0.0922228416119851  0.1058806425235801  1.0000
  C   C2        1.0  0.9077775055456031  0.3596393643004062  0.39412019462064046  1.0000
  C   C3        1.0  0.3596409650560517  0.9077773728502972  0.8941199529622139  1.0000
  C   C4        1.0  0.09222135054719159  0.6403595785745678  0.6058810214163656  1.0000
  C   C5        1.0  0.693390054722414  0.11078133958351083  0.1383910705966542  1.0000
  C   C6        1.0  0.8892177647069275  0.3066092063956633  0.3616098060909748  1.0000
  C   C7        1.0  0.3066101953197631  0.8892188748787717  0.8616095248891397  1.0000
  C   C8        1.0  0.11078178742249627  0.6933900556817464  0.6383905943090582  1.0000
  C   C9        1.0  0.677995363383907  0.09378296734378479  0.1893361112610492  1.0000
  C   C10       1.0  0.9062166085270533  0.32200374315669916  0.31066509089704647  1.0000
  C   C11       1.0  0.3220048866582701  0.9062172471185049  0.8106644842247446  1.0000
  C   C12       1.0  0.0937836434522126  0.6779958419402802  0.6893355664419474  1.0000
  C   C13       1.0  0.7218941362740026  0.11678497357745242  0.21991450913976243  1.0000
  C   C14       1.0  0.8832153173176349  0.2781050934905237  0.2800862388654792  1.0000
  C   C15       1.0  0.278106812346941  0.8832155626320243  0.7800859857596834  1.0000
  C   C16       1.0  0.1167856351774859  0.7218941839883399  0.7199143797403662  1.0000
  C   C17       1.0  0.7824537576620756  0.15749937074924955  0.19955909237613403  1.0000
  C   C18       1.0  0.8424998863278788  0.21754613232552336  0.3004413216348567  1.0000
  C   C19       1.0  0.217547191624881  0.842500534822541  0.8004411068511956  1.0000
  C   C20       1.0  0.15750106295908484  0.7824537732462743  0.6995588775924728  1.0000
  C   C21       1.0  0.8000264001337596  0.17219204829502377  0.1486524033857819  1.0000
  C   C22       1.0  0.8278064374419358  0.19997382756791643  0.35134769370380775  1.0000
  C   C23       1.0  0.1999752516061406  0.8278069202933552  0.8513478189615993  1.0000
  C   C24       1.0  0.1721938107241101  0.8000257537119211  0.6486518910592591  1.0000
  C   C25       1.0  0.7556805068116786  0.14887967482876976  0.11824635339940669  1.0000
  C   C26       1.0  0.8511187146204051  0.24431867558193684  0.381754227837213  1.0000
  C   C27       1.0  0.24432044314129803  0.8511196001053418  0.8817535501558211  1.0000
  C   C28       1.0  0.1488815399619554  0.7556796495120536  0.6182461956828716  1.0000
  C   C29       1.0  0.4303537506688002  0.9148616400733828  0.07975818046421072  1.0000
  C   C30       1.0  0.08513848197063109  0.5696466616936535  0.4202413951694837  1.0000
  C   C31       1.0  0.5696464922300917  0.08514172376018804  0.9202428208062016  1.0000
  C   C32       1.0  0.9148596673119157  0.43035131988977343  0.579757123104592  1.0000
  C   C33       1.0  0.38704066773349405  0.8769052159545082  0.12429421249068891  1.0000
  C   C34       1.0  0.12309667303304649  0.612957627037737  0.37570540123154916  1.0000
  C   C35       1.0  0.6129581794008487  0.12309498056154684  0.8757054497386746  1.0000
  C   C36       1.0  0.87690498003888  0.38704008027526965  0.624294229771614  1.0000
  C   C37       1.0  0.3296601547943466  0.8347225693941456  0.11992715454764634  1.0000
  C   C38       1.0  0.16527984144143198  0.6703384406395327  0.3800723880823184  1.0000
  C   C39       1.0  0.6703393863785791  0.1652798382374029  0.8800725790610782  1.0000
  C   C40       1.0  0.8347204105987913  0.3296598819096985  0.6199273203871485  1.0000
  C   C41       1.0  0.2896948757997747  0.7999675188426993  0.16118861418362934  1.0000
  C   C42       1.0  0.20003548589484407  0.7103025367053776  0.33881063216323776  1.0000
  C   C43       1.0  0.7103039655842665  0.20003330322152385  0.8388099136166076  1.0000
  C   C44       1.0  0.7999661659060139  0.28969516933525347  0.6611886413146166  1.0000
  C   C45       1.0  0.3070534859103233  0.8070436326662219  0.20774321725369296  1.0000
  C   C46       1.0  0.1929572038610416  0.6929460202613029  0.2922560296823207  1.0000
  C   C47       1.0  0.6929467622557295  0.19295594861361562  0.7922563675093668  1.0000
  C   C48       1.0  0.8070430449710242  0.30705293038084874  0.7077432594086304  1.0000
  C   C49       1.0  0.3632386105805309  0.8503604834209071  0.21216353407682217  1.0000
  C   C50       1.0  0.14963968001291755  0.6367620037903164  0.2878356615048361  1.0000
  C   C51       1.0  0.6367623439126289  0.14963690214490571  0.7878361975126893  1.0000
  C   C52       1.0  0.8503612686689834  0.3632372698714119  0.7121638845250826  1.0000
  C   C53       1.0  0.4030733774382824  0.8849509466906792  0.17067893393676312  1.0000
  C   C54       1.0  0.11504963614174811  0.5969263437731982  0.32932030490071895  1.0000
  C   C55       1.0  0.5969268719988391  0.11504863586154102  0.8293210083516129  1.0000
  C   C56       1.0  0.8849520169301782  0.40307136353980894  0.6706793261024443  1.0000
  C   C57       1.0  0.6699864281081886  0.8772978188183775  0.01998962440825376  1.0000
  C   C58       1.0  0.12270203842943062  0.330015056062841  0.48001040495825714  1.0000
  C   C59       1.0  0.33001522163366553  0.12270304168306011  0.9800114849554544  1.0000
  C   C60       1.0  0.8772954064021405  0.6699857544170559  0.519988977212108  1.0000
  C   C61       1.0  0.7464144169485322  0.7811276132340765  0.01368835015961172  1.0000
  C   C62       1.0  0.21887128010566664  0.25358866829139254  0.4863118606840118  1.0000
  C   C63       1.0  0.25358723539642375  0.21887198726437154  0.9863125253851948  1.0000
  C   C64       1.0  0.7811268671178766  0.7464124677528406  0.5136884934759249  1.0000
  C   C65       1.0  0.8296458524217343  0.7503799183879353  0.035411940639725976  1.0000
  C   C66       1.0  0.24962026307188978  0.17035467548514313  0.4645879626050515  1.0000
  C   C67       1.0  0.1703557986521531  0.24961968083812985  0.9645885773797642  1.0000
  C   C68       1.0  0.7503778828805849  0.8296464592867071  0.5354120340295765  1.0000
  C   C69       1.0  0.9023908346729143  0.6620134036187653  0.029421784022027  1.0000
  C   C70       1.0  0.3379880092116919  0.09761195863247006  0.4705783841209693  1.0000
  C   C71       1.0  0.0976115130426578  0.3379871467198043  0.9705785715579082  1.0000
  C   C72       1.0  0.6620108333824674  0.9023901272518842  0.5294214500741035  1.0000
  C   C73       1.0  0.8920619574474387  0.6025596887833443  0.0017113179179944068  1.0000
  C   C74       1.0  0.39744002343504536  0.10793884920707347  0.4982891814237006  1.0000
  C   C75       1.0  0.1079389963187438  0.39743958996790946  0.9982896582131602  1.0000
  C   C76       1.0  0.602558121851416  0.89206291620247  0.5017111108830363  1.0000
  C   C77       1.0  0.8081749324042916  0.6326136322949694  0.9810543451018389  1.0000
  C   C78       1.0  0.3673852680045755  0.1918267187304039  0.5189460268108306  1.0000
  C   C79       1.0  0.19182602457004794  0.3673850183633576  0.01894705040782439  1.0000
  C   C80       1.0  0.6326128766768234  0.80817441476907  0.4810536122984883  1.0000
  C   C81       1.0  0.7359157685940404  0.7216368950892472  0.9866066463511415  1.0000
  C   C82       1.0  0.27836186992468726  0.26408783086178994  0.5133932950992488  1.0000
  C   C83       1.0  0.2640858844169287  0.2783620747715077  0.013393933521555807  1.0000
  C   C84       1.0  0.7216362740907059  0.7359139332753704  0.4866066396821793  1.0000
  C   C85       1.0  0.2870891279701411  0.30916897154328643  0.14718430014992379  1.0000
  C   C86       1.0  0.6908312060804247  0.7129094039976492  0.3528158668738826  1.0000
  C   C87       1.0  0.712908319403567  0.6908318414813762  0.8528157970710523  1.0000
  C   C88       1.0  0.3091683415697729  0.2870904849002971  0.6471837566223326  1.0000
  C   C89       1.0  0.38945824897253095  0.14375026768143329  0.19853252723767406  1.0000
  C   C90       1.0  0.8562488394582671  0.6105404220369762  0.30146755553431587  1.0000
  C   C91       1.0  0.6105398989170326  0.8562502377251204  0.8014675312501537  1.0000
  C   C92       1.0  0.14375070885794367  0.38945883622328376  0.6985317722897902  1.0000
  C   C93       1.0  0.5410895550655468  0.35659766715203034  0.04286157278103529  1.0000
  C   C94       1.0  0.6434043095112684  0.45891002152117727  0.457138178082502  1.0000
  C   C95       1.0  0.45890998804446775  0.643404111114215  0.9571382226808963  1.0000
  C   C96       1.0  0.3565959386547775  0.5410895597586602  0.542861406680565  1.0000
  C   C97       1.0  0.476513993510899  0.37033621114869675  0.9565424713455782  1.0000
  C   C98       1.0  0.6296634664752148  0.5234867244781185  0.5434576037728363  1.0000
  C   C99       1.0  0.5234862559262226  0.6296633714035237  0.0434574709427906  1.0000
  C   C100      1.0  0.37033608050897016  0.476513795057521  0.4565423153954881  1.0000
  S   S1        1.0  0.39995430052585584  0.20871037096372896  0.140524394971294  1.0000
  S   S2        1.0  0.7912902045844774  0.6000442187044827  0.35947595159092316  1.0000
  S   S3        1.0  0.6000445491506312  0.7912898280970919  0.8594759823086945  1.0000
  S   S4        1.0  0.20871004485263708  0.39995536384773794  0.6405239906974458  1.0000
  S   S5        1.0  0.5425652902973893  0.2803962904650135  0.0017863798702890707  1.0000
  S   S6        1.0  0.719604346824049  0.4574348182496237  0.49821304174032827  1.0000
  S   S7        1.0  0.45743495720264343  0.7196039214525171  0.99821350056488  1.0000
  S   S8        1.0  0.2803965999207705  0.5425650847774152  0.5017864424363836  1.0000
  N   N1        1.0  0.8245240659979556  0.19080672709116447  0.22707144624901332  1.0000
  N   N2        1.0  0.8091927673136111  0.17547623497767975  0.27292925586371547  1.0000
  N   N3        1.0  0.17547828432071097  0.8091925632444087  0.7729286755120126  1.0000
  N   N4        1.0  0.1908088805521189  0.8245239923413054  0.7270708427772661  1.0000
  N   N5        1.0  0.2720976867949503  0.772821930439875  0.25221847614464815  1.0000
  N   N6        1.0  0.22717829087860508  0.7279026610165928  0.2477803911763488  1.0000
  N   N7        1.0  0.727903965610963  0.22717640751081822  0.747781450530617  1.0000
  N   N8        1.0  0.7728226597403847  0.272095983279833  0.7522192167067627  1.0000
  N   N9        1.0  0.960864411885609  0.5118267964919954  0.9923930624038774  1.0000
  N   N10       1.0  0.48817215615291326  0.03913767215155413  0.5076070818556317  1.0000
  N   N11       1.0  0.0391372411253599  0.4881721733687596  0.0076075174688128066  1.0000
  N   N12       1.0  0.5118266883783278  0.9608637843674966  0.49239281419264813  1.0000
  O   O1        1.0  0.5833617045596213  0.057886230135679374  0.125025402248923  1.0000
  O   O2        1.0  0.9421134520467332  0.41663784831384737  0.3749750684968943  1.0000
  O   O3        1.0  0.4166385435454742  0.9421146136919134  0.8749751313836711  1.0000
  O   O4        1.0  0.0578832973532641  0.5833632748736832  0.6250257825078549  1.0000
  O   O5        1.0  0.6507723427565538  0.11420091520771787  0.06002122438570716  1.0000
  O   O6        1.0  0.8857992533335307  0.349226824089591  0.43997958694912837  1.0000
  O   O7        1.0  0.3492279072856235  0.8857992992545649  0.9399793711000938  1.0000
  O   O8        1.0  0.11419960148819538  0.6507721175130002  0.5600212715625688  1.0000
  O   O9        1.0  0.41770615490607094  0.9019619157941038  0.038327845486698174  1.0000
  O   O10       1.0  0.0980372943789902  0.5822959102265203  0.46167165694240697  1.0000
  O   O11       1.0  0.5822940849065787  0.09803955103689073  0.9616708386661514  1.0000
  O   O12       1.0  0.9019629563292  0.41770367359808347  0.5383286428712779  1.0000
  O   O13       1.0  0.47659208175588924  0.9565674418382243  0.08717368477379489  1.0000
  O   O14       1.0  0.0434319139023742  0.5234097382458885  0.4128258246559183  1.0000
  O   O15       1.0  0.5234067705236923  0.04343149721960064  0.9128264586872845  1.0000
  O   O16       1.0  0.9565697307551914  0.4765911171660305  0.5871738546065541  1.0000
  O   O17       1.0  0.5966439934120942  0.9081172087127957  0.9975006941029106  1.0000
  O   O18       1.0  0.09188338308448608  0.4033580537890772  0.5024983611432886  1.0000
  O   O19       1.0  0.4033562496087129  0.09188363002527214  0.002498409428440588  1.0000
  O   O20       1.0  0.908115460780742  0.5966440333676599  0.4975018305771002  1.0000
  O   O21       1.0  0.6789524192491498  0.9267571397416603  0.04761222193457119  1.0000
  O   O22       1.0  0.0732455861048038  0.3210470923670101  0.45238738794532196  1.0000
  O   O23       1.0  0.3210485287667381  0.07324276455774742  0.9523876197674569  1.0000
  O   O24       1.0  0.9267546620002846  0.6789537514605823  0.5476131456872722  1.0000
  O   O25       1.0  0.39097524497228153  0.1567160657300803  0.1027824929136827  1.0000
  O   O26       1.0  0.8432845345340637  0.609024283542027  0.3972177234311971  1.0000
  O   O27       1.0  0.609024303282972  0.843284455077935  0.8972177837799505  1.0000
  O   O28       1.0  0.15671501245012107  0.3909762359936125  0.6027821957371273  1.0000
  O   O29       1.0  0.4747515702580856  0.24236863171761766  0.028174798917589793  1.0000
  O   O30       1.0  0.7576324870246012  0.525248168920953  0.471825704556231  1.0000
  O   O31       1.0  0.525248677847003  0.757632212109975  0.9718257347150043  1.0000
  O   O32       1.0  0.2423670599595837  0.4747523506146792  0.5281742146120932  1.0000
