data_image0
_chemical_formula_structural       Zn2H22C24N2O10
_chemical_formula_sum              "Zn2 H22 C24 N2 O10"
_cell_length_a       8.88753568784068
_cell_length_b       8.92939728495588
_cell_length_c       13.637396905461507
_cell_angle_alpha    72.99103403986989
_cell_angle_beta     72.54956793363642
_cell_angle_gamma    80.30895562840333

_space_group_name_H-M_alt    "P 1"
_space_group_IT_number       1

loop_
  _space_group_symop_operation_xyz
  'x, y, z'

loop_
  _atom_site_type_symbol
  _atom_site_label
  _atom_site_symmetry_multiplicity
  _atom_site_fract_x
  _atom_site_fract_y
  _atom_site_fract_z
  _atom_site_occupancy
  Zn  Zn1       1.0  0.4968549193717707  0.8485458149937342  0.850801511979256  1.0000
  Zn  Zn2       1.0  0.6195624137406172  0.8963919639172744  0.624422225210175  1.0000
  H   H1        1.0  0.13335448552373924  0.7374983033841999  0.38182880956548365  1.0000
  H   H2        1.0  0.9229456867190463  0.7496955501742875  0.5506836867216621  1.0000
  H   H3        1.0  0.4515571052607116  0.03532963668244089  0.01270034441973419  1.0000
  H   H4        1.0  0.24231414573927168  0.0707644145602657  0.17674246834563692  1.0000
  H   H5        1.0  0.021124398065161594  0.6849162077797075  0.16272438198206635  1.0000
  H   H6        1.0  0.2428011178851435  0.6634574528368659  0.9998259867400636  1.0000
  H   H7        1.0  0.9080865127214537  0.12010924943177059  0.1197530153476123  1.0000
  H   H8        1.0  0.7099729380288052  0.2847809035034743  0.2169180823151962  1.0000
  H   H9        1.0  0.496403524524922  0.022367444176737198  0.2661346607608338  1.0000
  H   H10       1.0  0.42341108085374657  0.20992475960016319  0.2904765654227149  1.0000
  H   H11       1.0  0.5802834959047658  0.17850932743106535  0.4147549515112773  1.0000
  H   H12       1.0  0.4849198386450979  0.006295662003090299  0.45314629216625957  1.0000
  H   H13       1.0  0.7423868582746564  0.0828864551195636  0.9895613420904041  1.0000
  H   H14       1.0  0.7778867601564484  0.8741338258448295  0.008353470265816976  1.0000
  H   H15       1.0  0.9360381196173505  0.9879057341242188  0.9923002357531702  1.0000
  H   H16       1.0  0.5672996621575095  0.4855312095701337  0.12338246302907412  1.0000
  H   H17       1.0  0.40382083404592345  0.37850432103443404  0.13992137051720732  1.0000
  H   H18       1.0  0.5260790531294788  0.45780456942146935  0.009334964989278731  1.0000
  H   H19       1.0  0.10022552549818185  0.9240303593959992  0.6174994248891394  1.0000
  H   H20       1.0  0.013299839606538903  0.8145486852022258  0.8623203869113497  1.0000
  H   H21       1.0  0.5226760043681509  0.3247832873550606  0.8602336855174075  1.0000
  H   H22       1.0  0.5996644308203755  0.4165738706776451  0.615457472639946  1.0000
  C   C1        1.0  0.7329663532434623  0.9807171571397718  0.3806739280079654  1.0000
  C   C2        1.0  0.8435964360573535  0.9799265404557362  0.28220873561117804  1.0000
  C   C3        1.0  0.9902613562765055  0.8911702485698072  0.2822668717366668  1.0000
  C   C4        1.0  0.021003890546644775  0.8074152336669371  0.3792903592621144  1.0000
  C   C5        1.0  0.9054475579998852  0.8132629001713381  0.4729860088867143  1.0000
  C   C6        1.0  0.35494265805512265  0.9593372026961051  0.04948409168625991  1.0000
  C   C7        1.0  0.23748935751302708  0.9789213887515302  0.14011220125949816  1.0000
  C   C8        1.0  0.11446288077073061  0.8797482582604628  0.18290379138574767  1.0000
  C   C9        1.0  0.11556864546797388  0.7632690414933805  0.13260250076936592  1.0000
  C   C10       1.0  0.23723942644461  0.7509756642696174  0.042604069191178054  1.0000
  C   C11       1.0  0.8033314847194362  0.0647799308368207  0.17795505292686195  1.0000
  C   C12       1.0  0.6666720768321994  0.19360599888168653  0.1937385931007114  1.0000
  C   C13       1.0  0.5276106799806185  0.12393576822243797  0.28390787651240873  1.0000
  C   C14       1.0  0.5746019926611793  0.07413627268677199  0.3884813622841321  1.0000
  C   C15       1.0  0.8078078462567219  0.9758809455320543  0.02594150428885201  1.0000
  C   C16       1.0  0.5260912579226228  0.4028302353551894  0.09250325746863552  1.0000
  C   C17       1.0  0.2796391380510812  0.8929422099139259  0.7059390357330884  1.0000
  C   C18       1.0  0.11722919422987134  0.8919883285378842  0.6972572517032063  1.0000
  C   C19       1.0  0.9958710771390713  0.8484413186229601  0.7826984751235176  1.0000
  C   C20       1.0  0.8336143356030092  0.8471436913382319  0.7738029668637625  1.0000
  C   C21       1.0  0.5622854198182097  0.5695726541611705  0.7678506577310245  1.0000
  C   C22       1.0  0.5530169138348667  0.40041581252688735  0.7794902706760923  1.0000
  C   C23       1.0  0.5718630875512362  0.3413893412432785  0.696381712539278  1.0000
  C   C24       1.0  0.5574156108794952  0.17263714602935923  0.7094835098429401  1.0000
  N   N1        1.0  0.7655434631593535  0.8984645606353538  0.4735243964284309  1.0000
  N   N2        1.0  0.35472164293771863  0.8473177304837307  0.001724439292509339  1.0000
  O   O1        1.0  0.7654245170501994  0.9458264426340572  0.13987619472337093  1.0000
  O   O2        1.0  0.6301875083764513  0.2623616790944751  0.09434070444443422  1.0000
  O   O3        1.0  0.3917269825250072  0.8892435186149185  0.6217047021578141  1.0000
  O   O4        1.0  0.2952272246254778  0.8958455463276918  0.794883237267172  1.0000
  O   O5        1.0  0.812772406112444  0.891957538461817  0.6809344611379872  1.0000
  O   O6        1.0  0.7270392825810602  0.8036261847134438  0.8607011067804964  1.0000
  O   O7        1.0  0.6343807476090078  0.6522821605654413  0.6781442441169504  1.0000
  O   O8        1.0  0.49311341016414906  0.6184010316922013  0.8512107887662882  1.0000
  O   O9        1.0  0.5770039473895423  0.13096623804734966  0.6242030414448864  1.0000
  O   O10       1.0  0.5288934216414988  0.08335039412385468  0.8037383553626328  1.0000
