data_image0
_chemical_formula_structural       Zn2H24C48N4O8
_chemical_formula_sum              "Zn2 H24 C48 N4 O8"
_cell_length_a       9.771923445095602
_cell_length_b       11.532250042283366
_cell_length_c       11.161718931760296
_cell_angle_alpha    110.21929696651964
_cell_angle_beta     114.24114864315132
_cell_angle_gamma    93.5184870586198

_space_group_name_H-M_alt    "P 1"
_space_group_IT_number       1

loop_
  _space_group_symop_operation_xyz
  'x, y, z'

loop_
  _atom_site_type_symbol
  _atom_site_label
  _atom_site_symmetry_multiplicity
  _atom_site_fract_x
  _atom_site_fract_y
  _atom_site_fract_z
  _atom_site_occupancy
  Zn  Zn1       1.0  0.6767339089359722  0.018496169172607303  0.7056029025976898  1.0000
  Zn  Zn2       1.0  0.32327864909882464  0.9815102042569136  0.29440257822901117  1.0000
  H   H1        1.0  0.06990037638446009  0.12386097648482061  0.583961870987963  1.0000
  H   H2        1.0  0.9301066763699594  0.8761345316980992  0.41602924726861795  1.0000
  H   H3        1.0  0.2312737801267915  0.2868440159503932  0.5756640087336605  1.0000
  H   H4        1.0  0.7687293143709508  0.7131611071160434  0.4243343336710124  1.0000
  H   H5        1.0  0.3673843604744462  0.4316704872760369  0.6029814767191937  1.0000
  H   H6        1.0  0.6326253338839222  0.5683470859362741  0.3970473628994072  1.0000
  H   H7        1.0  0.5255313942376105  0.5968420195482053  0.5928635008167334  1.0000
  H   H8        1.0  0.47447697411638495  0.40316686965194026  0.40715846125316085  1.0000
  H   H9        1.0  0.5641550590986951  0.24022984893355204  0.895428987333105  1.0000
  H   H10       1.0  0.43583123201970864  0.7597665503852797  0.10456271263245753  1.0000
  H   H11       1.0  0.5404583868035857  0.28294851107139607  0.12249187139032361  1.0000
  H   H12       1.0  0.4595162062059542  0.7170404514976807  0.8775015821332417  1.0000
  H   H13       1.0  0.6366450015828562  0.14607412918628876  0.25720994832434496  1.0000
  H   H14       1.0  0.36333870900246984  0.8539080703720076  0.7427771340387466  1.0000
  H   H15       1.0  0.7759721434111098  0.9726245916560499  0.2837632459117143  1.0000
  H   H16       1.0  0.22401870400657484  0.027363404440464496  0.7162281058758282  1.0000
  H   H17       1.0  0.8959807286616055  0.8053083444146054  0.18559294961677616  1.0000
  H   H18       1.0  0.10402011163984778  0.19468822510073372  0.8144018387019328  1.0000
  H   H19       1.0  0.9849392717936707  0.6980916082326657  0.0007856301688633252  1.0000
  H   H20       1.0  0.015064296837458436  0.3019022412490671  0.9992109652095564  1.0000
  H   H21       1.0  0.9965418424891368  0.6790062972401429  0.7736619058243904  1.0000
  H   H22       1.0  0.0034634297520029136  0.320994167679757  0.22633652797573942  1.0000
  H   H23       1.0  0.8809983999693997  0.8240723266536563  0.6562441029405619  1.0000
  H   H24       1.0  0.1190126318308842  0.1759329655757256  0.3437578253788161  1.0000
  C   C1        1.0  0.809324236726674  0.12116721509347879  0.5966204564941862  1.0000
  C   C2        1.0  0.19069272864611267  0.8788306431423081  0.40338189855236817  1.0000
  C   C3        1.0  0.8807968769143741  0.2139753420364342  0.5603110489075576  1.0000
  C   C4        1.0  0.11921105056568146  0.7860269866933153  0.43968708296822007  1.0000
  C   C5        1.0  0.025948948030681217  0.20544511161106271  0.570735774298413  1.0000
  C   C6        1.0  0.9740578286230602  0.7945533035689962  0.4292580003814807  1.0000
  C   C7        1.0  0.1170773295594643  0.29840144879115366  0.563545793184332  1.0000
  C   C8        1.0  0.8829257649382782  0.7016036742752901  0.43645254922033433  1.0000
  C   C9        1.0  0.06208653047342243  0.40098024103949115  0.5385466511386454  1.0000
  C   C10       1.0  0.9379240227986186  0.5990347972235098  0.4614654930838498  1.0000
  C   C11       1.0  0.15806292762063381  0.49915771538828574  0.5318708037238267  1.0000
  C   C12       1.0  0.8419503758029804  0.500857733781089  0.46815135918593853  1.0000
  C   C13       1.0  0.3132270479912478  0.5019875212125696  0.5684522853970932  1.0000
  C   C14       1.0  0.6867868813068297  0.49802604600184003  0.4315694677225538  1.0000
  C   C15       1.0  0.9063044177200723  0.40512142273524193  0.5113901526986027  1.0000
  C   C16       1.0  0.0937030050149659  0.594885993537062  0.4886184523296039  1.0000
  C   C17       1.0  0.8136063958735205  0.3111347072736166  0.523228946155285  1.0000
  C   C18       1.0  0.18639917648764032  0.6888667453646561  0.47677080841066305  1.0000
  C   C19       1.0  0.6557815746067417  0.3139787802552405  0.4864733963632374  1.0000
  C   C20       1.0  0.3442197666272193  0.6860196900492281  0.5135221817523572  1.0000
  C   C21       1.0  0.4035570631602354  0.594501734668178  0.5598718041361437  1.0000
  C   C22       1.0  0.5964552383983629  0.4055099129229306  0.44014877917986445  1.0000
  C   C23       1.0  0.5359488274967887  0.2138116451187955  0.4716172313462152  1.0000
  C   C24       1.0  0.46406298514919103  0.7861856525708789  0.5283715673974215  1.0000
  C   C25       1.0  0.609245060572441  0.1856721092037148  0.9598332480086853  1.0000
  C   C26       1.0  0.3907435338136622  0.8143243651072537  0.04016013783777334  1.0000
  C   C27       1.0  0.5962431511563577  0.2088849371132041  0.08658834381052559  1.0000
  C   C28       1.0  0.40373768052292286  0.7911076226145183  0.9134011824016071  1.0000
  C   C29       1.0  0.6509672056522007  0.1346336478531214  0.16221222301994223  1.0000
  C   C30       1.0  0.3490180573844128  0.8653542913963858  0.8377781546011674  1.0000
  C   C31       1.0  0.722788972234106  0.0392882030443502  0.11306209102482967  1.0000
  C   C32       1.0  0.2771985940702065  0.9606998111972869  0.8869299724771834  1.0000
  C   C33       1.0  0.7834802889850537  0.9585172229951907  0.18485929956364086  1.0000
  C   C34       1.0  0.21650930668371868  0.041474537011268395  0.8151328718041455  1.0000
  C   C35       1.0  0.8499843246635592  0.8666607007746164  0.13100040070538194  1.0000
  C   C36       1.0  0.15001313301955582  0.13333504846269054  0.8689974820314816  1.0000
  C   C37       1.0  0.8626468834359358  0.8488736051887855  0.0028488705165942534  1.0000
  C   C38       1.0  0.13735019883898048  0.15112497639806577  0.9971498169088235  1.0000
  C   C39       1.0  0.9341518650698716  0.7577007322389162  0.9449666924105173  1.0000
  C   C40       1.0  0.065848899943397  0.24229965734432568  0.05503022136256421  1.0000
  C   C41       1.0  0.9417204742470774  0.7477308853225823  0.8208218217577754  1.0000
  C   C42       1.0  0.05828109181871351  0.2522723927681696  0.17917720257800343  1.0000
  C   C43       1.0  0.8778463583308066  0.8284365801987261  0.7540489428477242  1.0000
  C   C44       1.0  0.1221624198555347  0.1715686743623337  0.24595222545813303  1.0000
  C   C45       1.0  0.8027369433683803  0.9269641583995777  0.9292305282030854  1.0000
  C   C46       1.0  0.197262841601784  0.07303556054538518  0.0707730176037984  1.0000
  C   C47       1.0  0.7314259690863736  0.023227198284210708  0.9847049044756773  1.0000
  C   C48       1.0  0.26855911935452775  0.9767644863855977  0.0152857468650609  1.0000
  N   N1        1.0  0.6739711002552654  0.09489165666663273  0.9099164403978223  1.0000
  N   N2        1.0  0.3260209738592721  0.905104948794424  0.09007993720367577  1.0000
  N   N3        1.0  0.8107703247056007  0.915172718314672  0.8070995154074794  1.0000
  N   N4        1.0  0.18923349277669388  0.08482983366886292  0.1929045033802552  1.0000
  O   O1        1.0  0.755064542807645  0.1690745282417865  0.6874123521530322  1.0000
  O   O2        1.0  0.2449433606530675  0.8309239057724367  0.3125818025336287  1.0000
  O   O3        1.0  0.8138643342270199  0.006552806596609203  0.5514189656821102  1.0000
  O   O4        1.0  0.18615245655004742  0.9934487970594786  0.4485836630840724  1.0000
  O   O5        1.0  0.44543469489944687  0.2447802525581579  0.52248786187495  1.0000
  O   O6        1.0  0.5545555032067851  0.7552142466605856  0.4775027165860308  1.0000
  O   O7        1.0  0.526902686664819  0.0981423562667487  0.38830229666779564  1.0000
  O   O8        1.0  0.4731110260087945  0.9018609423807646  0.611696278405482  1.0000
