data_image0
_chemical_formula_structural       Al2H14C24S2N2Cl2O10
_chemical_formula_sum              "Al2 H14 C24 S2 N2 Cl2 O10"
_cell_length_a       6.6389071838586355
_cell_length_b       12.591022065688868
_cell_length_c       16.3390474902651
_cell_angle_alpha    62.602882166862074
_cell_angle_beta     89.05072997979161
_cell_angle_gamma    76.25283910707712

_space_group_name_H-M_alt    "P 1"
_space_group_IT_number       1

loop_
  _space_group_symop_operation_xyz
  'x, y, z'

loop_
  _atom_site_type_symbol
  _atom_site_label
  _atom_site_symmetry_multiplicity
  _atom_site_fract_x
  _atom_site_fract_y
  _atom_site_fract_z
  _atom_site_occupancy
  Al  Al1       1.0  0.49987730563267246  0.5002673845563453  0.49984907659823097  1.0000
  Al  Al2       1.0  0.999956316342278  0.5001238835396223  0.49997435737350326  1.0000
  H   H1        1.0  0.18520534549182344  0.6584186295110328  0.41701241728678434  1.0000
  H   H2        1.0  0.814400032686322  0.34201866747277887  0.5828092741186808  1.0000
  H   H3        1.0  0.9817570978958728  0.3880748583573493  0.7638686455511277  1.0000
  H   H4        1.0  0.8878981101478443  0.4014196797835656  0.908890594640489  1.0000
  H   H5        1.0  0.36713240475412334  0.5881342135509443  0.8834419594251202  1.0000
  H   H6        1.0  0.6334106503009026  0.4113482251959014  0.1168099846755197  1.0000
  H   H7        1.0  0.11225752803051846  0.5983661601076095  0.09116963881967877  1.0000
  H   H8        1.0  0.018181193154376326  0.611924006984026  0.2360967028134695  1.0000
  H   H9        1.0  0.5698587891316224  0.6367034445340353  0.7641181826223685  1.0000
  H   H10       1.0  0.44164047478987084  0.6744707130626469  0.6556297123342816  1.0000
  H   H11       1.0  0.6331164411684255  0.5342216098623  0.7146062252524246  1.0000
  H   H12       1.0  0.36676586904729896  0.4655634976976658  0.28532922290145984  1.0000
  H   H13       1.0  0.5582688034403558  0.32533521943016563  0.3444945807632678  1.0000
  H   H14       1.0  0.43065958076258687  0.36297374705530683  0.23593636598187123  1.0000
  C   C1        1.0  0.6630803152448833  0.7058919255516615  0.48146204177543683  1.0000
  C   C2        1.0  0.7390493711990018  0.5290279542773179  0.3448409873307908  1.0000
  C   C3        1.0  0.33691819141217383  0.2944435599613087  0.5183350674424645  1.0000
  C   C4        1.0  0.2609606287208522  0.47115366795890157  0.6550553940599997  1.0000
  C   C5        1.0  0.2262503512368355  0.4799301380824872  0.7424536565401141  1.0000
  C   C6        1.0  0.06572671825893645  0.43099942916384065  0.7916564268768553  1.0000
  C   C7        1.0  0.012760754914466984  0.43850523321871304  0.871370200036985  1.0000
  C   C8        1.0  0.12249265784279116  0.4971215746283521  0.9035305972020069  1.0000
  C   C9        1.0  0.2845189808845206  0.5441355307889494  0.8559411358481556  1.0000
  C   C10       1.0  0.3391531711546493  0.5382690574917322  0.7747059806362842  1.0000
  C   C11       1.0  0.7158752070415915  0.4554738123419854  0.14426474555977356  1.0000
  C   C12       1.0  0.8779049283419696  0.5024537277400967  0.0966530293495751  1.0000
  C   C13       1.0  0.9874524706377346  0.5612290020426512  0.1287244426890695  1.0000
  C   C14       1.0  0.9343673103416138  0.5688736977423903  0.20837294063259998  1.0000
  C   C15       1.0  0.7738424267412682  0.5199976336608075  0.2575520559665421  1.0000
  C   C16       1.0  0.6610414766629946  0.4615143796416207  0.2254130312118789  1.0000
  C   C17       1.0  0.5928101361079356  0.08765664296200985  0.5458465928774601  1.0000
  C   C18       1.0  0.4067618521204825  0.9124567956258146  0.4542136517394937  1.0000
  C   C19       1.0  0.40305203730041933  0.17719743370875565  0.5143188928449831  1.0000
  C   C20       1.0  0.5966846255269902  0.8230174378525563  0.48562095863245947  1.0000
  C   C21       1.0  0.40528194688700137  0.009184294378584928  0.47603002861364985  1.0000
  C   C22       1.0  0.5941739262729442  0.9908175930524976  0.524162864806101  1.0000
  C   C23       1.0  0.5057903884752619  0.5986315687295447  0.7251349081019214  1.0000
  C   C24       1.0  0.4943626514755977  0.4011352084188645  0.2749245849789332  1.0000
  S   S1        1.0  0.2264198639781583  0.14336257725114623  0.45808268557210147  1.0000
  S   S2        1.0  0.7731629828417537  0.856776467679062  0.5419812110745851  1.0000
  N   N1        1.0  0.08210053096821199  0.5137834177593422  0.9826628185307554  1.0000
  N   N2        1.0  0.9183410937328559  0.4857259063766435  0.017564778111996325  1.0000
  Cl  Cl1       1.0  0.8018773440219392  0.08668731701043701  0.6060096929388764  1.0000
  Cl  Cl2       1.0  0.19775894763345298  0.9134540216920969  0.393987065429961  1.0000
  O   O1        1.0  0.5230946090701138  0.6649686321612549  0.46207942386791967  1.0000
  O   O2        1.0  0.8811488188342691  0.5574127518025663  0.3767541271141113  1.0000
  O   O3        1.0  0.14176492220315845  0.3470584966598126  0.5004275292112084  1.0000
  O   O4        1.0  0.4262038591291389  0.49200339796738735  0.6169911386999303  1.0000
  O   O5        1.0  0.4770680476876238  0.3355179175054418  0.5374112994338134  1.0000
  O   O6        1.0  0.11899266695817086  0.4426462992742729  0.6231760456384379  1.0000
  O   O7        1.0  0.8581899563772735  0.6531800148914046  0.4995889922798966  1.0000
  O   O8        1.0  0.5735130244945807  0.5085285071876129  0.3827476543913236  1.0000
  O   O9        1.0  0.22130116431216615  0.5687052681544671  0.45026182004124854  1.0000
  O   O10       1.0  0.7783943075885488  0.43172792343179384  0.5496120679263256  1.0000
