data_image0
_chemical_formula_structural       Mg6H18C42N6O18
_chemical_formula_sum              "Mg6 H18 C42 N6 O18"
_cell_length_a       6.8748363733246585
_cell_length_b       25.681655997951268
_cell_length_c       25.68195093541236
_cell_angle_alpha    119.21619422132017
_cell_angle_beta     95.1180026846972
_cell_angle_gamma    95.1088465047174

_space_group_name_H-M_alt    "P 1"
_space_group_IT_number       1

loop_
  _space_group_symop_operation_xyz
  'x, y, z'

loop_
  _atom_site_type_symbol
  _atom_site_label
  _atom_site_symmetry_multiplicity
  _atom_site_fract_x
  _atom_site_fract_y
  _atom_site_fract_z
  _atom_site_occupancy
  Mg  Mg1       1.0  0.8608336681943385  0.7044542319430037  0.37719474941472714  1.0000
  Mg  Mg2       1.0  0.4836137957443185  0.6228114537640721  0.32728143713598007  1.0000
  Mg  Mg3       1.0  0.15640341349268996  0.6727452740923496  0.2955591952045396  1.0000
  Mg  Mg4       1.0  0.13916706483979627  0.2955445815109742  0.6228035956477171  1.0000
  Mg  Mg5       1.0  0.5163842420827863  0.37718781121123607  0.6727170638082427  1.0000
  Mg  Mg6       1.0  0.8435929381616489  0.3272535395236673  0.7044394344856784  1.0000
  H   H1        1.0  0.20478044544607596  0.5416143131444286  0.41702813511697207  1.0000
  H   H2        1.0  0.7878712317722715  0.5829700552885767  0.12459535071798211  1.0000
  H   H3        1.0  0.663104248266038  0.8754044451894463  0.4583362476617627  1.0000
  H   H4        1.0  0.3202067540076925  0.4588634494487636  0.5042320636618385  1.0000
  H   H5        1.0  0.8158334716620959  0.4957766703442418  0.9546249509686008  1.0000
  H   H6        1.0  0.8613656015487053  0.04532153934912492  0.5411312496303751  1.0000
  H   H7        1.0  0.46006076901606013  0.39956955706470154  0.5484581608391182  1.0000
  H   H8        1.0  0.9115085516661878  0.45155986661193037  0.8511213479218754  1.0000
  H   H9        1.0  0.06052300860550729  0.14886067096804817  0.6004281149855188  1.0000
  H   H10       1.0  0.7952173660906753  0.45838450044355755  0.582971308246073  1.0000
  H   H11       1.0  0.21212815958929096  0.4170319181999814  0.8754041151399293  1.0000
  H   H12       1.0  0.3368952484534375  0.12459481980238248  0.5416646244674367  1.0000
  H   H13       1.0  0.6797911762339126  0.5411385241235109  0.4957685354134327  1.0000
  H   H14       1.0  0.18416906723970078  0.5042257544087648  0.04537286354791808  1.0000
  H   H15       1.0  0.13863580763388947  0.954678628389324  0.45886855133400684  1.0000
  H   H16       1.0  0.5399403077757442  0.600432867816565  0.45154234440691005  1.0000
  H   H17       1.0  0.08849409383106628  0.5484398495886609  0.14887592597574445  1.0000
  H   H18       1.0  0.939479861697045  0.8511394966866846  0.3995705527615032  1.0000
  C   C1        1.0  0.1114148436287793  0.605488305857648  0.3657330227142881  1.0000
  C   C2        1.0  0.7456227437310544  0.6342414965841029  0.23978006267144988  1.0000
  C   C3        1.0  0.5057898241074525  0.760234090834416  0.39447473468179345  1.0000
  C   C4        1.0  0.9857124313375466  0.589133813832632  0.4007525634659574  1.0000
  C   C5        1.0  0.5850845555737864  0.5991873157603679  0.18838078396059654  1.0000
  C   C6        1.0  0.396555933419755  0.811625137866912  0.4107895624061159  1.0000
  C   C7        1.0  0.05956824652071194  0.5550837642903518  0.42513190174916105  1.0000
  C   C8        1.0  0.6345711957127379  0.574852250806714  0.12995089912625712  1.0000
  C   C9        1.0  0.5044353236894282  0.8700480916191113  0.44484134544465115  1.0000
  C   C10       1.0  0.953382732144533  0.538366083065327  0.45974572111551043  1.0000
  C   C11       1.0  0.49380438152904566  0.5402307426110369  0.07861556320158783  1.0000
  C   C12       1.0  0.41499678338573887  0.9213856380394744  0.4615460616204389  1.0000
  C   C13       1.0  0.046612609980520955  0.46163363345358743  0.5402537144665729  1.0000
  C   C14       1.0  0.5061998430504957  0.4597721335235362  0.9213829013250106  1.0000
  C   C15       1.0  0.5850014780091116  0.07861407844566061  0.5384557800633729  1.0000
  C   C16       1.0  0.2372112116913173  0.4454097851802318  0.5310921773333419  1.0000
  C   C17       1.0  0.7059431589690561  0.4689486484367081  0.9143163543391426  1.0000
  C   C18       1.0  0.7918282463175003  0.085651268063863  0.554650229670294  1.0000
  C   C19       1.0  0.31383725585229166  0.41261241366677126  0.5552992327732724  1.0000
  C   C20       1.0  0.7584208730483513  0.4447471403512467  0.8573198483513238  1.0000
  C   C21       1.0  0.9012391302064485  0.14265486001180966  0.587421363771611  1.0000
  C   C22       1.0  0.20559160165375087  0.3933003682389468  0.5888801816790874  1.0000
  C   C23       1.0  0.6166147782086355  0.4111675065523387  0.8044254601165619  1.0000
  C   C24       1.0  0.8123110992892748  0.19554851527894365  0.6067309574954152  1.0000
  C   C25       1.0  0.014285380694218478  0.4108649997330857  0.5992461011410128  1.0000
  C   C26       1.0  0.4149148365303077  0.40081465769478086  0.8116175137632027  1.0000
  C   C27       1.0  0.6034435637947411  0.18837412710264803  0.5892105309670086  1.0000
  C   C28       1.0  0.940428105133627  0.44491504932566533  0.5748667279410569  1.0000
  C   C29       1.0  0.36543111689870517  0.42514972255897027  0.8700478578090909  1.0000
  C   C30       1.0  0.4955641730300471  0.12995117337271717  0.5551595266845482  1.0000
  C   C31       1.0  0.8885844285329157  0.39451050766890466  0.6342660661874788  1.0000
  C   C32       1.0  0.25437574494419124  0.3657586712438033  0.7602192790813901  1.0000
  C   C33       1.0  0.4942094483017456  0.23976472268099516  0.6055239648419359  1.0000
  C   C34       1.0  0.7627860416593037  0.5545908341409884  0.46890813397410375  1.0000
  C   C35       1.0  0.2940593801802508  0.5310537763051572  0.08568107079933915  1.0000
  C   C36       1.0  0.20817293657474067  0.9143484482872566  0.44535051371291007  1.0000
  C   C37       1.0  0.6861616836710952  0.587388657013733  0.444700949788178  1.0000
  C   C38       1.0  0.24157907748938362  0.5552530273595407  0.14267719205003718  1.0000
  C   C39       1.0  0.09876373935357932  0.857345307676333  0.4125784721095232  1.0000
  C   C40       1.0  0.7944066612261623  0.6066993481793688  0.4111193237365003  1.0000
  C   C41       1.0  0.3833853968868867  0.5888331126237247  0.19557336351223867  1.0000
  C   C42       1.0  0.187690868079443  0.8044498467262785  0.39326797552456594  1.0000
  N   N1        1.0  0.048461070149436146  0.5064116724242141  0.4834139718595126  1.0000
  N   N2        1.0  0.5650929845658652  0.5165843135376136  0.022985630032487  1.0000
  N   N3        1.0  0.5420273124239403  0.9769882775010289  0.49355155684777724  1.0000
  N   N4        1.0  0.951534046180278  0.4935875926851098  0.516585627385311  1.0000
  N   N5        1.0  0.4349112407562004  0.48341856256355004  0.9770116663599991  1.0000
  N   N6        1.0  0.45797533059821666  0.023011438810932806  0.5064496108302166  1.0000
  O   O1        1.0  0.27283966087392036  0.5847493594683755  0.35324074965348023  1.0000
  O   O2        1.0  0.9195619533337049  0.6467585066754323  0.2315689248015787  1.0000
  O   O3        1.0  0.6879258062315614  0.7684410095873915  0.41520855419755537  1.0000
  O   O4        1.0  0.05458913757917117  0.6424048693254534  0.348820105353461  1.0000
  O   O5        1.0  0.7056254372627749  0.6511705152025158  0.29359977437176354  1.0000
  O   O6        1.0  0.4120007072745225  0.7064141653641657  0.3576098296604188  1.0000
  O   O7        1.0  0.7138133918161033  0.6405817510633939  0.39126716711449216  1.0000
  O   O8        1.0  0.32261547158210396  0.6087336678689184  0.2493028081459699  1.0000
  O   O9        1.0  0.07315920146388072  0.7507241814868166  0.3594544651957535  1.0000
  O   O10       1.0  0.7271581506628308  0.4152494541196107  0.6467586937095717  1.0000
  O   O11       1.0  0.08043754462331522  0.35324075826071777  0.7684300004374406  1.0000
  O   O12       1.0  0.3120749268025733  0.23155780386658623  0.5847897908648818  1.0000
  O   O13       1.0  0.9454147415101417  0.3575943954597918  0.6511789246358077  1.0000
  O   O14       1.0  0.29437439283753264  0.3488264926019441  0.7063988359636397  1.0000
  O   O15       1.0  0.5880002518024626  0.2935850994882685  0.6423879623612336  1.0000
  O   O16       1.0  0.28618487155882383  0.35941796533264647  0.6087315595450207  1.0000
  O   O17       1.0  0.6773811053725539  0.3912655971789648  0.7506964366375756  1.0000
  O   O18       1.0  0.9268390614160325  0.24927553493149904  0.640545040219834  1.0000
