data_image0
_chemical_formula_structural       Zn4H36C52N4O16
_chemical_formula_sum              "Zn4 H36 C52 N4 O16"
_cell_length_a       7.328967017204937
_cell_length_b       10.280421709115167
_cell_length_c       16.786532830010966
_cell_angle_alpha    90.00008968861412
_cell_angle_beta     90.00006816516061
_cell_angle_gamma    105.52021944742384

_space_group_name_H-M_alt    "P 1"
_space_group_IT_number       1

loop_
  _space_group_symop_operation_xyz
  'x, y, z'

loop_
  _atom_site_type_symbol
  _atom_site_label
  _atom_site_symmetry_multiplicity
  _atom_site_fract_x
  _atom_site_fract_y
  _atom_site_fract_z
  _atom_site_occupancy
  Zn  Zn1       1.0  0.31802613235922184  0.8969970292830494  0.49255130325192176  1.0000
  Zn  Zn2       1.0  0.18198115196390321  0.6030025123649948  0.9925519359336475  1.0000
  Zn  Zn3       1.0  0.68197310449343  0.10299888539061897  0.507449863812404  1.0000
  Zn  Zn4       1.0  0.8180281305843734  0.39699849678994775  0.007450422566996897  1.0000
  H   H1        1.0  0.959860366907449  0.8581176989948172  0.654701075717149  1.0000
  H   H2        1.0  0.5401568124219196  0.6418766552657402  0.15469826654888405  1.0000
  H   H3        1.0  0.0401240915225571  0.14187510890415206  0.3453018784887475  1.0000
  H   H4        1.0  0.459868984212669  0.35812847798952413  0.8452993262329753  1.0000
  H   H5        1.0  0.058104055954849736  0.7465128676483059  0.7726649933326114  1.0000
  H   H6        1.0  0.44190051351683485  0.753480899518891  0.27266011687179054  1.0000
  H   H7        1.0  0.9418830312083484  0.2534759257095586  0.22733498229388965  1.0000
  H   H8        1.0  0.5581129770037023  0.24652416329230684  0.7273344973286837  1.0000
  H   H9        1.0  0.4734071020564913  0.5728255644846526  0.8342673751823566  1.0000
  H   H10       1.0  0.02659071891996228  0.9271754180967307  0.334270194734536  1.0000
  H   H11       1.0  0.5265807217551738  0.427165247881156  0.16573260044529547  1.0000
  H   H12       1.0  0.9734160913126289  0.07282255472168228  0.6657333551952717  1.0000
  H   H13       1.0  0.37424529771254095  0.6846378059422091  0.7160952934774938  1.0000
  H   H14       1.0  0.12576793737525085  0.8153689212485913  0.21609865265092046  1.0000
  H   H15       1.0  0.6257411587596877  0.3153529986019591  0.2839076607279622  1.0000
  H   H16       1.0  0.8742544938859567  0.18463820754672608  0.7839060887185948  1.0000
  H   H17       1.0  0.903763511007341  0.8251819478223651  0.520075269855077  1.0000
  H   H18       1.0  0.5962504544928748  0.6748270569687447  0.0200772871654422  1.0000
  H   H19       1.0  0.09624524679328057  0.17482510270132678  0.4799258972170788  1.0000
  H   H20       1.0  0.4037571983350502  0.3251769650430204  0.9799238799049658  1.0000
  H   H21       1.0  0.6199710561351353  0.6365979388611719  0.48649104121398773  1.0000
  H   H22       1.0  0.8800341911680505  0.8634135548055751  0.9864914312252391  1.0000
  H   H23       1.0  0.3800252391386678  0.3634160921000386  0.5135113172895556  1.0000
  H   H24       1.0  0.11996799227375017  0.13659043589596104  0.013507352981214596  1.0000
  H   H25       1.0  0.6662536036853979  0.44129598293651634  0.4042005891771792  1.0000
  H   H26       1.0  0.8337418454998938  0.05870871314604639  0.9041964922181049  1.0000
  H   H27       1.0  0.3337285438590953  0.5587129300656598  0.5958017693202391  1.0000
  H   H28       1.0  0.1662547626041827  0.9412912160559369  0.09579990912242657  1.0000
  H   H29       1.0  0.9935657446200565  0.44975475846903373  0.35674299232437073  1.0000
  H   H30       1.0  0.5064265695071128  0.05024170468592359  0.8567393132672618  1.0000
  H   H31       1.0  0.0064104592553916795  0.5502490835237024  0.6432534090127574  1.0000
  H   H32       1.0  0.49356746032495374  0.9497511579862489  0.14325589663793886  1.0000
  H   H33       1.0  0.2625526863300108  0.6471524640120945  0.39675830812330287  1.0000
  H   H34       1.0  0.23744653825073678  0.8528406726112437  0.8967592097786434  1.0000
  H   H35       1.0  0.7374326146811327  0.352846393068411  0.6032351146356233  1.0000
  H   H36       1.0  0.7625508569771923  0.14715019453958425  0.10324017013588357  1.0000
  C   C1        1.0  0.6603788774518902  0.7776282066384821  0.6778206830438193  1.0000
  C   C2        1.0  0.8396373442053999  0.7223783068020637  0.17782048938184397  1.0000
  C   C3        1.0  0.3396076849743038  0.22236662809699237  0.3221834625948644  1.0000
  C   C4        1.0  0.16038319495452671  0.2776348555285324  0.822178890549402  1.0000
  C   C5        1.0  0.8534414624540078  0.794758957989103  0.6936483099249172  1.0000
  C   C6        1.0  0.646570245741607  0.7052425446009705  0.19364561684382403  1.0000
  C   C7        1.0  0.1465492020034986  0.20523590022214214  0.30635345285232046  1.0000
  C   C8        1.0  0.3534453487751108  0.29476454504671773  0.8063501887894373  1.0000
  C   C9        1.0  0.9085008140442951  0.7324746511843968  0.7594313842567002  1.0000
  C   C10       1.0  0.5915080523774136  0.7675260437307471  0.25942931823323784  1.0000
  C   C11       1.0  0.09148911376355069  0.2675181880179095  0.24056978280373892  1.0000
  C   C12       1.0  0.40850754214167756  0.23248104591890953  0.7405676788312899  1.0000
  C   C13       1.0  0.7720477393982889  0.6520127165783407  0.8101678147983761  1.0000
  C   C14       1.0  0.7279548601049299  0.8479891164426262  0.3101647054416644  1.0000
  C   C15       1.0  0.22794245078338804  0.34797710193959824  0.18983394797631087  1.0000
  C   C16       1.0  0.2720572630785441  0.15201593854889237  0.6898340787678803  1.0000
  C   C17       1.0  0.5791231310809123  0.6336819388314223  0.7940560310200764  1.0000
  C   C18       1.0  0.9208817708124781  0.8663188470786878  0.29405661359253077  1.0000
  C   C19       1.0  0.42086469273666444  0.36630887353931735  0.20594692318573485  1.0000
  C   C20       1.0  0.0791337177656644  0.13368421239049869  0.7059457449107069  1.0000
  C   C21       1.0  0.5239085272589036  0.6962101539766791  0.7281704936767424  1.0000
  C   C22       1.0  0.9761047913356579  0.8037955007662204  0.2281710447565714  1.0000
  C   C23       1.0  0.47607829753993497  0.303781660073433  0.2718336519605558  1.0000
  C   C24       1.0  0.02391427453441958  0.19621362355437805  0.7718319094661366  1.0000
  C   C25       1.0  0.6023827365742561  0.8498517899576613  0.6087260295353828  1.0000
  C   C26       1.0  0.8976327364151119  0.6501494553591698  0.10872520077787577  1.0000
  C   C27       1.0  0.3976040882210299  0.15014002408949514  0.39127632895502257  1.0000
  C   C28       1.0  0.10239043148155247  0.34985969243327014  0.8912729877208674  1.0000
  C   C29       1.0  0.8344374368029294  0.5900171905652838  0.8823756842511725  1.0000
  C   C30       1.0  0.6655591374741973  0.9099788006748849  0.38237319787118185  1.0000
  C   C31       1.0  0.1655459166531941  0.40997258882077137  0.11762667423735708  1.0000
  C   C32       1.0  0.33444767275011594  0.0900191721366355  0.617626182049207  1.0000
  C   C33       1.0  0.9165804554781616  0.7386514585535905  0.4852103785483663  1.0000
  C   C34       1.0  0.5834280461794277  0.761354005165188  0.9852128995372947  1.0000
  C   C35       1.0  0.0834210972679372  0.26135454333031294  0.5147890013745239  1.0000
  C   C36       1.0  0.4165775026546682  0.2386479900120476  0.014788267531599794  1.0000
  C   C37       1.0  0.7595322717009336  0.6332654119531113  0.4658280834027833  1.0000
  C   C38       1.0  0.7404714202478007  0.8667419753851534  0.9658284042684498  1.0000
  C   C39       1.0  0.2404649166376629  0.36674358713742083  0.5341718922360454  1.0000
  C   C40       1.0  0.2595286592001784  0.13325998848186055  0.034170379936483586  1.0000
  C   C41       1.0  0.784977045815758  0.5270098436056331  0.41935090108804457  1.0000
  C   C42       1.0  0.7150249882622147  0.9729933520597026  0.9193501194927831  1.0000
  C   C43       1.0  0.21501120179991048  0.4729970895155443  0.5806478831162066  1.0000
  C   C44       1.0  0.28497535355722187  0.027005591120968096  0.08064806899513138  1.0000
  C   C45       1.0  0.9670243415250965  0.5304574853873304  0.39324252096403695  1.0000
  C   C46       1.0  0.5329733808814582  0.9695415702925914  0.8932410459633713  1.0000
  C   C47       1.0  0.03295770005597377  0.4695473974156739  0.6067538803750948  1.0000
  C   C48       1.0  0.4670244886163815  0.030454336546625896  0.10675535537555447  1.0000
  C   C49       1.0  0.11726587159158439  0.638666692103129  0.4153225526002797  1.0000
  C   C50       1.0  0.3827335326638135  0.8613305360837202  0.9153235377320638  1.0000
  C   C51       1.0  0.882722900761088  0.36133419964043867  0.5846720615917886  1.0000
  C   C52       1.0  0.6172657041852788  0.13866537858698538  0.08467584218537637  1.0000
  N   N1        1.0  0.09240459930423124  0.7406089082052459  0.4608823309206399  1.0000
  N   N2        1.0  0.4076001928905199  0.7593915225973118  0.960884422358589  1.0000
  N   N3        1.0  0.9075917464283877  0.2593940416830804  0.5391146661369035  1.0000
  N   N4        1.0  0.5924011479559468  0.240606418910879  0.03911674470726469  1.0000
  O   O1        1.0  0.4370770239140853  0.8012668103927323  0.5799838755592075  1.0000
  O   O2        1.0  0.06294003504868326  0.6987364696001065  0.07998530287659379  1.0000
  O   O3        1.0  0.5629086959061311  0.19872197514052908  0.42001729149819045  1.0000
  O   O4        1.0  0.9370920735756343  0.30127474416562444  0.9200164599192461  1.0000
  O   O5        1.0  0.7243964779086838  0.9549244012526683  0.5838031568124009  1.0000
  O   O6        1.0  0.7756183713605935  0.5450828030387171  0.08380216378093758  1.0000
  O   O7        1.0  0.2755835101586754  0.045067373660650396  0.41619860596058084  1.0000
  O   O8        1.0  0.22440947879598375  0.45493543811312503  0.9161942375764907  1.0000
  O   O9        1.0  0.002665559357524139  0.6436549664915246  0.9064626602760695  1.0000
  O   O10       1.0  0.497331443335348  0.8563432262455704  0.4064579114506157  1.0000
  O   O11       1.0  0.9973240001343698  0.35633686321369845  0.09354267679320567  1.0000
  O   O12       1.0  0.5026716331747849  0.14365573258824327  0.5935402770380234  1.0000
  O   O13       1.0  0.7169337592244247  0.48973639589732426  0.9147598987271903  1.0000
  O   O14       1.0  0.783060783349967  0.010258255714127492  0.4147594717974669  1.0000
  O   O15       1.0  0.28305879732371847  0.5102524287697746  0.08524186404763157  1.0000
  O   O16       1.0  0.2169411881945606  0.989737674613664  0.5852422909832169  1.0000
