data_image0
_chemical_formula_structural       Zn4P4H16C16O12
_chemical_formula_sum              "Zn4 P4 H16 C16 O12"
_cell_length_a       5.145167407000022
_cell_length_b       10.588509946725786
_cell_length_c       10.875143351796682
_cell_angle_alpha    93.58912449328264
_cell_angle_beta     90.00000029916256
_cell_angle_gamma    90.00001066781677

_space_group_name_H-M_alt    "P 1"
_space_group_IT_number       1

loop_
  _space_group_symop_operation_xyz
  'x, y, z'

loop_
  _atom_site_type_symbol
  _atom_site_label
  _atom_site_symmetry_multiplicity
  _atom_site_fract_x
  _atom_site_fract_y
  _atom_site_fract_z
  _atom_site_occupancy
  Zn  Zn1       1.0  0.7060471210856676  0.646162617150253  0.001236112088030001  1.0000
  Zn  Zn2       1.0  0.20604788657445275  0.8538376533630867  0.998764351208834  1.0000
  Zn  Zn3       1.0  0.29395357996066446  0.3538381195133766  0.9987645885336747  1.0000
  Zn  Zn4       1.0  0.7939528144716943  0.1461621354521014  0.0012353736429346986  1.0000
  P   P1        1.0  0.20906620120384636  0.5881654626227187  0.8442804966534325  1.0000
  P   P2        1.0  0.7090674826627604  0.9118338603176214  0.15571899089705  1.0000
  P   P3        1.0  0.7909325562711231  0.41183527246701584  0.1557192843455084  1.0000
  P   P4        1.0  0.29093127481185377  0.08816498379665208  0.844281597430289  1.0000
  H   H1        1.0  0.2723547432159634  0.738949649468111  0.695133505465904  1.0000
  H   H2        1.0  0.7723540252852101  0.7610496808194398  0.3048669022012191  1.0000
  H   H3        1.0  0.7276440142586509  0.2610491946461551  0.3048670828614419  1.0000
  H   H4        1.0  0.22764473218958867  0.2389501095694726  0.6951337422732989  1.0000
  H   H5        1.0  0.5109883546872425  0.6171514846892026  0.6849503280041489  1.0000
  H   H6        1.0  0.010987179450964397  0.8828478217551845  0.3150500776233685  1.0000
  H   H7        1.0  0.48901234635890495  0.3828483041259859  0.3150493968476198  1.0000
  H   H8        1.0  0.9890135215953675  0.11715291490845199  0.6849506229983362  1.0000
  H   H9        1.0  0.8693673828932446  0.717610445509301  0.5729078527201921  1.0000
  H   H10       1.0  0.3693661706211131  0.7823888936282017  0.42709255570397187  1.0000
  H   H11       1.0  0.1306333181527251  0.2823883986050646  0.42709273560715394  1.0000
  H   H12       1.0  0.6306345304250343  0.21761089518698637  0.572907169147797  1.0000
  H   H13       1.0  0.39013510235312754  0.40157271533992406  0.5873526117385666  1.0000
  H   H14       1.0  0.8901362671534017  0.0984275468259952  0.41264643156584674  1.0000
  H   H15       1.0  0.6098655986930197  0.598427073475264  0.41264711311320207  1.0000
  H   H16       1.0  0.1098644338927457  0.901572241989193  0.587353293285915  1.0000
  C   C1        1.0  0.3012478553337061  0.6360054547227065  0.6934923882413813  1.0000
  C   C2        1.0  0.8012471767585082  0.8639948244752489  0.3065080757983907  1.0000
  C   C3        1.0  0.6987528457124482  0.363994335666284  0.3065082562331511  1.0000
  C   C4        1.0  0.1987535242878166  0.13600591061457826  0.6934917052005574  1.0000
  C   C5        1.0  0.14854338366430395  0.5674477556345963  0.5920619894431384  1.0000
  C   C6        1.0  0.6485427325076784  0.932552509632906  0.40793847340498246  1.0000
  C   C7        1.0  0.8514573173818575  0.4325520363282038  0.40793957465415087  1.0000
  C   C8        1.0  0.3514579685386536  0.0674482254569213  0.5920613075939656  1.0000
  C   C9        1.0  0.9284752565670473  0.6220960710763632  0.5411065654598559  1.0000
  C   C10       1.0  0.4284760247461107  0.8779032718795321  0.45889292380280716  1.0000
  C   C11       1.0  0.07152350090756698  0.3779027730379028  0.4588940228674829  1.0000
  C   C12       1.0  0.5715246763002214  0.12209746321029509  0.5411068571961337  1.0000
  C   C13       1.0  0.21772866951216222  0.4444698409964047  0.5493420679820673  1.0000
  C   C14       1.0  0.7177278748078635  0.05553040701546049  0.45065789359970415  1.0000
  C   C15       1.0  0.7822720315339922  0.5555299493925929  0.450658576492458  1.0000
  C   C16       1.0  0.28227088266692846  0.9444693817996425  0.5493418312520504  1.0000
  O   O1        1.0  0.34737658836240826  0.6827984568899339  0.9421372132427095  1.0000
  O   O2        1.0  0.8473778324819319  0.8171989876922937  0.057863082715492516  1.0000
  O   O3        1.0  0.6526241126833695  0.31719943937598316  0.057862399314693405  1.0000
  O   O4        1.0  0.15262286856421528  0.182800802696697  0.9421375617590328  1.0000
  O   O5        1.0  0.3161472396802623  0.45455040508367983  0.857834496373286  1.0000
  O   O6        1.0  0.8161483809779142  0.04544890405806969  0.1421644902065751  1.0000
  O   O7        1.0  0.6838554049372404  0.5454493837316008  0.1421652284784827  1.0000
  O   O8        1.0  0.1838523200682474  0.9545508879047305  0.8578370738907141  1.0000
  O   O9        1.0  0.9140714471948854  0.6014185088119818  0.8574860304453794  1.0000
  O   O10       1.0  0.4140722194625539  0.8985808328299355  0.1425134587048831  1.0000
  O   O11       1.0  0.08592925385107719  0.3985803337285745  0.14251363825920288  1.0000
  O   O12       1.0  0.5859284815836003  0.10141895755906209  0.8574871857696423  1.0000
