data_image0
_chemical_formula_structural       Zn6H12C20N40O4
_chemical_formula_sum              "Zn6 H12 C20 N40 O4"
_cell_length_a       9.6711119563875
_cell_length_b       11.265707424851868
_cell_length_c       12.697761312231297
_cell_angle_alpha    91.0262978429651
_cell_angle_beta     112.38330317375788
_cell_angle_gamma    115.41047563303968

_space_group_name_H-M_alt    "P 1"
_space_group_IT_number       1

loop_
  _space_group_symop_operation_xyz
  'x, y, z'

loop_
  _atom_site_type_symbol
  _atom_site_label
  _atom_site_symmetry_multiplicity
  _atom_site_fract_x
  _atom_site_fract_y
  _atom_site_fract_z
  _atom_site_occupancy
  Zn  Zn1       1.0  0.263274160380412  0.7985825143833905  0.4347647021319644  1.0000
  Zn  Zn2       1.0  0.529949615127947  0.7015510434284168  0.0650832404979056  1.0000
  Zn  Zn3       1.0  0.7367237348312301  0.20141324158488774  0.5652329114394091  1.0000
  Zn  Zn4       1.0  0.4700496235277353  0.29844969338719096  0.934918223394227  1.0000
  Zn  Zn5       1.0  0.13367984010477574  0.25007142251614317  0.24997472163579448  1.0000
  Zn  Zn6       1.0  0.8663188973037846  0.7499283687141087  0.7500232299563335  1.0000
  H   H1        1.0  0.8136668322211805  0.5994278690212057  0.27857242648528296  1.0000
  H   H2        1.0  0.4355378781402734  0.9006504588329277  0.22106694330135912  1.0000
  H   H3        1.0  0.1863220072954873  0.4005728336674181  0.7214309299334329  1.0000
  H   H4        1.0  0.5644663925810461  0.0993493116566029  0.7789321108042342  1.0000
  H   H5        1.0  0.28085002338712395  0.8143914332294881  0.6539570169831419  1.0000
  H   H6        1.0  0.31230161103628945  0.685567895780615  0.8458757807596552  1.0000
  H   H7        1.0  0.7191527712029426  0.18561129338326765  0.34604611273841357  1.0000
  H   H8        1.0  0.6876895073143247  0.31442584737254015  0.1541214281993675  1.0000
  H   H9        1.0  0.08913767808711968  0.7640401556491199  0.5696086888442123  1.0000
  H   H10       1.0  0.2554346503087782  0.7358881842615901  0.9303290901471112  1.0000
  H   H11       1.0  0.910859179309874  0.23596058424373478  0.43039261774627846  1.0000
  H   H12       1.0  0.7445661643739357  0.26411254372229104  0.06967284635093302  1.0000
  C   C1        1.0  0.8663441726380581  0.7041623497053989  0.2719748051104317  1.0000
  C   C2        1.0  0.390427212324127  0.7960379231586999  0.22797981855714497  1.0000
  C   C3        1.0  0.13365315498285896  0.2958364291627902  0.7280232591293011  1.0000
  C   C4        1.0  0.6095750810188181  0.20396385786869337  0.772019798864406  1.0000
  C   C5        1.0  0.04644285011653422  0.9144509381709651  0.3026533280379694  1.0000
  C   C6        1.0  0.3294054372939783  0.5857071103815557  0.1972163166839635  1.0000
  C   C7        1.0  0.9535581627128805  0.08554477979311063  0.6973463339596787  1.0000
  C   C8        1.0  0.6705977956126928  0.4142976440325442  0.80278643044074  1.0000
  C   C9        1.0  0.8872989879734092  0.8922801831785138  0.22211070053679546  1.0000
  C   C10       1.0  0.27304336117641254  0.6079350895903984  0.2778018493628095  1.0000
  C   C11       1.0  0.11270250013787107  0.1077215920943786  0.7778892321890181  1.0000
  C   C12       1.0  0.7269514474406478  0.3920636109921105  0.7222004704330657  1.0000
  C   C13       1.0  0.2123914175148371  0.028266308023702908  0.35017056560902654  1.0000
  C   C14       1.0  0.33421033658493116  0.47192005731975684  0.14985729084533964  1.0000
  C   C15       1.0  0.7876086893030134  0.9717333523304247  0.6498344778756857  1.0000
  C   C16       1.0  0.66579289632174  0.528084697094343  0.8501454562793638  1.0000
  C   C17       1.0  0.8257538991762914  0.971753723651716  0.15001188352448472  1.0000
  C   C18       1.0  0.20418772331134238  0.5284675193598218  0.34993696381177114  1.0000
  C   C19       1.0  0.17424913052573007  0.028248022448707406  0.8499896250216918  1.0000
  C   C20       1.0  0.7958116815837215  0.47153219626199666  0.650065085333871  1.0000
  N   N1        1.0  0.03136881749305311  0.7941470238573274  0.3330630340867556  1.0000
  N   N2        1.0  0.40423814607073877  0.7059880074258302  0.16682821893022035  1.0000
  N   N3        1.0  0.968630722618201  0.20584876396067386  0.666932845661634  1.0000
  N   N4        1.0  0.5957655226235659  0.29401476562288303  0.8331723890581768  1.0000
  N   N5        1.0  0.7745518424604539  0.7584083448882096  0.20373134598753492  1.0000
  N   N6        1.0  0.3126758527737222  0.7418474463108637  0.2962505039085314  1.0000
  N   N7        1.0  0.22545025020681903  0.2415944369922443  0.7962687893949434  1.0000
  N   N8        1.0  0.6873281828356355  0.2581533046909925  0.7037501713724409  1.0000
  N   N9        1.0  0.9011784854832855  0.10386508993690309  0.1509973989468348  1.0000
  N   N10       1.0  0.14655745180441912  0.39637437870589304  0.34906661782283505  1.0000
  N   N11       1.0  0.0988196129329989  0.8961336743450589  0.8490014532030724  1.0000
  N   N12       1.0  0.8534452713840893  0.6036242980586622  0.6509369617881474  1.0000
  N   N13       1.0  0.7878836122610055  0.12263427324293023  0.057691359674357956  1.0000
  N   N14       1.0  0.10773776939841172  0.3776985280902991  0.442361264437558  1.0000
  N   N15       1.0  0.21211344328268888  0.877361456630126  0.9423076724157295  1.0000
  N   N16       1.0  0.8922635155082261  0.6223002388689096  0.5576374297097216  1.0000
  N   N17       1.0  0.6512993118891828  0.007144582310530703  0.00405895010549521  1.0000
  N   N18       1.0  0.1402147477132657  0.49323414041454333  0.49589461760005077  1.0000
  N   N19       1.0  0.34870307629159225  0.9928521276748659  0.9959417024589994  1.0000
  N   N20       1.0  0.8597843221740574  0.5067636084281161  0.5041045044991035  1.0000
  N   N21       1.0  0.669957172568978  0.9115357875538664  0.060324926640816984  1.0000
  N   N22       1.0  0.19820919509921  0.5887502126188622  0.43955722987382  1.0000
  N   N23       1.0  0.3300444448164299  0.0884609370177643  0.9396749380134962  1.0000
  N   N24       1.0  0.8017916540197944  0.4112505357057402  0.5604436034097801  1.0000
  N   N25       1.0  0.34980271069260016  0.015223668604242804  0.4143029676190577  1.0000
  N   N26       1.0  0.42049744551553647  0.4848328641582851  0.08572917964808364  1.0000
  N   N27       1.0  0.6502020982411024  0.9847810769781232  0.5857002521115573  1.0000
  N   N28       1.0  0.579502062688398  0.5151669124857251  0.9142695598542258  1.0000
  N   N29       1.0  0.481948177752777  0.1385072328447308  0.44073561100446296  1.0000
  N   N30       1.0  0.40268896657271813  0.3614451286048065  0.059280532987372674  1.0000
  N   N31       1.0  0.5180531785554121  0.8614955839626858  0.5592626332533965  1.0000
  N   N32       1.0  0.5973066187817864  0.6385546802889195  0.9407164733929319  1.0000
  N   N33       1.0  0.43080304765199884  0.2244064767075571  0.3964502083254756  1.0000
  N   N34       1.0  0.309952737565368  0.27567156756452255  0.10363005920235928  1.0000
  N   N35       1.0  0.5691971339805093  0.7755943472254787  0.603546527404603  1.0000
  N   N36       1.0  0.690046569962895  0.7243292099325488  0.8963691982608848  1.0000
  N   N37       1.0  0.2604204457567363  0.1570908432040028  0.33918914782213955  1.0000
  N   N38       1.0  0.26438028967828586  0.3431557349638296  0.16094865101749883  1.0000
  N   N39       1.0  0.7395780221035723  0.8429099081978393  0.6608115281598116  1.0000
  N   N40       1.0  0.7356233790160189  0.6568470380848836  0.8390519569708983  1.0000
  O   O1        1.0  0.20754990522072347  0.8323466050712299  0.586387717698372  1.0000
  O   O2        1.0  0.28873800805354216  0.667561515956848  0.9134884294067687  1.0000
  O   O3        1.0  0.7924488951183478  0.1676521039430341  0.41361412879060566  1.0000
  O   O4        1.0  0.7112578409071374  0.33243620986782924  0.0865119539094579  1.0000
