data_image0
_chemical_formula_structural       Cd4H76C124N36O16
_chemical_formula_sum              "Cd4 H76 C124 N36 O16"
_cell_length_a       12.161234217250867
_cell_length_b       16.24134464261194
_cell_length_c       22.085602033050538
_cell_angle_alpha    90.00022839730205
_cell_angle_beta     90.00001629284607
_cell_angle_gamma    106.59196570155498

_space_group_name_H-M_alt    "P 1"
_space_group_IT_number       1

loop_
  _space_group_symop_operation_xyz
  'x, y, z'

loop_
  _atom_site_type_symbol
  _atom_site_label
  _atom_site_symmetry_multiplicity
  _atom_site_fract_x
  _atom_site_fract_y
  _atom_site_fract_z
  _atom_site_occupancy
  Cd  Cd1       1.0  0.9147929653335398  0.6323932524251673  0.1398572662547792  1.0000
  Cd  Cd2       1.0  0.08520713117365374  0.8676055619158018  0.1398579972563283  1.0000
  Cd  Cd3       1.0  0.08520672920680987  0.3676060205114026  0.8601423655404546  1.0000
  Cd  Cd4       1.0  0.9147933855054762  0.13239371063721705  0.8601425401063166  1.0000
  H   H1        1.0  0.07619801680885982  0.5795543103050845  0.8250265831775251  1.0000
  H   H2        1.0  0.9238013922587812  0.9204460852213713  0.8250271458564384  1.0000
  H   H3        1.0  0.923802745371603  0.42044560470812087  0.1749730486187318  1.0000
  H   H4        1.0  0.07619748014471381  0.07955318810286369  0.174972938722405  1.0000
  H   H5        1.0  0.9956258416487247  0.5186622738765152  0.4522737658528868  1.0000
  H   H6        1.0  0.0043735802688259955  0.9813365058583868  0.45227481573477485  1.0000
  H   H7        1.0  0.004372785250872356  0.481336356982048  0.5477254131576501  1.0000
  H   H8        1.0  0.9956269364103107  0.018662766694639298  0.5477257216278701  1.0000
  H   H9        1.0  0.4895514309165706  0.5770363963639439  0.1448712789006592  1.0000
  H   H10       1.0  0.5104489252748295  0.9229630907968556  0.1448672567717111  1.0000
  H   H11       1.0  0.5104495767671439  0.4229641611135547  0.8551288056802235  1.0000
  H   H12       1.0  0.48955208240759884  0.0770374666779077  0.8551319222418244  1.0000
  H   H13       1.0  0.2756225317264622  0.5488859597284516  0.1450935380221168  1.0000
  H   H14       1.0  0.7243775795927122  0.9511128863188032  0.1450905367831368  1.0000
  H   H15       1.0  0.7243784759578986  0.4511145977504255  0.8549069993424396  1.0000
  H   H16       1.0  0.27562367359105633  0.048888313616139094  0.8549077366640105  1.0000
  H   H17       1.0  0.3178458708036728  0.821537142906102  0.1447149586782146  1.0000
  H   H18       1.0  0.6821523496737996  0.6784610591730453  0.1447170424457696  1.0000
  H   H19       1.0  0.6821540692392887  0.17846277249339687  0.8552846731179784  1.0000
  H   H20       1.0  0.3178484125073028  0.32153885584153125  0.8552830421341611  1.0000
  H   H21       1.0  0.7386328252804122  0.31272462748475505  0.15736049794771387  1.0000
  H   H22       1.0  0.26136701926401434  0.18727534395243586  0.1573598252344723  1.0000
  H   H23       1.0  0.2613671147638287  0.6872752879174796  0.8426400394158193  1.0000
  H   H24       1.0  0.7386310310019868  0.8127239297580857  0.8426402593443071  1.0000
  H   H25       1.0  0.5138269793245129  0.47396448030406185  0.161226582414784  1.0000
  H   H26       1.0  0.48617287616121274  0.026035514553903696  0.16122683311170502  1.0000
  H   H27       1.0  0.486171893080261  0.5260347930229158  0.8387744077314068  1.0000
  H   H28       1.0  0.5138268183797834  0.9739637583840374  0.8387732514672025  1.0000
  H   H29       1.0  0.34232850589924624  0.3456784966931465  0.1656206476792406  1.0000
  H   H30       1.0  0.6576721841579315  0.1543215243944758  0.1656208461487694  1.0000
  H   H31       1.0  0.6576709431397774  0.654320133783244  0.8343798896823813  1.0000
  H   H32       1.0  0.3423277558856697  0.8456783910063945  0.8343792384310902  1.0000
  H   H33       1.0  0.749194742582958  0.7335844932856049  0.7384428494046773  1.0000
  H   H34       1.0  0.25080466697703946  0.7664160202384663  0.7384424056940162  1.0000
  H   H35       1.0  0.25080626510075626  0.266416064191901  0.2615572351761982  1.0000
  H   H36       1.0  0.7491933832889616  0.23358325347205516  0.2615576788847633  1.0000
  H   H37       1.0  0.6699826083295692  0.7730782935041489  0.6410939584011643  1.0000
  H   H38       1.0  0.3300165257589285  0.7269216303497357  0.6410934119129337  1.0000
  H   H39       1.0  0.3300173317146787  0.22692162189808576  0.3589065789623689  1.0000
  H   H40       1.0  0.6699831687827071  0.27307764258957695  0.3589071254496474  1.0000
  H   H41       1.0  0.7386848880080379  0.7256716311798781  0.5425835621526431  1.0000
  H   H42       1.0  0.2613139673218897  0.7743276959675781  0.5425826903527664  1.0000
  H   H43       1.0  0.26131316225860257  0.2743276425320147  0.4574169752098102  1.0000
  H   H44       1.0  0.7386870403618249  0.22567286150992774  0.4574173942281163  1.0000
  H   H45       1.0  0.7788576815079509  0.6829081714816494  0.0268561081207963  1.0000
  H   H46       1.0  0.22114167847404084  0.8170931714660482  0.026856713054265003  1.0000
  H   H47       1.0  0.22114274953959526  0.31709302884232926  0.9731430708936272  1.0000
  H   H48       1.0  0.7788580160669485  0.18290610147190017  0.9731433715246425  1.0000
  H   H49       1.0  0.7832855835921394  0.6845255038559868  0.9135025319039656  1.0000
  H   H50       1.0  0.21671514347832507  0.815476069669792  0.9135026786517955  1.0000
  H   H51       1.0  0.21671517858832356  0.3154744111572185  0.0864970998922843  1.0000
  H   H52       1.0  0.7832856187027774  0.1845238453447919  0.0864974059281352  1.0000
  H   H53       1.0  0.07378108451038665  0.5808942352102164  0.923641510482483  1.0000
  H   H54       1.0  0.9262183581085425  0.9191061151919226  0.9236420696322939  1.0000
  H   H55       1.0  0.9262195920410579  0.419107607579427  0.0763585741002473  1.0000
  H   H56       1.0  0.07378166756536331  0.08089187243525231  0.0763584677284399  1.0000
  H   H57       1.0  0.05760553994119286  0.5852879560769252  0.0359781424160985  1.0000
  H   H58       1.0  0.9423922872083069  0.9147115151228602  0.0359786912760356  1.0000
  H   H59       1.0  0.9423952222392701  0.4147119589362802  0.9640214893801512  1.0000
  H   H60       1.0  0.05760658519518811  0.0852877582013747  0.9640213933028079  1.0000
  H   H61       1.0  0.8178221850963041  0.7224412426894133  0.25335486200395957  1.0000
  H   H62       1.0  0.1821752751607023  0.7775569753709989  0.2533553456560753  1.0000
  H   H63       1.0  0.1821755340355011  0.27755931632913894  0.7466438642256535  1.0000
  H   H64       1.0  0.8178260636552892  0.2224422967943624  0.7466447389229601  1.0000
  H   H65       1.0  0.8125902532998027  0.7158614746431696  0.36742237872777384  1.0000
  H   H66       1.0  0.1874120458008832  0.7841406451261077  0.3674228823759194  1.0000
  H   H67       1.0  0.1874125585305748  0.2841416522970022  0.632576800289641  1.0000
  H   H68       1.0  0.8125889618834705  0.21585991235276938  0.632577654988637  1.0000
  H   H69       1.0  0.011334585763755465  0.5328981238739131  0.3550773557368103  1.0000
  H   H70       1.0  0.9886666107639928  0.9671032790420426  0.355078064482754  1.0000
  H   H71       1.0  0.9886658452844301  0.46710307645143695  0.644922276061294  1.0000
  H   H72       1.0  0.011336286697329  0.0328979201258051  0.6449220200992087  1.0000
  H   H73       1.0  0.011546314844004198  0.5505165426945734  0.24433690913416234  1.0000
  H   H74       1.0  0.9884543228145406  0.9494835469705974  0.24433711371464278  1.0000
  H   H75       1.0  0.9884538707022087  0.4494840151692187  0.7556631754466494  1.0000
  H   H76       1.0  0.011546439365922406  0.0505163680426151  0.755662518081607  1.0000
  C   C1        1.0  0.15708686051687687  0.6656094448060939  0.1427247347151379  1.0000
  C   C2        1.0  0.8429146428756271  0.8343887436657625  0.1427245812249254  1.0000
  C   C3        1.0  0.8429142327958631  0.3343891848949737  0.8572748970792716  1.0000
  C   C4        1.0  0.15708611930483582  0.16561117134744313  0.8572750505713245  1.0000
  C   C5        1.0  0.45046928197922403  0.6295489080630077  0.1453327389438073  1.0000
  C   C6        1.0  0.549530339012506  0.8704486545092535  0.1453303809851434  1.0000
  C   C7        1.0  0.5495314802018785  0.3704510069515761  0.8546673456361232  1.0000
  C   C8        1.0  0.45046984653242833  0.12955190335179623  0.8546687980283281  1.0000
  C   C9        1.0  0.3332590589574879  0.6140445894854025  0.14514208530727052  1.0000
  C   C10       1.0  0.6667418746388378  0.8859542564745124  0.1451406963386717  1.0000
  C   C11       1.0  0.6667427708637277  0.3859559676058096  0.8548579992736761  1.0000
  C   C12       1.0  0.3332591330429581  0.11404630099887918  0.8548580298911901  1.0000
  C   C13       1.0  0.2844159736686862  0.6838354737681057  0.1446377821954172  1.0000
  C   C14       1.0  0.7155833142253273  0.8161633699090841  0.1446361974278503  1.0000
  C   C15       1.0  0.7155845430091717  0.3161637987821777  0.8553618495998805  1.0000
  C   C16       1.0  0.2844182700913507  0.183836544715092  0.8553625288011233  1.0000
  C   C17       1.0  0.3546211706668886  0.767734777471105  0.144955311268582  1.0000
  C   C18       1.0  0.6453791857692367  0.732264710213542  0.1449561877667236  1.0000
  C   C19       1.0  0.6453787693760802  0.23226513792839396  0.855044320527611  1.0000
  C   C20       1.0  0.35462239854936684  0.2677352044147483  0.8550438968132709  1.0000
  C   C21       1.0  0.47543010509186  0.7851574299476097  0.1454425412859877  1.0000
  C   C22       1.0  0.5245717371281415  0.714839489684408  0.1454456121274745  1.0000
  C   C23       1.0  0.5245709025905754  0.21484312752715343  0.8545566377275479  1.0000
  C   C24       1.0  0.47542902505360035  0.28516042533154723  0.8545549252361228  1.0000
  C   C25       1.0  0.7343962473492242  0.47985285214357987  0.1500297207133485  1.0000
  C   C26       1.0  0.2656043985891544  0.0201470745039956  0.1500294671501692  1.0000
  C   C27       1.0  0.2656036926943842  0.5201470632572908  0.849970363866518  1.0000
  C   C28       1.0  0.7343955414550933  0.9798528408982392  0.849971070213364  1.0000
  C   C29       1.0  0.5570404522139044  0.24532896222222428  0.1613417124465641  1.0000
  C   C30       1.0  0.44295940359725716  0.2546710333323716  0.16134171718560708  1.0000
  C   C31       1.0  0.4429592423283709  0.7546703107184596  0.8386592776996905  1.0000
  C   C32       1.0  0.5570397143107756  0.7453288824589066  0.8386597257452096  1.0000
  C   C33       1.0  0.6520612135245261  0.3198413807173636  0.1589162662829864  1.0000
  C   C34       1.0  0.3479386354223025  0.1801586001435425  0.1589155862972902  1.0000
  C   C35       1.0  0.3479376588802482  0.6801578926096142  0.8410847238632044  1.0000
  C   C36       1.0  0.6520602369818391  0.8198406731820639  0.841084951065227  1.0000
  C   C37       1.0  0.635801244264677  0.40079845626348026  0.1571482627468015  1.0000
  C   C38       1.0  0.36419859968012264  0.0992015138901579  0.1571482549178285  1.0000
  C   C39       1.0  0.36419869577956393  0.5992014591387615  0.8428522746167317  1.0000
  C   C40       1.0  0.6358005182266241  0.9007984018983705  0.842852282445648  1.0000
  C   C41       1.0  0.5230981279288259  0.4094298413202465  0.1605740278242891  1.0000
  C   C42       1.0  0.47690172570996486  0.09057014958420948  0.1605740123740986  1.0000
  C   C43       1.0  0.4769007444765948  0.5905694320081026  0.8394274151055682  1.0000
  C   C44       1.0  0.5230973921967818  0.9094297662043261  0.8394265249893779  1.0000
  C   C45       1.0  0.4288562567770883  0.3385373418040629  0.1626485719771154  1.0000
  C   C46       1.0  0.5711436027330593  0.16146266166853  0.1626492305806337  1.0000
  C   C47       1.0  0.5711428611302978  0.6614625739858367  0.8373524181700276  1.0000
  C   C48       1.0  0.4288569139467101  0.8385366108858676  0.8373517595656779  1.0000
  C   C49       1.0  0.854375630639936  0.6660912027867169  0.692413676646936  1.0000
  C   C50       1.0  0.1456206912523329  0.833907748159156  0.6924134132716802  1.0000
  C   C51       1.0  0.14562159748792425  0.3339080713087271  0.307585955148113  1.0000
  C   C52       1.0  0.854377359013661  0.16609152555136567  0.3075866713071065  1.0000
  C   C53       1.0  0.7747407238997468  0.7139403065675081  0.6948116825077548  1.0000
  C   C54       1.0  0.22525774005828225  0.7860599430566421  0.6948112920730553  1.0000
  C   C55       1.0  0.22525839400636025  0.28605960921964874  0.3051884020720408  1.0000
  C   C56       1.0  0.7747405557109703  0.21393997311817256  0.3051892452903573  1.0000
  C   C57       1.0  0.7317078077940381  0.7357810352469369  0.6407108538663167  1.0000
  C   C58       1.0  0.26829025757040637  0.7642182442100421  0.6407104064727349  1.0000
  C   C59       1.0  0.26829188674695803  0.26421823769100417  0.3592892307125908  1.0000
  C   C60       1.0  0.7317096824738415  0.23578167119219975  0.3592901308908054  1.0000
  C   C61       1.0  0.7690241595436618  0.7099098423933228  0.5862409432564277  1.0000
  C   C62       1.0  0.23097292954744128  0.7900891075090684  0.5862401126717458  1.0000
  C   C63       1.0  0.23097282308286537  0.2900887892419347  0.41375959410500934  1.0000
  C   C64       1.0  0.7690278326343005  0.209910807506887  0.4137604246918514  1.0000
  C   C65       1.0  0.8475708891645796  0.6611346658007587  0.5883893368180253  1.0000
  C   C66       1.0  0.15242867241921948  0.8388642959579542  0.5883890889469612  1.0000
  C   C67       1.0  0.1524272467310794  0.33886268013469584  0.41161074775794765  1.0000
  C   C68       1.0  0.8475710221217698  0.1611349769799872  0.4116109956319391  1.0000
  C   C69       1.0  0.9039313196237588  0.6451682316498123  0.7490437567282413  1.0000
  C   C70       1.0  0.09606836543756002  0.8548329885519763  0.7490439994081726  1.0000
  C   C71       1.0  0.09606862041920998  0.3548316837496869  0.2509558750679446  1.0000
  C   C72       1.0  0.903930997971166  0.1451675696981098  0.2509560851725823  1.0000
  C   C73       1.0  0.9344895361266979  0.6333384287330046  0.8429660174246436  1.0000
  C   C74       1.0  0.06551074584248076  0.8666620750719003  0.8429667426097396  1.0000
  C   C75       1.0  0.06551122605376489  0.3666614862802006  0.1570336143716062  1.0000
  C   C76       1.0  0.9344881265616609  0.13333719825370585  0.1570337947527776  1.0000
  C   C77       1.0  0.8427301527710686  0.6610792593262148  0.0019077009203201  1.0000
  C   C78       1.0  0.1572688911104193  0.8389212900377598  0.0019079067497856  1.0000
  C   C79       1.0  0.15727060941003404  0.33892065568836927  0.9980923836596035  1.0000
  C   C80       1.0  0.8427308034305698  0.16107798290018144  0.9980921778291217  1.0000
  C   C81       1.0  0.8454375997042336  0.661884691556388  0.9390616892809973  1.0000
  C   C82       1.0  0.15456319969253943  0.8381170367900025  0.9390623451274323  1.0000
  C   C83       1.0  0.15456365348145343  0.3381165083826687  0.0609379425171639  1.0000
  C   C84       1.0  0.8454364948484567  0.16188223614793876  0.0609377394514752  1.0000
  C   C85       1.0  0.9293095914464617  0.6331996948891216  0.9088320048884456  1.0000
  C   C86       1.0  0.07069030027098228  0.8668018507339922  0.9088327312852228  1.0000
  C   C87       1.0  0.0706916617392253  0.36680150504993486  0.0911676269097228  1.0000
  C   C88       1.0  0.9293096397732656  0.13319806466824957  0.0911678060783103  1.0000
  C   C89       1.0  0.00726356092788897  0.6047099438761518  0.9442427443317527  1.0000
  C   C90       1.0  0.992736762123805  0.8952905309256706  0.9442427916385013  1.0000
  C   C91       1.0  0.9927376922584372  0.3952912560642758  0.0557573402500822  1.0000
  C   C92       1.0  0.0072618647777247  0.10470809993700668  0.0557577457230565  1.0000
  C   C93       1.0  0.9987080112034549  0.6066098075642187  0.006811280855238499  1.0000
  C   C94       1.0  0.0012913776863215285  0.8933894861904006  0.0068116211614964  1.0000
  C   C95       1.0  0.0012929964802594956  0.39339074991328715  0.9931888037256441  1.0000
  C   C96       1.0  0.9987083168553142  0.10660978674891909  0.9931889162010776  1.0000
  C   C97       1.0  0.8856514233297546  0.6314532590612527  0.5312045298144739  1.0000
  C   C98       1.0  0.11434739980155231  0.8685459991623075  0.531204362522473  1.0000
  C   C99       1.0  0.11434555929613313  0.36854537257263326  0.46879555476328966  1.0000
  C   C100      1.0  0.885652294739444  0.13145327377563373  0.4687957220564343  1.0000
  C   C101      1.0  0.9102866366618942  0.6183128807399214  0.4366456231814126  1.0000
  C   C102      1.0  0.08971290090346434  0.8816883745652928  0.4366454903558648  1.0000
  C   C103      1.0  0.08971108247119022  0.3816876782813665  0.5633540086155477  1.0000
  C   C104      1.0  0.9102862170026429  0.11831154122186399  0.563354594223938  1.0000
  C   C105      1.0  0.8599578841589377  0.6821222240505022  0.2783991770276373  1.0000
  C   C106      1.0  0.14004473966488726  0.8178787136310248  0.2783997716340423  1.0000
  C   C107      1.0  0.1400455043063289  0.3178802600404537  0.7216000019888895  1.0000
  C   C108      1.0  0.8599576667912174  0.18212120061097886  0.7216003129460091  1.0000
  C   C109      1.0  0.8570570421227119  0.678376260880782  0.3412355838589534  1.0000
  C   C110      1.0  0.14294386973183748  0.8216244157242796  0.34123483148231054  1.0000
  C   C111      1.0  0.1429436344300115  0.3216255819116042  0.6587654062911241  1.0000
  C   C112      1.0  0.857057137951877  0.17837614175322605  0.6587652530985721  1.0000
  C   C113      1.0  0.9121533360681228  0.6247343743516607  0.370895557235265  1.0000
  C   C114      1.0  0.08784437116708693  0.8752664834592563  0.3708954054038642  1.0000
  C   C115      1.0  0.0878438064300724  0.37526682751884266  0.6291040745625835  1.0000
  C   C116      1.0  0.9121539246008795  0.1247334327128229  0.6291042263922009  1.0000
  C   C117      1.0  0.9683194493095969  0.577180217659766  0.3356331526705887  1.0000
  C   C118      1.0  0.03168300533922529  0.9228223520172207  0.3356340362625048  1.0000
  C   C119      1.0  0.03168171824579249  0.4228229100529858  0.6643660263467055  1.0000
  C   C120      1.0  0.9683193154865748  0.0771794899984712  0.6643655955366796  1.0000
  C   C121      1.0  0.9680988598457462  0.5857656203959323  0.2731549045334916  1.0000
  C   C122      1.0  0.031899724080730586  0.9142333596767285  0.2731557631330048  1.0000
  C   C123      1.0  0.03189943592158073  0.4142342957747758  0.7268442744788999  1.0000
  C   C124      1.0  0.9681018602372334  0.0857665549501903  0.7268438686633089  1.0000
  N   N1        1.0  0.8896403247822207  0.6391632970121606  0.6402316802352388  1.0000
  N   N2        1.0  0.11035856136415133  0.8608359791568175  0.6402314898526527  1.0000
  N   N3        1.0  0.11035830211802286  0.3608353338477812  0.35976795155897184  1.0000
  N   N4        1.0  0.8896413786794573  0.1391639362440529  0.359768594727214  1.0000
  N   N5        1.0  0.9938688487364832  0.6122536015798231  0.7506547200684324  1.0000
  N   N6        1.0  0.006129527741464311  0.8877463438420816  0.7506554974638889  1.0000
  N   N7        1.0  0.0061308458032343005  0.3877456713553825  0.2493444589431348  1.0000
  N   N8        1.0  0.9938687680271416  0.1122535723313618  0.2493445871158428  1.0000
  N   N9        1.0  0.011711049583610167  0.6058692295886702  0.8101807454500474  1.0000
  N   N10       1.0  0.9882883174741863  0.8941310760121369  0.8101812414696141  1.0000
  N   N11       1.0  0.9882897125968525  0.3941306854245424  0.1898188863462096  1.0000
  N   N12       1.0  0.011710554929308595  0.10586819731209827  0.1898188431092294  1.0000
  N   N13       1.0  0.8649670105317783  0.6592469643119686  0.8050363615169829  1.0000
  N   N14       1.0  0.13503258747162764  0.8407539525912568  0.8050370220111844  1.0000
  N   N15       1.0  0.13503399715129666  0.340753593164159  0.1949632702802262  1.0000
  N   N16       1.0  0.864966284932507  0.1592453207343425  0.1949635153513327  1.0000
  N   N17       1.0  0.9180559585589523  0.6341109426566118  0.0355141772291603  1.0000
  N   N18       1.0  0.08194235828312207  0.8658898106591977  0.0355149027197328  1.0000
  N   N19       1.0  0.08194447248859404  0.3658902576673668  0.9644850017852703  1.0000
  N   N20       1.0  0.9180581583960079  0.13410946189382858  0.9644856346429123  1.0000
  N   N21       1.0  0.9420315244628767  0.5711734773587764  0.5275423320169068  1.0000
  N   N22       1.0  0.05796728830626561  0.928825758683686  0.5275427844157577  1.0000
  N   N23       1.0  0.057966034797900114  0.4288245114258942  0.4724577525599615  1.0000
  N   N24       1.0  0.9420321607314719  0.07117287178996176  0.47245684737851695  1.0000
  N   N25       1.0  0.9568310787427238  0.5642920388718335  0.46734246995052325  1.0000
  N   N26       1.0  0.04316863131703036  0.9357074745996599  0.4673429401025615  1.0000
  N   N27       1.0  0.043167793660771336  0.4357072344524013  0.5326576146283202  1.0000
  N   N28       1.0  0.9568318853608277  0.0642917979506166  0.5326566916927362  1.0000
  N   N29       1.0  0.8645276900821417  0.6617040359899491  0.47603378731403717  1.0000
  N   N30       1.0  0.13547204457069742  0.838295530125137  0.47603353514642077  1.0000
  N   N31       1.0  0.13547224996146673  0.3382958794109213  0.5239662972658294  1.0000
  N   N32       1.0  0.8645287176097655  0.1617043848880755  0.5239660966498292  1.0000
  N   N33       1.0  0.9149513359726743  0.6370554015913826  0.24489131272758163  1.0000
  N   N34       1.0  0.08504576920216785  0.8629440505143862  0.24489157733420802  1.0000
  N   N35       1.0  0.0850455610229162  0.36294515781619907  0.7551083190693078  1.0000
  N   N36       1.0  0.9149545019743502  0.1370545795757181  0.755108960027478  1.0000
  O   O1        1.0  0.09451045341653243  0.5882422215164452  0.1428110987898634  1.0000
  O   O2        1.0  0.9054904735870867  0.9117566103312172  0.1428120860813706  1.0000
  O   O3        1.0  0.9054908853988197  0.41175705064755164  0.8571885330054981  1.0000
  O   O4        1.0  0.0945108652289051  0.0882426618341441  0.8571879984976647  1.0000
  O   O5        1.0  0.11245625119578755  0.728572235504245  0.1404785631926302  1.0000
  O   O6        1.0  0.887544423704185  0.771425939750415  0.1404791387151931  1.0000
  O   O7        1.0  0.887544019979451  0.27142639458311624  0.8595210686017083  1.0000
  O   O8        1.0  0.1124563384769175  0.22857397526416173  0.8595209458647305  1.0000
  O   O9        1.0  0.8370680930651773  0.4732458068756244  0.1475851400239137  1.0000
  O   O10       1.0  0.16293230045372553  0.0267534625028887  0.14758534252560201  1.0000
  O   O11       1.0  0.16293160147517952  0.5267534660609458  0.85241449177132  1.0000
  O   O12       1.0  0.8370676395905152  0.9732464528993461  0.8524151948379384  1.0000
  O   O13       1.0  0.7140779543444611  0.552137019131429  0.1454010169799034  1.0000
  O   O14       1.0  0.28592240335113683  0.9478624712492305  0.1454006547557256  1.0000
  O   O15       1.0  0.2859217401971748  0.4478622538078837  0.8545995203826777  1.0000
  O   O16       1.0  0.7140775366924715  0.05213744415163998  0.8545994298241338  1.0000
