data_image0
_chemical_formula_structural       Zn8H32C62Br24O30
_chemical_formula_sum              "Zn8 H32 C62 Br24 O30"
_cell_length_a       18.158717897986573
_cell_length_b       18.17993029247647
_cell_length_c       18.225152785163754
_cell_angle_alpha    61.17291914280838
_cell_angle_beta     61.22023882557936
_cell_angle_gamma    60.915091525880094

_space_group_name_H-M_alt    "P 1"
_space_group_IT_number       1

loop_
  _space_group_symop_operation_xyz
  'x, y, z'

loop_
  _atom_site_type_symbol
  _atom_site_label
  _atom_site_symmetry_multiplicity
  _atom_site_fract_x
  _atom_site_fract_y
  _atom_site_fract_z
  _atom_site_occupancy
  Zn  Zn1       1.0  0.6209780679160204  0.2913195375899774  0.2924446031648245  1.0000
  Zn  Zn2       1.0  0.20633233233578357  0.881902645911097  0.7058685074264587  1.0000
  Zn  Zn3       1.0  0.7948523706626675  0.293760584481916  0.11897734207027348  1.0000
  Zn  Zn4       1.0  0.7900468481490182  0.11917550123072827  0.2945041480231507  1.0000
  Zn  Zn5       1.0  0.21049411689639186  0.7048974717986597  0.8805178234606216  1.0000
  Zn  Zn6       1.0  0.7954029658372052  0.29554868965028186  0.2928467592988112  1.0000
  Zn  Zn7       1.0  0.3793295976785843  0.7066988956492466  0.7080647718138449  1.0000
  Zn  Zn8       1.0  0.20249885004472648  0.7065650692455278  0.7084914734204303  1.0000
  H   H1        1.0  0.35650784899816307  0.03903662679701369  0.49706113476706537  1.0000
  H   H2        1.0  0.3854423185901085  0.2166160640624  0.48035368345475127  1.0000
  H   H3        1.0  0.2795632148792749  0.2676715728326329  0.3630045765803302  1.0000
  H   H4        1.0  0.2623205621798023  0.1937577025637864  0.47313990502303926  1.0000
  H   H5        1.0  0.22145019219775725  0.3157653587183801  0.5287446194501155  1.0000
  H   H6        1.0  0.15268026028265072  0.3493700853435299  0.4669233273479988  1.0000
  H   H7        1.0  0.24231651571522422  0.39044900190204146  0.41889920393816027  1.0000
  H   H8        1.0  0.8828944422300112  0.29111579688379396  0.43430261488862226  1.0000
  H   H9        1.0  0.9929770570810633  0.21432847457818127  0.4233744698457966  1.0000
  H   H10       1.0  0.8622856491760446  0.27077534062142655  0.5884586838538438  1.0000
  H   H11       1.0  0.9716137119409326  0.19438190745269418  0.5786826027396043  1.0000
  H   H12       1.0  0.002560640658906299  0.0457562308533497  0.5990312911872663  1.0000
  H   H13       1.0  0.03423427922371056  0.3140690939841163  0.4523904764564362  1.0000
  H   H14       1.0  0.9667773596567244  0.3469701464711791  0.5483734865959917  1.0000
  H   H15       1.0  0.9247723110625686  0.39141956809831413  0.46013451564015634  1.0000
  H   H16       1.0  0.5973490903664144  0.6312999450184689  0.7124187777834051  1.0000
  H   H17       1.0  0.6174375419823619  0.5184369887327591  0.7819868248658463  1.0000
  H   H18       1.0  0.7177147334247849  0.6394924438332481  0.7348345050722498  1.0000
  H   H19       1.0  0.7379768069598499  0.5281717033921183  0.8068616254103415  1.0000
  H   H20       1.0  0.7824620396756643  0.47401345169468795  0.6827388381656616  1.0000
  H   H21       1.0  0.8483369761053938  0.5371861638046411  0.6528584269890414  1.0000
  H   H22       1.0  0.759937512332151  0.5854582074709852  0.6097567406260677  1.0000
  H   H23       1.0  0.6447087671093713  0.5014113613443598  0.9602383561023229  1.0000
  H   H24       1.0  0.14484617157989288  0.5336879350547007  0.7180496756193405  1.0000
  H   H25       1.0  0.031669657609775526  0.5477992569281297  0.7862981093305519  1.0000
  H   H26       1.0  0.17224041681043908  0.37207461994449165  0.7557233624138245  1.0000
  H   H27       1.0  0.05865743730126383  0.38731603167987316  0.8193176894414975  1.0000
  H   H28       1.0  0.015367685672401961  0.5001260529704722  0.6819672736717166  1.0000
  H   H29       1.0  0.08619515831583874  0.394906271635186  0.6675163615283989  1.0000
  H   H30       1.0  0.13000879073497626  0.48262871860308115  0.6187584609033859  1.0000
  H   H31       1.0  0.40302564557336507  0.2873905153845726  0.3684536573851743  1.0000
  H   H32       1.0  0.010209123545642698  0.3868131391558478  0.9637030445629758  1.0000
  C   C1        1.0  0.8787658753363776  0.40104955096379763  0.11128139916807793  1.0000
  C   C2        1.0  0.06835343420468132  0.9450819978048413  0.5370951687158437  1.0000
  C   C3        1.0  0.9213356289518729  0.5333603664554116  0.07443293134958394  1.0000
  C   C4        1.0  0.37917316976395204  0.231107308961974  0.41715517702554894  1.0000
  C   C5        1.0  0.28336917325326993  0.2525396259521671  0.4275848666342909  1.0000
  C   C6        1.0  0.2215238126566987  0.3313898133667123  0.46239854294739047  1.0000
  C   C7        1.0  0.9263967813412466  0.23298923372556146  0.4713908249298909  1.0000
  C   C8        1.0  0.9296942588130436  0.2539881392028533  0.5408125872134516  1.0000
  C   C9        1.0  0.9658250845118914  0.330879327773374  0.4980604220703526  1.0000
  C   C10       1.0  0.621753246193059  0.5823582608975283  0.768519519880634  1.0000
  C   C11       1.0  0.716484177340277  0.5740989475614102  0.7483116510512033  1.0000
  C   C12       1.0  0.7802811751022602  0.5408363260383667  0.6690631782963337  1.0000
  C   C13       1.0  0.5537307406783469  0.42860328788278673  0.05406517248066232  1.0000
  C   C14       1.0  0.09951477102791982  0.4992678258096602  0.775758571157709  1.0000
  C   C15       1.0  0.104654989266372  0.4209979506291646  0.7613659668499935  1.0000
  C   C16       1.0  0.08282503590852035  0.4514115673735261  0.6777244957498566  1.0000
  C   C17       1.0  0.933813889703174  0.4614611795415228  0.05443656263315691  1.0000
  C   C18       1.0  0.4476600928425684  0.9449119624065573  0.5704405416873963  1.0000
  C   C19       1.0  0.4191652451135043  0.022624974906733496  0.5046719735445606  1.0000
  C   C20       1.0  0.006792344903885807  0.026598221432131194  0.5486643482858681  1.0000
  C   C21       1.0  0.582161136036234  0.4939560851938295  0.9763358387834629  1.0000
  C   C22       1.0  0.6113414673941053  0.3758573587069519  0.11218857297659196  1.0000
  C   C23       1.0  0.001961931476856218  0.4418560024916188  0.9789797458987051  1.0000
  C   C24       1.0  0.46983491335616634  0.0788876710850985  0.4485928092839231  1.0000
  C   C25       1.0  0.9501479116167034  0.08262828567061577  0.4979690975426433  1.0000
  C   C26       1.0  0.5313117642251941  0.5499070942322887  0.91987705001587  1.0000
  C   C27       1.0  0.05978656812244055  0.49102549131133333  0.9241494151081465  1.0000
  C   C28       1.0  0.1216840681507492  0.8882718677113671  0.5995437840809499  1.0000
  C   C29       1.0  0.5529482225262612  0.055561182177349594  0.45577686638851816  1.0000
  C   C30       1.0  0.95313150081941  0.0562375708728595  0.4352310283559077  1.0000
  C   C31       1.0  0.44866503385777184  0.5424679428316777  0.9427122619611833  1.0000
  C   C32       1.0  0.05030727724258109  0.5605135898123732  0.9456331478191443  1.0000
  C   C33       1.0  0.38969702359834474  0.8873814373070557  0.6237681050641798  1.0000
  C   C34       1.0  0.906692560976893  0.030704740471208  0.0255754169414714  1.0000
  C   C35       1.0  0.9570345951869825  0.9768180132940499  0.9713445448962689  1.0000
  C   C36       1.0  0.04994822683917736  0.9433635622886738  0.9482983702666982  1.0000
  C   C37       1.0  0.9496175279265415  0.05098981796256649  0.0564764981667806  1.0000
  C   C38       1.0  0.09285155699895861  0.9632795599470326  0.9795336311937815  1.0000
  C   C39       1.0  0.04254030170838521  0.017409046673755296  0.03349990806970028  1.0000
  C   C40       1.0  0.6094022390861015  0.11384725417887147  0.3906431874869295  1.0000
  C   C41       1.0  0.8890210201019431  0.11623131716202549  0.38384646929146965  1.0000
  C   C42       1.0  0.39202863898491114  0.6079165123532349  0.8842721068396453  1.0000
  C   C43       1.0  0.11338535446259365  0.612454563539508  0.8859093025405185  1.0000
  C   C44       1.0  0.8947817325729518  0.10977360442138456  0.1142324944724321  1.0000
  C   C45       1.0  0.10507668912420347  0.8859657565829832  0.8892034346568778  1.0000
  C   C46       1.0  0.6160598561410071  0.38227947413029983  0.39383913012198213  1.0000
  C   C47       1.0  0.38221595055200913  0.6095066281914399  0.6163720078055587  1.0000
  C   C48       1.0  0.5713366352730347  0.39424842243454356  0.5512817121174434  1.0000
  C   C49       1.0  0.4480085499165868  0.45836623469768506  0.4759050431975639  1.0000
  C   C50       1.0  0.3861582461767484  0.5073957358120609  0.5486237054122682  1.0000
  C   C51       1.0  0.5186568915861045  0.46682102705559453  0.6015543489345134  1.0000
  C   C52       1.0  0.5701202609426376  0.535154772756222  0.40612843386475805  1.0000
  C   C53       1.0  0.49467858584642943  0.6042464056692439  0.45796050803711097  1.0000
  C   C54       1.0  0.5523003840278946  0.4405493960937079  0.45693264977681747  1.0000
  C   C55       1.0  0.4437685923432398  0.5482618729196388  0.55660656714177  1.0000
  C   C56       1.0  0.5803596593555227  0.978999818389326  0.5239333374730887  1.0000
  C   C57       1.0  0.016836596106209446  0.9755790044781845  0.4213789024361745  1.0000
  C   C58       1.0  0.4214571923622828  0.47455497125028495  0.019137785928798185  1.0000
  C   C59       1.0  0.9803207327127197  0.5821656569846922  0.0198421396183404  1.0000
  C   C60       1.0  0.5275523831488869  0.9239684785798514  0.5823008543374824  1.0000
  C   C61       1.0  0.07513159501978359  0.92000120401066  0.4714176560388949  1.0000
  C   C62       1.0  0.4741281977144851  0.41661764841372667  0.07470732406318356  1.0000
  Br  Br1       1.0  0.6977593618311603  0.33472096107334437  0.5496390020442091  1.0000
  Br  Br2       1.0  0.41615488184270094  0.35270033950353497  0.5082289488289929  1.0000
  Br  Br3       1.0  0.3335390016234356  0.42884722044802  0.6656433641741086  1.0000
  Br  Br4       1.0  0.470575881210948  0.41505029033123003  0.7327741603234726  1.0000
  Br  Br5       1.0  0.5397352328011068  0.2839148191989267  0.6202063286541276  1.0000
  Br  Br6       1.0  0.692370849079289  0.5193044872626943  0.39077698475093553  1.0000
  Br  Br7       1.0  0.5839384339680368  0.5847094467003585  0.2776095668490512  1.0000
  Br  Br8       1.0  0.4051239849303769  0.6985164097441937  0.39914806761653676  1.0000
  Br  Br9       1.0  0.41500734712354165  0.5266004276585575  0.3657342920813987  1.0000
  Br  Br10      1.0  0.5451273352701236  0.6870184519033701  0.4468170031347112  1.0000
  Br  Br11      1.0  0.686626652405032  0.9544228934218351  0.5402982782924539  1.0000
  Br  Br12      1.0  0.02835940852421726  0.9461130869239012  0.32878092320139973  1.0000
  Br  Br13      1.0  0.31551715568715377  0.45840750166941996  0.042937420327653866  1.0000
  Br  Br14      1.0  0.9621378988706301  0.6833192054139657  0.04085096161876571  1.0000
  Br  Br15      1.0  0.2691158718778865  0.5910087269236753  0.5268888103568231  1.0000
  Br  Br16      1.0  0.559970801071998  0.8273106097830903  0.6800454354357155  1.0000
  Br  Br17      1.0  0.16516472380617142  0.8155775188431063  0.4460416965312177  1.0000
  Br  Br18      1.0  0.4420289994322033  0.3192493200668238  0.17179998906528482  1.0000
  Br  Br19      1.0  0.822443917027904  0.5683386627304614  0.16923478219399624  1.0000
  Br  Br20      1.0  0.6008463905270105  0.509078608540122  0.6022074114161667  1.0000
  Br  Br21      1.0  0.7809435337638392  0.0772444076857965  0.05833257342506224  1.0000
  Br  Br22      1.0  0.9019755693344959  0.9472860687492215  0.9283580343388772  1.0000
  Br  Br23      1.0  0.21855634062759324  0.9161106960004587  0.9473682021106241  1.0000
  Br  Br24      1.0  0.09788293071343901  0.04684543961275979  0.0762165263827441  1.0000
  O   O1        1.0  0.7514072215598663  0.25033865877177414  0.2485312745655221  1.0000
  O   O2        1.0  0.5720597711475507  0.3603177977983094  0.19511676585911175  1.0000
  O   O3        1.0  0.13839304112856615  0.804810836070679  0.6269128909914128  1.0000
  O   O4        1.0  0.4286115198896001  0.8037414421296987  0.6415295467189492  1.0000
  O   O5        1.0  0.5727653717289769  0.19581924158316608  0.38422878486482404  1.0000
  O   O6        1.0  0.8884387562357575  0.19623305355666076  0.3428680186194055  1.0000
  O   O7        1.0  0.42784417940771396  0.6130108045726531  0.8031133773891453  1.0000
  O   O8        1.0  0.1133674468306155  0.6526243785353925  0.806264378727455  1.0000
  O   O9        1.0  0.2489004271095965  0.7517779034392407  0.7501569490693211  1.0000
  O   O10       1.0  0.6950347333518964  0.3545283827092973  0.0721791964408779  1.0000
  O   O11       1.0  0.8590134672568087  0.3768386691916205  0.06972389034991973  1.0000
  O   O12       1.0  0.30603264072286873  0.9285199255375288  0.6434434146960725  1.0000
  O   O13       1.0  0.14259236187736238  0.9302237344328502  0.6221975701307441  1.0000
  O   O14       1.0  0.8405201802505788  0.08228558170545598  0.3863019944175362  1.0000
  O   O15       1.0  0.688184771847702  0.07713628788089011  0.3466620607368396  1.0000
  O   O16       1.0  0.16102767120624153  0.611768161882992  0.9196461530078747  1.0000
  O   O17       1.0  0.3138604490100719  0.6536362426464706  0.9203648386412266  1.0000
  O   O18       1.0  0.876297983963724  0.19274770242360256  0.07336411310328828  1.0000
  O   O19       1.0  0.1275853740027914  0.9274976424500491  0.8067687317187617  1.0000
  O   O20       1.0  0.6987391715160031  0.35511364346427843  0.3804511783596354  1.0000
  O   O21       1.0  0.5790508351408691  0.3703484072323278  0.3592170974585968  1.0000
  O   O22       1.0  0.3006929786448041  0.617068941760891  0.6524697150136304  1.0000
  O   O23       1.0  0.4211301972179343  0.6459589671312855  0.623596524290846  1.0000
  O   O24       1.0  0.8728480811066462  0.0696682793917844  0.1970712991930623  1.0000
  O   O25       1.0  0.8594753121838538  0.3766638851401608  0.1945423317235822  1.0000
  O   O26       1.0  0.12332057229217253  0.8027095472892893  0.9286801663603936  1.0000
  O   O27       1.0  0.4401637127117156  0.15528759164605788  0.385024538913413  1.0000
  O   O28       1.0  0.8893502515383035  0.16179185755943581  0.5107983114135877  1.0000
  O   O29       1.0  0.5597371935776109  0.6141590115931663  0.8440459948446061  1.0000
  O   O30       1.0  0.1275457296234777  0.4714985161065924  0.8507685590567745  1.0000
