data_image0
_chemical_formula_structural       Zn2H24C32N4O8
_chemical_formula_sum              "Zn2 H24 C32 N4 O8"
_cell_length_a       8.91152496273799
_cell_length_b       11.416071204928436
_cell_length_c       13.75535826419864
_cell_angle_alpha    87.68430259934105
_cell_angle_beta     83.92763578131616
_cell_angle_gamma    67.07496592266779

_space_group_name_H-M_alt    "P 1"
_space_group_IT_number       1

loop_
  _space_group_symop_operation_xyz
  'x, y, z'

loop_
  _atom_site_type_symbol
  _atom_site_label
  _atom_site_symmetry_multiplicity
  _atom_site_fract_x
  _atom_site_fract_y
  _atom_site_fract_z
  _atom_site_occupancy
  Zn  Zn1       1.0  0.15037899813298578  0.698561930516661  0.7499414812268413  1.0000
  Zn  Zn2       1.0  0.8496171613765711  0.30144141560626286  0.2500569171433256  1.0000
  H   H1        1.0  0.8591321897405424  0.6107441921643398  0.05407739907190031  1.0000
  H   H2        1.0  0.007850732352387872  0.9419945896765826  0.8618819808835169  1.0000
  H   H3        1.0  0.1118637174891006  0.0742478546686058  0.9569979400801358  1.0000
  H   H4        1.0  0.601572652453534  0.7971078390383824  0.8800712552450136  1.0000
  H   H5        1.0  0.4779254360541003  0.6816990902795583  0.785096070107805  1.0000
  H   H6        1.0  0.3261993979521591  0.10706223710835874  0.01793506985977439  1.0000
  H   H7        1.0  0.5301839550212862  0.6108332036192013  0.4461402789698282  1.0000
  H   H8        1.0  0.05014902830816212  0.9418601905726763  0.6380931520644779  1.0000
  H   H9        1.0  0.8143845111188597  0.0739161399598984  0.5428898521740564  1.0000
  H   H10       1.0  0.6006298257767498  0.7973454430423886  0.6200015075156244  1.0000
  H   H11       1.0  0.8392977454759463  0.6820709273699637  0.7150009295558633  1.0000
  H   H12       1.0  0.5673171139666949  0.1068393011897939  0.48201076496638257  1.0000
  H   H13       1.0  0.1408722995621545  0.38925154764182696  0.9459221192650844  1.0000
  H   H14       1.0  0.992148150912499  0.058007805616540516  0.13811552560964196  1.0000
  H   H15       1.0  0.888136792854773  0.925753591259657  0.04300166276218681  1.0000
  H   H16       1.0  0.3984261317543131  0.20289265828665756  0.11993359731314969  1.0000
  H   H17       1.0  0.5220736452291633  0.31829855345695535  0.21490886405307916  1.0000
  H   H18       1.0  0.6737971218187798  0.8929382590592211  0.9820692214249291  1.0000
  H   H19       1.0  0.46983508321332573  0.38915398645344373  0.5538693895418376  1.0000
  H   H20       1.0  0.9498538260173035  0.0581364981442078  0.36190354350937065  1.0000
  H   H21       1.0  0.1856179270952723  0.9260881584436123  0.45710659826910666  1.0000
  H   H22       1.0  0.39936071189850253  0.2026645576591974  0.3799934261827715  1.0000
  H   H23       1.0  0.16068698860964764  0.3179371699720833  0.2849959517470282  1.0000
  H   H24       1.0  0.4326878225737972  0.8931621411494604  0.5179805170411456  1.0000
  C   C1        1.0  0.9853262750531258  0.6431452690269952  0.9149126172464149  1.0000
  C   C2        1.0  0.9558794510290769  0.5626443140886863  0.9967015789107876  1.0000
  C   C3        1.0  0.1382164249033837  0.9156680219901504  0.8668549851846663  1.0000
  C   C4        1.0  0.19615315763684302  0.9871405428576737  0.9200447798106026  1.0000
  C   C5        1.0  0.3652535756096711  0.9455062536826591  0.9284070607644992  1.0000
  C   C6        1.0  0.4692275787895781  0.8333808206904367  0.8780250150705484  1.0000
  C   C7        1.0  0.4018551597076011  0.7687616950534706  0.8251029749680541  1.0000
  C   C8        1.0  0.421909227023761  0.0184668909162227  0.9889224614772232  1.0000
  C   C9        1.0  0.3710608877155506  0.6431033943401021  0.5851325952418234  1.0000
  C   C10       1.0  0.4814150010362684  0.5626601558237069  0.5033857258046268  1.0000
  C   C11       1.0  0.9460347184988367  0.9155687479253278  0.6331332673242399  1.0000
  C   C12       1.0  0.8168951146527025  0.986950181360399  0.5798878525405583  1.0000
  C   C13       1.0  0.6892631981466694  0.9454135580939111  0.5715293816164645  1.0000
  C   C14       1.0  0.696854601277629  0.8335323055509463  0.6220143197662223  1.0000
  C   C15       1.0  0.8286399170507297  0.7689834915239403  0.6749510210141948  1.0000
  C   C16       1.0  0.5598224603302384  0.018343837682955708  0.5110253094066977  1.0000
  C   C17       1.0  0.014671139659924405  0.35685332180363366  0.08508658849543589  1.0000
  C   C18       1.0  0.04412503037537616  0.4373514252633371  0.0032972130122246026  1.0000
  C   C19       1.0  0.8617815439070498  0.0843296223030023  0.13315148437443722  1.0000
  C   C20       1.0  0.8038463987613371  0.0128561497998803  0.07996015402777347  1.0000
  C   C21       1.0  0.634745838057853  0.05449519371055092  0.0715955303039877  1.0000
  C   C22       1.0  0.5307708572375204  0.1666158720696061  0.12198072775206009  1.0000
  C   C23       1.0  0.598141174125594  0.23123689815039233  0.17490067182791338  1.0000
  C   C24       1.0  0.5780895492858494  0.9815336059546668  0.011081664666960495  1.0000
  C   C25       1.0  0.6289497496417056  0.3568913979619738  0.4148694155772503  1.0000
  C   C26       1.0  0.5185995004262836  0.4373270314798817  0.49662209374615424  1.0000
  C   C27       1.0  0.053964647779210395  0.08443269674298651  0.3668649652603833  1.0000
  C   C28       1.0  0.18310344784202934  0.013055066158806009  0.42010739310794776  1.0000
  C   C29       1.0  0.3107374270507322  0.054589786710742806  0.4284643279887986  1.0000
  C   C30       1.0  0.3031402872319405  0.1664757949559785  0.37798181840431505  1.0000
  C   C31       1.0  0.17135206966401031  0.23102365730321847  0.3250460909585939  1.0000
  C   C32       1.0  0.4401824604137585  0.9816576037479978  0.4889645197728782  1.0000
  N   N1        1.0  0.23891126918100258  0.8077359105156819  0.8202404132397021  1.0000
  N   N2        1.0  0.9528221718088332  0.8078132489466725  0.6797915253813472  1.0000
  N   N3        1.0  0.7610845895372765  0.1922636337671477  0.17976323387878068  1.0000
  N   N4        1.0  0.047171723263815635  0.1921900960187983  0.3202063117153671  1.0000
  O   O1        1.0  0.09379116410018183  0.5845672931210758  0.8439078984266286  1.0000
  O   O2        1.0  0.9060661034204646  0.7617581291527175  0.9187962634243334  1.0000
  O   O3        1.0  0.321112345227455  0.5844508876017613  0.6560208857709711  1.0000
  O   O4        1.0  0.3314723386293111  0.7617656134597299  0.581351885215561  1.0000
  O   O5        1.0  0.9062122638350164  0.415435105395261  0.15609218344139458  1.0000
  O   O6        1.0  0.0939204563247102  0.2382395043575302  0.0811994092137596  1.0000
  O   O7        1.0  0.6788899781331496  0.41555151192535794  0.3439814579092371  1.0000
  O   O8        1.0  0.6685393796077932  0.23822917646910474  0.4186456845493893  1.0000
