data_image0
_chemical_formula_structural       Zn4P4H12C16N8O12
_chemical_formula_sum              "Zn4 P4 H12 C16 N8 O12"
_cell_length_a       7.560480349342969
_cell_length_b       7.912649249002543
_cell_length_c       10.391426552056325
_cell_angle_alpha    90.00000981004894
_cell_angle_beta     100.40367951864278
_cell_angle_gamma    90.00008893772745

_space_group_name_H-M_alt    "P 1"
_space_group_IT_number       1

loop_
  _space_group_symop_operation_xyz
  'x, y, z'

loop_
  _atom_site_type_symbol
  _atom_site_label
  _atom_site_symmetry_multiplicity
  _atom_site_fract_x
  _atom_site_fract_y
  _atom_site_fract_z
  _atom_site_occupancy
  Zn  Zn1       1.0  0.6432566781986891  0.2808470720514293  0.6058448833670126  1.0000
  Zn  Zn2       1.0  0.8567440585197303  0.7808479452104676  0.8941551340787655  1.0000
  Zn  Zn3       1.0  0.35674405592098424  0.7191526252692524  0.3941554989342606  1.0000
  Zn  Zn4       1.0  0.1432566906740078  0.2191542797085616  0.105844287931852  1.0000
  P   P1        1.0  0.7926089952099887  0.18352077551621446  0.8927391718558865  1.0000
  P   P2        1.0  0.7073929360649204  0.6835200934920634  0.6072600390678744  1.0000
  P   P3        1.0  0.20739037914988498  0.8164827132012177  0.10726198327783718  1.0000
  P   P4        1.0  0.2926078131277449  0.3164808676277388  0.39273938294252986  1.0000
  H   H1        1.0  0.5256340424234623  0.21693280320931044  0.0780322367861359  1.0000
  H   H2        1.0  0.9743685582817961  0.7169351226246262  0.4219674443360332  1.0000
  H   H3        1.0  0.4743680514613686  0.783069421710742  0.9219673726837812  1.0000
  H   H4        1.0  0.025632175838943293  0.2830658384952826  0.5780329379654603  1.0000
  H   H5        1.0  0.09342178690157972  0.44687704871140704  0.8426962354466667  1.0000
  H   H6        1.0  0.40658006314667006  0.9468779401635526  0.65730431936543  1.0000
  H   H7        1.0  0.906578962286794  0.5531188572114941  0.15730318656286357  1.0000
  H   H8        1.0  0.5934193262829766  0.053123020955325694  0.3426958754767639  1.0000
  H   H9        1.0  0.2742946169288701  0.4639131752886668  0.6555872328585293  1.0000
  H   H10       1.0  0.22570724696393543  0.9639125769320953  0.844414288141536  1.0000
  H   H11       1.0  0.7257034278053851  0.5360827306322802  0.3444127745234908  1.0000
  H   H12       1.0  0.7742934871546653  0.03608585658935938  0.15558609415951707  1.0000
  C   C1        1.0  0.5681686046431551  0.2751536330365311  0.8808187674435501  1.0000
  C   C2        1.0  0.9318334671021447  0.7751545531961311  0.6191814354907236  1.0000
  C   C3        1.0  0.4318308299990363  0.7248435366843607  0.11917854652470078  1.0000
  C   C4        1.0  0.06816859663455692  0.22484261652721924  0.380820094560505  1.0000
  C   C5        1.0  0.4705280346278968  0.2714051436700727  0.9830270468188474  1.0000
  C   C6        1.0  0.029474877330443405  0.7714054380146607  0.51697267442092  1.0000
  C   C7        1.0  0.5294699950376582  0.728594553648655  0.016973920854923115  1.0000
  C   C8        1.0  0.9705272165522416  0.22859425930693786  0.4830269350485564  1.0000
  C   C9        1.0  0.2306816067228539  0.4005285796438755  0.8524392216478701  1.0000
  C   C10       1.0  0.2693215093427313  0.9005292635709239  0.6475615045797481  1.0000
  C   C11       1.0  0.7693137184875168  0.5994698538736782  0.14756233139817704  1.0000
  C   C12       1.0  0.730680569468035  0.09947043375078118  0.35243906518082463  1.0000
  C   C13       1.0  0.32798476078983907  0.4079597797689517  0.7507786627375239  1.0000
  C   C14       1.0  0.17201702319854212  0.9079603423477918  0.7492218786031088  1.0000
  C   C15       1.0  0.6720173933783826  0.592037389953788  0.24921710556713345  1.0000
  C   C16       1.0  0.8279809913961669  0.0920406187702625  0.25078004936197107  1.0000
  N   N1        1.0  0.4928537312074326  0.33951506608137544  0.7640289062935395  1.0000
  N   N2        1.0  0.0071479516710298  0.839514115224567  0.7359706510632833  1.0000
  N   N3        1.0  0.5071429839098016  0.6604833674368961  0.23596995333852527  1.0000
  N   N4        1.0  0.9928541271397436  0.16048558209713795  0.2640299186972895  1.0000
  N   N5        1.0  0.30131005159886126  0.3280712450119054  0.9672130141952308  1.0000
  N   N6        1.0  0.1986929414748886  0.8280717961034936  0.5327876869509112  1.0000
  N   N7        1.0  0.6986933869749237  0.6719284523107233  0.032786782733552365  1.0000
  N   N8        1.0  0.8013064328828392  0.1719291650154844  0.467213468182372  1.0000
  O   O1        1.0  0.8292894212718239  0.18926980899426843  0.7526623381790428  1.0000
  O   O2        1.0  0.6707111750716663  0.6892703691743944  0.747336687275684  1.0000
  O   O3        1.0  0.17071129777914956  0.8107336797241942  0.24733900441398043  1.0000
  O   O4        1.0  0.32928958919506357  0.31073311954375515  0.252661774444057  1.0000
  O   O5        1.0  0.9171305198957143  0.29516616763822157  0.9902723545685889  1.0000
  O   O6        1.0  0.5828702561999535  0.7951665400947902  0.509726707542626  1.0000
  O   O7        1.0  0.08286480532002828  0.7048385848754606  0.009729198478545694  1.0000
  O   O8        1.0  0.417131867827642  0.2048344210258364  0.490270981344878  1.0000
  O   O9        1.0  0.7735550244528183  0.004646416474273  0.9459507369841589  1.0000
  O   O10       1.0  0.7264452585031479  0.5046457503066504  0.5540482245621021  1.0000
  O   O11       1.0  0.2264469790015724  0.9953570722456248  0.0540546342325499  1.0000
  O   O12       1.0  0.2735541610703436  0.495355210812022  0.4459500496978989  1.0000
