data_image0
_chemical_formula_structural       Mg2H32C12O16
_chemical_formula_sum              "Mg2 H32 C12 O16"
_cell_length_a       4.7080769103824665
_cell_length_b       9.65889088800017
_cell_length_c       11.78837151286259
_cell_angle_alpha    90.00001467072495
_cell_angle_beta     99.07645132912671
_cell_angle_gamma    89.9999818545604

_space_group_name_H-M_alt    "P 1"
_space_group_IT_number       1

loop_
  _space_group_symop_operation_xyz
  'x, y, z'

loop_
  _atom_site_type_symbol
  _atom_site_label
  _atom_site_symmetry_multiplicity
  _atom_site_fract_x
  _atom_site_fract_y
  _atom_site_fract_z
  _atom_site_occupancy
  Mg  Mg1       1.0  0.9999983160749863  0.9999999106006284  0.49999998487130887  1.0000
  Mg  Mg2       1.0  0.9999998545248944  0.5000004716897877  4.2110301018779684e-08  1.0000
  H   H1        1.0  0.34920037197276343  0.030144249225344297  0.178237812511675  1.0000
  H   H2        1.0  0.6508002229679662  0.5301457558334305  0.3217622734093482  1.0000
  H   H3        1.0  0.6508004240948467  0.9698547059341748  0.8217624339558824  1.0000
  H   H4        1.0  0.3491984286729349  0.4698552699572075  0.6782369870962626  1.0000
  H   H5        1.0  0.7236278515434691  0.8831562126963988  0.023359564279537885  1.0000
  H   H6        1.0  0.2763703935537904  0.3831568833233304  0.4766395951410018  1.0000
  H   H7        1.0  0.2763707935913615  0.11684481309438148  0.9766405441058836  1.0000
  H   H8        1.0  0.7236282515813385  0.6168431071518867  0.5233605132443273  1.0000
  H   H9        1.0  0.7782769430900629  0.05569061012688078  0.0700418590958947  1.0000
  H   H10       1.0  0.22172363698581424  0.5556901470402025  0.42995823112801196  1.0000
  H   H11       1.0  0.2217217020450662  0.9443093803483363  0.9299582492894346  1.0000
  H   H12       1.0  0.7782750081493148  0.44430984343501473  0.5700418772573173  1.0000
  H   H13       1.0  0.3283435298749069  0.8536673685806444  0.1380681443302905  1.0000
  H   H14       1.0  0.6716568768080293  0.35366794141731356  0.3619319960852252  1.0000
  H   H15       1.0  0.6716551152599166  0.14633365721012834  0.8619319640551311  1.0000
  H   H16       1.0  0.3283439257650471  0.6463330843731823  0.6380674025026991  1.0000
  H   H17       1.0  0.884363878955952  0.19705992390086635  0.6247413226769325  1.0000
  H   H18       1.0  0.11563513255136831  0.6970594597469171  0.8752580524252876  1.0000
  H   H19       1.0  0.11563476617947539  0.8029390312587948  0.37525878570831145  1.0000
  H   H20       1.0  0.8843678209544805  0.3029394954123177  0.12474148424476543  1.0000
  H   H21       1.0  0.5918128334248537  0.1797856911940769  0.5291972825604532  1.0000
  H   H22       1.0  0.4081861881343515  0.6797852123156286  0.9708020896320803  1.0000
  H   H23       1.0  0.408185811710581  0.8202132639655915  0.4708028258247907  1.0000
  H   H24       1.0  0.5918167653715044  0.32021374284361315  0.02919744703797279  1.0000
  H   H25       1.0  0.8067290145075675  0.806851478548694  0.6459817672332022  1.0000
  H   H26       1.0  0.19326992009959548  0.3068521228520567  0.8540193221221202  1.0000
  H   H27       1.0  0.19326963062726324  0.19314954724208627  0.3540183411522122  1.0000
  H   H28       1.0  0.8067287185291577  0.6931489029388584  0.1459816341430979  1.0000
  H   H29       1.0  0.5846304973955299  0.9333587707758755  0.6241095157094279  1.0000
  H   H30       1.0  0.41536837660951414  0.43335835239822973  0.8758898991952151  1.0000
  H   H31       1.0  0.41536814773959924  0.066641219699342  0.3758905926759013  1.0000
  H   H32       1.0  0.5846302750319907  0.5666406027612966  0.12410936131022511  1.0000
  C   C1        1.0  0.6992777494649971  0.9062344713460176  0.2592585900053237  1.0000
  C   C2        1.0  0.30072261361700475  0.40623506283748156  0.2407432550242561  1.0000
  C   C3        1.0  0.3007230466023075  0.0937655191290574  0.740741656462319  1.0000
  C   C4        1.0  0.6992760315181314  0.5937649276377356  0.7592568533610731  1.0000
  C   C5        1.0  0.4769837224399538  0.9417633960604874  0.1562977472418652  1.0000
  C   C6        1.0  0.5230144885538125  0.4417639860639325  0.3437014220505219  1.0000
  C   C7        1.0  0.5230127717626943  0.058237629730434975  0.8437022230612499  1.0000
  C   C8        1.0  0.4769841630870886  0.5582370397267055  0.6562978384550888  1.0000
  C   C9        1.0  0.6125757160604762  0.975234085162221  0.049536271167760014  1.0000
  C   C10       1.0  0.38742461988278626  0.4752347302486228  0.4504638897245812  1.0000
  C   C11       1.0  0.3874229290746527  0.0247659053129965  0.9504638372175691  1.0000
  C   C12       1.0  0.61257617618422  0.5247662955420083  0.5495363567431468  1.0000
  O   O1        1.0  0.88068689181501  0.8101706315056703  0.2516192165834639  1.0000
  O   O2        1.0  0.11931352716651837  0.3101712534975646  0.24838261226502575  1.0000
  O   O3        1.0  0.11931175332041727  0.189828323653991  0.74838089180178  1.0000
  O   O4        1.0  0.8806872689010916  0.6898277016619544  0.7516176342025248  1.0000
  O   O5        1.0  0.6989387031243338  0.9766142023875516  0.3516783520088609  1.0000
  O   O6        1.0  0.3010616255097958  0.4766147642984746  0.1483226569957452  1.0000
  O   O7        1.0  0.30106209294267217  0.023386823403079397  0.6483218944588601  1.0000
  O   O8        1.0  0.6989370196253333  0.5233852261767425  0.8516774513895838  1.0000
  O   O9        1.0  0.8029170616309855  0.18082513369685668  0.5417789819807766  1.0000
  O   O10       1.0  0.1970819528172854  0.6808246834514975  0.9582212382666454  1.0000
  O   O11       1.0  0.197081590010221  0.8191748567782324  0.45822027852474884  1.0000
  O   O12       1.0  0.8029209941824931  0.31917427170787965  0.04177914628321131  1.0000
  O   O13       1.0  0.7348748503335473  0.8816240352424883  0.589498992220534  1.0000
  O   O14       1.0  0.26512404726954497  0.38162468647774966  0.9105012618497597  1.0000
  O   O15       1.0  0.26512378829581  0.11837491991731497  0.4105019640445136  1.0000
  O   O16       1.0  0.7348767553041357  0.6183742686816346  0.08949813673798701  1.0000
