data_image0
_chemical_formula_structural       Zn2H24C32N20O8
_chemical_formula_sum              "Zn2 H24 C32 N20 O8"
_cell_length_a       5.522776744849616
_cell_length_b       9.582839940567283
_cell_length_c       17.5327435177267
_cell_angle_alpha    89.99901758976182
_cell_angle_beta     89.99878189576197
_cell_angle_gamma    92.42839541716012

_space_group_name_H-M_alt    "P 1"
_space_group_IT_number       1

loop_
  _space_group_symop_operation_xyz
  'x, y, z'

loop_
  _atom_site_type_symbol
  _atom_site_label
  _atom_site_symmetry_multiplicity
  _atom_site_fract_x
  _atom_site_fract_y
  _atom_site_fract_z
  _atom_site_occupancy
  Zn  Zn1       1.0  0.15444950745771993  0.10305712230555031  0.8909052078874422  1.0000
  Zn  Zn2       1.0  0.1544500158771953  0.6030510499705954  0.10909990294406667  1.0000
  H   H1        1.0  0.744283489146497  0.8461295838982893  0.07326956094629368  1.0000
  H   H2        1.0  0.744292275252704  0.3461480723273668  0.9267362118324766  1.0000
  H   H3        1.0  0.7627274882600477  0.9948677636925254  0.014348746946922097  1.0000
  H   H4        1.0  0.7627430058781499  0.4948853843301322  0.9856549132404454  1.0000
  H   H5        1.0  0.6743946263153547  0.16495814989068694  0.10571805245663059  1.0000
  H   H6        1.0  0.6744167110592443  0.6649735806668957  0.8942802129264676  1.0000
  H   H7        1.0  0.820577330863067  0.320213499373537  0.21173332645465584  1.0000
  H   H8        1.0  0.8206185219240539  0.8202167106754105  0.7882567950518009  1.0000
  H   H9        1.0  0.39900670777098673  0.0443226412517532  0.25760505747236806  1.0000
  H   H10       1.0  0.399032078505428  0.5443137611218772  0.7423915998655912  1.0000
  H   H11       1.0  0.26174891623440283  0.8930109999742725  0.15004669209857716  1.0000
  H   H12       1.0  0.2617746436272554  0.39301527427748795  0.8499589379183872  1.0000
  H   H13       1.0  0.10975967284470303  0.18833780325390143  0.709005861733729  1.0000
  H   H14       1.0  0.10974411585424089  0.6883581979298511  0.29099131166469755  1.0000
  H   H15       1.0  0.9211780616383012  0.32845266509492893  0.6924671906072176  1.0000
  H   H16       1.0  0.921136565613935  0.8284558059048734  0.3075341718116035  1.0000
  H   H17       1.0  0.5160721240746328  0.0389886137475841  0.6584324423071237  1.0000
  H   H18       1.0  0.5160791083361788  0.5389687255844822  0.3415737667002716  1.0000
  H   H19       1.0  0.40905636935866607  0.9478775376840503  0.5313530716762924  1.0000
  H   H20       1.0  0.40907015137992897  0.44785346011026667  0.46865563323660087  1.0000
  H   H21       1.0  0.0465945688386569  0.15706862547419587  0.4364282270403591  1.0000
  H   H22       1.0  0.046595738056176124  0.6570551037314518  0.563569088225698  1.0000
  H   H23       1.0  0.15636980309908927  0.24983890517109592  0.5650393556467604  1.0000
  H   H24       1.0  0.15636424389395387  0.7498347814515044  0.4349569250930755  1.0000
  C   C1        1.0  0.0650249968342962  0.866782839503678  0.0082744408270869  1.0000
  C   C2        1.0  0.0650282264301083  0.36678668238489115  0.991730445602236  1.0000
  C   C3        1.0  0.8688546058330504  0.9308170967585666  0.052917683902677495  1.0000
  C   C4        1.0  0.8688688002856678  0.4308297030421214  0.9470876051886986  1.0000
  C   C5        1.0  0.9591365967792383  0.019249788819642802  0.11990099399092455  1.0000
  C   C6        1.0  0.9591645938111811  0.519258370275992  0.8800979417197253  1.0000
  C   C7        1.0  0.8338374027587319  0.13890960183967138  0.1385111539413444  1.0000
  C   C8        1.0  0.8338684637987582  0.6389177439264841  0.8614868875718853  1.0000
  C   C9        1.0  0.9140733551322383  0.22606094957357928  0.19743679186233007  1.0000
  C   C10       1.0  0.9141012304732852  0.7260689159735136  0.8025581806827304  1.0000
  C   C11       1.0  0.11953877301971971  0.19141294559723576  0.23838751207243547  1.0000
  C   C12       1.0  0.11956684938280658  0.6914097086672726  0.7616044346715326  1.0000
  C   C13       1.0  0.2422463449629362  0.07018272012676621  0.22351722775294997  1.0000
  C   C14       1.0  0.2422753219100784  0.5701810892526565  0.7764790673034552  1.0000
  C   C15       1.0  0.16139992074061382  0.9853562821548393  0.16348144168225073  1.0000
  C   C16       1.0  0.1614305339614859  0.4853651716997975  0.8365199697500711  1.0000
  C   C17       1.0  0.768369900412175  0.1721862061887478  0.7639444158226566  1.0000
  C   C18       1.0  0.7683564404188844  0.672183318656032  0.2360577287197572  1.0000
  C   C19       1.0  0.9208086039167185  0.2134988461477576  0.6972399549090581  1.0000
  C   C20       1.0  0.9207947617520065  0.7135042366027237  0.3027619381145924  1.0000
  C   C21       1.0  0.8437911282495633  0.1519605512311273  0.6209620794298303  1.0000
  C   C22       1.0  0.8437909175061763  0.6519519780966974  0.3790403353001181  1.0000
  C   C23       1.0  0.6349963539877025  0.06579697456354688  0.6107736679492745  1.0000
  C   C24       1.0  0.6350006953012226  0.5657859825588929  0.3892286549121947  1.0000
  C   C25       1.0  0.5713881796835381  0.014535680279088605  0.5390488944865836  1.0000
  C   C26       1.0  0.5713996155214645  0.5145160934828468  0.4609537641229124  1.0000
  C   C27       1.0  0.7189454686944714  0.0501152694277636  0.4769512859025652  1.0000
  C   C28       1.0  0.7189508102255217  0.5500957534349882  0.5230506376150428  1.0000
  C   C29       1.0  0.9312361839661989  0.1336632406516856  0.48544572511102047  1.0000
  C   C30       1.0  0.9312281034320408  0.6336502644889423  0.5145562924095655  1.0000
  C   C31       1.0  0.9917011628178972  0.18433062810323975  0.5575024620245583  1.0000
  C   C32       1.0  0.9916981535603501  0.684318948893285  0.4424969645387335  1.0000
  N   N1        1.0  0.17151728522489407  0.9208370622237895  0.945358779522287  1.0000
  N   N2        1.0  0.17151983286792222  0.42083791781953295  0.05464318247574339  1.0000
  N   N3        1.0  0.34341875785599296  0.8319858285256885  0.9232502934770608  1.0000
  N   N4        1.0  0.3434100635226045  0.3319776080972403  0.07675196343711828  1.0000
  N   N5        1.0  0.3429186865936559  0.7279531481927608  0.9705765287633382  1.0000
  N   N6        1.0  0.3429043955660376  0.22794750815829457  0.029425584979250595  1.0000
  N   N7        1.0  0.1700556724525555  0.7465720088061261  0.024581874242954892  1.0000
  N   N8        1.0  0.1700528242004324  0.24657638011164107  0.9754206221025612  1.0000
  N   N9        1.0  0.2099103354277361  0.28613240651139205  0.2981326899912276  1.0000
  N   N10       1.0  0.20992381157309845  0.7861206626544899  0.7018474937954122  1.0000
  N   N11       1.0  0.4714304170384978  0.1313604897889533  0.8386543692630112  1.0000
  N   N12       1.0  0.4714272690762371  0.6313537640994016  0.16135124896588585  1.0000
  N   N13       1.0  0.664543046149909  0.10074724110545931  0.8778411336204994  1.0000
  N   N14       1.0  0.6645423167888468  0.6007365663907651  0.12216408407757479  1.0000
  N   N15       1.0  0.8542968197770903  0.12543435142554674  0.8315943524970775  1.0000
  N   N16       1.0  0.8542880399961349  0.6254315731242954  0.16840881737801539  1.0000
  N   N17       1.0  0.5264193445680547  0.1768360315328437  0.7681430449574831  1.0000
  N   N18       1.0  0.5264138079611129  0.6768385042450688  0.2318612084719902  1.0000
  N   N19       1.0  0.6487945889164451  0.9988120081575361  0.4015651685000705  1.0000
  N   N20       1.0  0.6488034825499726  0.4987941588130625  0.5984403403370064  1.0000
  O   O1        1.0  0.36356890259708763  0.2439571282862829  0.34349437109976577  1.0000
  O   O2        1.0  0.3635791971302211  0.7439332791303886  0.6564874919367796  1.0000
  O   O3        1.0  0.1294962579010388  0.4056116995456662  0.30029177033491544  1.0000
  O   O4        1.0  0.1295000736270708  0.9055895793998872  0.6996803830608228  1.0000
  O   O5        1.0  0.45772755472739846  0.9263521537305902  0.3948832153791385  1.0000
  O   O6        1.0  0.45774290924018146  0.4263299108464338  0.6051248064409761  1.0000
  O   O7        1.0  0.7839275340776624  0.0302851823046808  0.34661845672486885  1.0000
  O   O8        1.0  0.7839317979239625  0.5302750109005246  0.6533860829209315  1.0000
