data_image0
_chemical_formula_structural       Co2H18C10S2N2O12
_chemical_formula_sum              "Co2 H18 C10 S2 N2 O12"
_cell_length_a       4.940737631102144
_cell_length_b       9.933729577083849
_cell_length_c       9.737117785093039
_cell_angle_alpha    89.99983869635844
_cell_angle_beta     109.01907814747426
_cell_angle_gamma    90.0001174547821

_space_group_name_H-M_alt    "P 1"
_space_group_IT_number       1

loop_
  _space_group_symop_operation_xyz
  'x, y, z'

loop_
  _atom_site_type_symbol
  _atom_site_label
  _atom_site_symmetry_multiplicity
  _atom_site_fract_x
  _atom_site_fract_y
  _atom_site_fract_z
  _atom_site_occupancy
  Co  Co1       1.0  0.5824488242266384  0.6062806085562755  0.4344890787477381  1.0000
  Co  Co2       1.0  0.41756230099179703  0.106273656490167  0.5655172042526715  1.0000
  H   H1        1.0  0.9119996512228422  0.6537499697400193  0.29468231680563406  1.0000
  H   H2        1.0  0.08800040686799798  0.15375956850768088  0.7053262067838943  1.0000
  H   H3        1.0  0.619868287695624  0.618152763719756  0.07926460662892505  1.0000
  H   H4        1.0  0.3801548902362342  0.11815189660548239  0.9207352246913487  1.0000
  H   H5        1.0  0.9961202008008742  0.8537158955690458  0.39616439605694603  1.0000
  H   H6        1.0  0.003873923262531805  0.3537078943722349  0.6038319425165781  1.0000
  H   H7        1.0  0.9018106865946864  0.9027132491752212  0.14062962125515102  1.0000
  H   H8        1.0  0.0981851986093716  0.40270898232852653  0.859376615272005  1.0000
  H   H9        1.0  0.684602188043499  0.02408827168371629  0.1899193323340853  1.0000
  H   H10       1.0  0.31539929218909896  0.5240856352445888  0.8100812985356853  1.0000
  H   H11       1.0  0.1166567592918994  0.5982631491821235  0.5750782650806556  1.0000
  H   H12       1.0  0.8833031053212822  0.09826087979480748  0.4249224026424728  1.0000
  H   H13       1.0  0.9881137314484576  0.7254562207154507  0.6351126896093646  1.0000
  H   H14       1.0  0.0119072497442119  0.2254415591265584  0.3648830701878439  1.0000
  H   H15       1.0  0.7528399069401388  0.34993306437242205  0.19139181164760538  1.0000
  H   H16       1.0  0.24716760158436563  0.8499527723002841  0.808612075856523  1.0000
  H   H17       1.0  0.02472748701779889  0.4316803673862709  0.28011906672180226  1.0000
  H   H18       1.0  0.9752837102653585  0.9316959287162305  0.7198753350815252  1.0000
  C   C1        1.0  0.5115547330243473  0.6749974282282593  0.14317889403151438  1.0000
  C   C2        1.0  0.4884694587674048  0.17499766477916975  0.8568233056045926  1.0000
  C   C3        1.0  0.24326974228446116  0.6029804147448132  0.1468714228219667  1.0000
  C   C4        1.0  0.7567528685521482  0.10297814040449539  0.8531297289366222  1.0000
  C   C5        1.0  0.7714613553075438  0.8430245453340675  0.325898316322629  1.0000
  C   C6        1.0  0.22854903252679998  0.34301654128378795  0.6741008906251053  1.0000
  C   C7        1.0  0.583519872882796  0.8931553852702621  0.4130338311110933  1.0000
  C   C8        1.0  0.41644404711185257  0.3931280111120827  0.5869799258335959  1.0000
  C   C9        1.0  0.7219338097406478  0.916332515296325  0.1820911484198007  1.0000
  C   C10       1.0  0.2780455594183735  0.4163252058025293  0.8179055432354616  1.0000
  S   S1        1.0  0.39731398290695813  0.8402910274566576  0.0628562651212974  1.0000
  S   S2        1.0  0.6026811877270434  0.34028081354273343  0.9371444190198518  1.0000
  N   N1        1.0  0.7201003104277107  0.6963689728976376  0.2925546431845518  1.0000
  N   N2        1.0  0.2799162347375059  0.19636334207658024  0.7074554606405741  1.0000
  O   O1        1.0  0.0355620744122689  0.5872326931096765  0.0357520907586206  1.0000
  O   O2        1.0  0.9644403587396085  0.0872442302135568  0.9642426881826224  1.0000
  O   O3        1.0  0.24882485318109807  0.5646562830950543  0.2774127874643  1.0000
  O   O4        1.0  0.7511776669316178  0.0646442545921246  0.7225917892402904  1.0000
  O   O5        1.0  0.44953278253124296  0.8097726601195419  0.4639817222724716  1.0000
  O   O6        1.0  0.5504584650910687  0.3097586606827463  0.5359996439678696  1.0000
  O   O7        1.0  0.5882001029403199  0.021287111794059396  0.43460057379466827  1.0000
  O   O8        1.0  0.41178613037206463  0.5213068145868148  0.5653850732885815  1.0000
  O   O9        1.0  0.9395519301647254  0.6320339217423406  0.5919984246294305  1.0000
  O   O10       1.0  0.060448378390013595  0.1320317113653147  0.4080084599674905  1.0000
  O   O11       1.0  0.8799124344475472  0.3668015544686298  0.2910478260809341  1.0000
  O   O12       1.0  0.12006331415406632  0.8668218602359729  0.7089388002567462  1.0000
