data_image0
_chemical_formula_structural       Sr4H24C24N8O24
_chemical_formula_sum              "Sr4 H24 C24 N8 O24"
_cell_length_a       6.944577031175801
_cell_length_b       10.792717847081928
_cell_length_c       12.336033467485306
_cell_angle_alpha    97.88686542290624
_cell_angle_beta     90.00001830485651
_cell_angle_gamma    90.00082299572652

_space_group_name_H-M_alt    "P 1"
_space_group_IT_number       1

loop_
  _space_group_symop_operation_xyz
  'x, y, z'

loop_
  _atom_site_type_symbol
  _atom_site_label
  _atom_site_symmetry_multiplicity
  _atom_site_fract_x
  _atom_site_fract_y
  _atom_site_fract_z
  _atom_site_occupancy
  Sr  Sr1       1.0  0.8224758775557034  0.44355662176003813  0.630819393937621  1.0000
  Sr  Sr2       1.0  0.3224843273724432  0.0564440236920376  0.8691812445273827  1.0000
  Sr  Sr3       1.0  0.17751911533436973  0.5564402984882475  0.3691752710567684  1.0000
  Sr  Sr4       1.0  0.6775308252412414  0.9435618703519136  0.13082718530797874  1.0000
  H   H1        1.0  0.6932256242471055  0.6126562570815821  0.0990953769137874  1.0000
  H   H2        1.0  0.19321427703906116  0.8873478912610865  0.4009064472989081  1.0000
  H   H3        1.0  0.30676072869572124  0.387331070263322  0.9008927698754476  1.0000
  H   H4        1.0  0.8067490364859182  0.112650840193794  0.5991086563331507  1.0000
  H   H5        1.0  0.7356867103784522  0.6343431308910965  0.8992059614737471  1.0000
  H   H6        1.0  0.2356961915378974  0.8656624487837518  0.6007981886913782  1.0000
  H   H7        1.0  0.2643313220633914  0.3656529599158845  0.1007910645246497  1.0000
  H   H8        1.0  0.7643103211271765  0.1343333383892613  0.3992134123871764  1.0000
  H   H9        1.0  0.17460074731661024  0.5794279664157713  0.790030672202647  1.0000
  H   H10       1.0  0.6745976072684313  0.9205657965624781  0.7099716098751614  1.0000
  H   H11       1.0  0.8253798460642726  0.4205877537836786  0.20996807217932204  1.0000
  H   H12       1.0  0.32538586563423166  0.07941270932403909  0.2900279327204771  1.0000
  H   H13       1.0  0.0651238186491483  0.6945868390807561  0.7690630421855786  1.0000
  H   H14       1.0  0.5651166364159438  0.805409791095805  0.7309426955103576  1.0000
  H   H15       1.0  0.9348524547858758  0.3054266960360509  0.23092821007828954  1.0000
  H   H16       1.0  0.43485819674425835  0.19457606442213654  0.2690761481633288  1.0000
  H   H17       1.0  0.5779097054193372  0.3429841160538629  0.4216875463408059  1.0000
  H   H18       1.0  0.0779115360098359  0.1570180087698887  0.0783133803898153  1.0000
  H   H19       1.0  0.42208960733564277  0.6570081655727905  0.5783075237850356  1.0000
  H   H20       1.0  0.9220964167970321  0.8429926641402686  0.9216979014047978  1.0000
  H   H21       1.0  0.7858895262491501  0.3685960439758063  0.378733493595611  1.0000
  H   H22       1.0  0.2858807336585159  0.1314033997891286  0.1212688971955274  1.0000
  H   H23       1.0  0.21409394691269773  0.6314054797963706  0.6212599519899911  1.0000
  H   H24       1.0  0.7141185791737144  0.8685950863808359  0.8787405065460093  1.0000
  C   C1        1.0  0.8169682824987063  0.3328379002143791  0.8905405473725522  1.0000
  C   C2        1.0  0.3169646131069541  0.1671748809696822  0.6094619626542581  1.0000
  C   C3        1.0  0.18305406992472228  0.6671637990598498  0.1094569696014105  1.0000
  C   C4        1.0  0.6830390196358208  0.8328232896399967  0.390540112631939  1.0000
  C   C5        1.0  0.7688255728678826  0.3188727277449884  0.9990446330815175  1.0000
  C   C6        1.0  0.2688163612078895  0.1811433824111361  0.5009589618960177  1.0000
  C   C7        1.0  0.2311838199128644  0.6811384591393832  0.0009569592656006955  1.0000
  C   C8        1.0  0.7311671118877499  0.8188519838817214  0.4990428678918022  1.0000
  C   C9        1.0  0.7247024769376081  0.5320031959492866  0.0379511281499703  1.0000
  C   C10       1.0  0.22470310219709688  0.9680028323876971  0.4620443825716123  1.0000
  C   C11       1.0  0.2752939560270988  0.46800286133098007  0.9620394694950533  1.0000
  C   C12       1.0  0.7752875707740826  0.0319935738730734  0.537959971868581  1.0000
  C   C13       1.0  0.7502150115794635  0.5434531791642669  0.9276982983985036  1.0000
  C   C14       1.0  0.2502178956731242  0.9565503146526882  0.572297562464982  1.0000
  C   C15       1.0  0.2498030208194848  0.4565396165164585  0.0722870822900035  1.0000
  C   C16       1.0  0.7497799771264156  0.0434427383856857  0.4277154216681751  1.0000
  C   C17       1.0  0.908906436430371  0.22971753088620517  0.8106667742653144  1.0000
  C   C18       1.0  0.40889798867551963  0.2703006686655911  0.6893338102384305  1.0000
  C   C19       1.0  0.0911101560572192  0.7702802891386611  0.18932715829751603  1.0000
  C   C20       1.0  0.5911056440886142  0.7296993714265199  0.31066842870544065  1.0000
  C   C21       1.0  0.7426896366884604  0.19315932079192774  0.0383838111774821  1.0000
  C   C22       1.0  0.24268227291919686  0.3068527048230223  0.46161723157914036  1.0000
  C   C23       1.0  0.25732263600527017  0.8068490618821115  0.961617535684816  1.0000
  C   C24       1.0  0.7572983202527794  0.6931445309389589  0.5383847618646627  1.0000
  N   N1        1.0  0.8007900095478745  0.4447900261603621  0.8555585352453791  1.0000
  N   N2        1.0  0.3007780638719453  0.05521318789225658  0.6444415089100772  1.0000
  N   N3        1.0  0.1992352228151404  0.5552114276758787  0.1444332818185927  1.0000
  N   N4        1.0  0.6992198089396454  0.9447813138548893  0.3555618676035762  1.0000
  N   N5        1.0  0.7316058841594639  0.4198038236149984  0.0729447535478727  1.0000
  N   N6        1.0  0.2315861289807373  0.08021374299612917  0.4270575814088104  1.0000
  N   N7        1.0  0.2683977486831139  0.5802033788265888  0.9270508115688186  1.0000
  N   N8        1.0  0.7683872643791716  0.9197875823421527  0.5729528820770966  1.0000
  O   O1        1.0  0.8390797219597772  0.1691806194270669  0.1217409246821362  1.0000
  O   O2        1.0  0.3390713869893247  0.3308287335717353  0.3782639755161057  1.0000
  O   O3        1.0  0.1609426305675115  0.8308298431628175  0.8782654714823579  1.0000
  O   O4        1.0  0.6609164060283135  0.6691672869665267  0.6217314219183052  1.0000
  O   O5        1.0  0.6172705246937156  0.12050765392951489  0.9909100734200821  1.0000
  O   O6        1.0  0.11724279678147549  0.379502685039391  0.5090783590280523  1.0000
  O   O7        1.0  0.3827590276250632  0.8794968846661176  0.009088503317734378  1.0000
  O   O8        1.0  0.882743556361298  0.620501818292098  0.4909194034112545  1.0000
  O   O9        1.0  0.9149415269304058  0.24830983823813574  0.711377418049004  1.0000
  O   O10       1.0  0.4149457074787151  0.2517076577416049  0.7886271630984254  1.0000
  O   O11       1.0  0.08507794550977368  0.7516887762833662  0.2886133392519667  1.0000
  O   O12       1.0  0.585060805322648  0.7483006197123885  0.211371740941189  1.0000
  O   O13       1.0  0.9799982948545605  0.13810539564664737  0.8507975108124981  1.0000
  O   O14       1.0  0.47998037584120107  0.3619165808390719  0.6492107312616113  1.0000
  O   O15       1.0  0.020019737703187008  0.8619009071847543  0.1491987867569193  1.0000
  O   O16       1.0  0.5200275768014393  0.6380803394691128  0.3507839337403952  1.0000
  O   O17       1.0  0.0853097873402646  0.607624565018483  0.7344055069944703  1.0000
  O   O18       1.0  0.5853089368581551  0.8923768553637571  0.7655990350496964  1.0000
  O   O19       1.0  0.9146708060489671  0.39239198472876075  0.2655908763970416  1.0000
  O   O20       1.0  0.41467885606666494  0.10761044892285551  0.23441020101211052  1.0000
  O   O21       1.0  0.7152600631164815  0.3438964234200482  0.4425991422437434  1.0000
  O   O22       1.0  0.21526329347864248  0.1560975535370659  0.0573994992303  1.0000
  O   O23       1.0  0.28473780970637813  0.6560994919713893  0.5573938123773061  1.0000
  O   O24       1.0  0.7847518590801031  0.8439035966718649  0.9426068929146751  1.0000
