data_image0
_chemical_formula_structural       Na4Cu2H20C20O24
_chemical_formula_sum              "Na4 Cu2 H20 C20 O24"
_cell_length_a       6.8850914945882185
_cell_length_b       8.92472151826876
_cell_length_c       13.039370285251723
_cell_angle_alpha    86.49285809296491
_cell_angle_beta     80.8589697376688
_cell_angle_gamma    67.34579683947987

_space_group_name_H-M_alt    "P 1"
_space_group_IT_number       1

loop_
  _space_group_symop_operation_xyz
  'x, y, z'

loop_
  _atom_site_type_symbol
  _atom_site_label
  _atom_site_symmetry_multiplicity
  _atom_site_fract_x
  _atom_site_fract_y
  _atom_site_fract_z
  _atom_site_occupancy
  Na  Na1       1.0  0.5738423787144455  0.20631580077407113  0.6305379210979822  1.0000
  Na  Na2       1.0  0.21998898989641455  0.20620831307997628  0.8694767465799201  1.0000
  Na  Na3       1.0  0.4261647052696986  0.7936776263514747  0.3694605225031324  1.0000
  Na  Na4       1.0  0.7800138709606159  0.7937936133867398  0.13052399578872104  1.0000
  Cu  Cu1       1.0  0.011322902515999522  0.9771698296910362  0.7500057413444239  1.0000
  Cu  Cu2       1.0  0.9886693208495885  0.02283573713300059  0.24999653216791978  1.0000
  H   H1        1.0  0.980061796228618  0.48829150505787317  0.3122294599927145  1.0000
  H   H2        1.0  0.5314652569884262  0.4886284800915631  0.18774177474591616  1.0000
  H   H3        1.0  0.019933429189194433  0.5117079906716598  0.6877697485241896  1.0000
  H   H4        1.0  0.4685299917993861  0.5113710158585077  0.8122597324934092  1.0000
  H   H5        1.0  0.6645864999324759  0.1710090186109525  0.41387747636181865  1.0000
  H   H6        1.0  0.16436714770766508  0.17104539752875075  0.0861632158652128  1.0000
  H   H7        1.0  0.3354137603848315  0.8289892642037485  0.5861228821884623  1.0000
  H   H8        1.0  0.8356254091129074  0.8289565263019157  0.913837652626782  1.0000
  H   H9        1.0  0.440190489279793  0.1540317599456245  0.4342069803439088  1.0000
  H   H10       1.0  0.405650444386808  0.15420344001679356  0.06585051585140889  1.0000
  H   H11       1.0  0.5598197104589815  0.8459701682044385  0.5657915921401439  1.0000
  H   H12       1.0  0.5943473815707208  0.845799699364754  0.9341490764838412  1.0000
  H   H13       1.0  0.3216399461602394  0.5635704017633004  0.6527752387643133  1.0000
  H   H14       1.0  0.11457430275657292  0.5636519163423942  0.8472465886014363  1.0000
  H   H15       1.0  0.6783600565496072  0.4364254523651426  0.34722524725368237  1.0000
  H   H16       1.0  0.885422151526136  0.43634515121399187  0.15275415238419038  1.0000
  H   H17       1.0  0.5325225329463875  0.5695191457705846  0.6035585855068035  1.0000
  H   H18       1.0  0.8979438422679779  0.5693185969727849  0.8965343176410129  1.0000
  H   H19       1.0  0.46748015394070547  0.4304742804037502  0.3964417730177132  1.0000
  H   H20       1.0  0.1020493134050398  0.4306821126242824  0.10346578460373482  1.0000
  C   C1        1.0  0.9717654823081431  0.64748236356256  0.544380561566463  1.0000
  C   C2        1.0  0.3806237200746948  0.6473275466561786  0.9555625804942025  1.0000
  C   C3        1.0  0.028233837911734814  0.352520776405605  0.4556212020106117  1.0000
  C   C4        1.0  0.6193748506928074  0.3526683074737563  0.044441864208423006  1.0000
  C   C5        1.0  0.9562073612590181  0.640929421709515  0.4388140803983589  1.0000
  C   C6        1.0  0.40255667447011945  0.6410263379793408  0.061136625141031666  1.0000
  C   C7        1.0  0.04379785032026015  0.35907371979647007  0.5611879394971453  1.0000
  C   C8        1.0  0.5974477876567904  0.3589695176884149  0.9388680758800163  1.0000
  C   C9        1.0  0.9847346983241819  0.4934515931905213  0.3953655550916864  1.0000
  C   C10       1.0  0.521606508250521  0.4936709574546827  0.10461568134241618  1.0000
  C   C11       1.0  0.015267555890396566  0.5065515474362883  0.6046351872833924  1.0000
  C   C12       1.0  0.47839326801187804  0.5063224682815601  0.8953879971065175  1.0000
  C   C13       1.0  0.9242772295973294  0.8041875246788807  0.5982749912507686  1.0000
  C   C14       1.0  0.27152090484879204  0.8039339461784608  0.901562787777948  1.0000
  C   C15       1.0  0.07572594913468583  0.19581075864742561  0.4017228136159119  1.0000
  C   C16       1.0  0.7284651695499347  0.19606919042150392  0.09843935688367371  1.0000
  C   C17       1.0  0.9138316142156739  0.7852042378247645  0.3680419857942709  1.0000
  C   C18       1.0  0.3008058507323102  0.7853828917456981  0.1318798701932167  1.0000
  C   C19       1.0  0.0861818607627853  0.2147940480640784  0.6319549267082465  1.0000
  C   C20       1.0  0.6991918682176888  0.21462631902142706  0.8681179347314439  1.0000
  O   O1        1.0  0.74945305932782  0.9192266136993441  0.5944736270112614  1.0000
  O   O2        1.0  0.3314182206221334  0.9190146322769268  0.9053687011556447  1.0000
  O   O3        1.0  0.25055534180114597  0.08077288473676701  0.4055183042538317  1.0000
  O   O4        1.0  0.6685797980329227  0.0809824365276981  0.0946411072390703  1.0000
  O   O5        1.0  0.0711816158787429  0.8020934046140413  0.6503517476324417  1.0000
  O   O6        1.0  0.1267155098660099  0.8017911102281303  0.8495014579255481  1.0000
  O   O7        1.0  0.9288093708319562  0.19791459030963676  0.34964822717036276  1.0000
  O   O8        1.0  0.8732751600648213  0.19819988440485053  0.1505008141522381  1.0000
  O   O9        1.0  0.7602716546991174  0.8267018186225529  0.3175894414261364  1.0000
  O   O10       1.0  0.41284068186119777  0.8267942163581168  0.1824343657945207  1.0000
  O   O11       1.0  0.23973862088718795  0.17329403784788164  0.6824078535052748  1.0000
  O   O12       1.0  0.5871706688424678  0.1732052828836572  0.8175580767501882  1.0000
  O   O13       1.0  0.048393274307784485  0.8552657544257728  0.36052720525794507  1.0000
  O   O14       1.0  0.09628793735781478  0.8555269957093757  0.13932657486081718  1.0000
  O   O15       1.0  0.9516154077986412  0.14473617291713484  0.6394668972618547  1.0000
  O   O16       1.0  0.9037072200024667  0.14447857177330556  0.8606746774495235  1.0000
  O   O17       1.0  0.5209702564605365  0.2174208917802005  0.4526713004608283  1.0000
  O   O18       1.0  0.2616007153927881  0.2174439131540069  0.04730871109912728  1.0000
  O   O19       1.0  0.4790391101883317  0.7825798221377555  0.5473304644606003  1.0000
  O   O20       1.0  0.7383909247003471  0.7825628680506612  0.9526958611420752  1.0000
  O   O21       1.0  0.4733477524918969  0.49473853240348836  0.6428868237887143  1.0000
  O   O22       1.0  0.03175777477444806  0.4946924075610114  0.857095839688327  1.0000
  O   O23       1.0  0.5266507616931335  0.5052512487970802  0.3571033172675584  1.0000
  O   O24       1.0  0.9682374818033707  0.5053070884625799  0.14290643379180074  1.0000
