data_image0
_chemical_formula_structural       Cu8H24C40N16
_chemical_formula_sum              "Cu8 H24 C40 N16"
_cell_length_a       6.735124751600282
_cell_length_b       9.45272185841113
_cell_length_c       15.34923385692228
_cell_angle_alpha    83.84402962830677
_cell_angle_beta     81.44106106037323
_cell_angle_gamma    72.24912039401136

_space_group_name_H-M_alt    "P 1"
_space_group_IT_number       1

loop_
  _space_group_symop_operation_xyz
  'x, y, z'

loop_
  _atom_site_type_symbol
  _atom_site_label
  _atom_site_symmetry_multiplicity
  _atom_site_fract_x
  _atom_site_fract_y
  _atom_site_fract_z
  _atom_site_occupancy
  Cu  Cu1       1.0  0.5431150351095937  0.7407679690671644  0.6481670800926339  1.0000
  Cu  Cu2       1.0  0.45687920044498753  0.25922220970310417  0.3518323999610046  1.0000
  Cu  Cu3       1.0  0.35596808175350947  0.9155608280744549  0.14870218683228836  1.0000
  Cu  Cu4       1.0  0.6440397198970871  0.08443957588127661  0.8512970326108444  1.0000
  Cu  Cu5       1.0  0.6582940852222734  0.5169386574820366  0.9475678686850983  1.0000
  Cu  Cu6       1.0  0.3417171913443866  0.4830606678299674  0.052433149028331606  1.0000
  Cu  Cu7       1.0  0.09720477417462091  0.08436378579230559  0.4480972560568688  1.0000
  Cu  Cu8       1.0  0.9028000797533055  0.9156399398177016  0.5519032399145942  1.0000
  H   H1        1.0  0.9360348233011209  0.3030063488076705  0.32255225277472016  1.0000
  H   H2        1.0  0.06395851984113676  0.6969927691679559  0.6774453921498492  1.0000
  H   H3        1.0  0.7668079471061234  0.4347061675526902  0.6922845920676862  1.0000
  H   H4        1.0  0.2331858815568565  0.565291837291916  0.3077137461080284  1.0000
  H   H5        1.0  0.08179052512644344  0.2090312477782632  0.18667723321573962  1.0000
  H   H6        1.0  0.9182178418530498  0.7909747558247204  0.8133235337821888  1.0000
  H   H7        1.0  0.907525480908795  0.3288143970591761  0.8219353317039335  1.0000
  H   H8        1.0  0.09246936223686926  0.6711847374173702  0.1780687289172036  1.0000
  H   H9        1.0  0.3942799640695895  0.8858040286251807  0.9658555462740922  1.0000
  H   H10       1.0  0.6057163708261158  0.11419512350764192  0.034145809530528495  1.0000
  H   H11       1.0  0.5406683107172016  0.7791385655887453  0.4623128352361547  1.0000
  H   H12       1.0  0.4593279825058332  0.22085723040252253  0.5376861390209697  1.0000
  H   H13       1.0  0.9683048708897104  0.1972622799360337  0.620639520051192  1.0000
  H   H14       1.0  0.03170591838764374  0.8027381587545648  0.3793588500154428  1.0000
  H   H15       1.0  0.130344497692306  0.11467992147741063  0.7327882945274523  1.0000
  H   H16       1.0  0.8696483646454428  0.8853203089690355  0.2672138688677493  1.0000
  H   H17       1.0  0.761013083772255  0.5311646626616309  0.22979514806063156  1.0000
  H   H18       1.0  0.23897876644090837  0.4688344378227782  0.7702038987500188  1.0000
  H   H19       1.0  0.83186875215965  0.4287569213653342  0.11395781221506243  1.0000
  H   H20       1.0  0.16813763578050359  0.5712501779599748  0.8860430119525873  1.0000
  H   H21       1.0  0.56474719428099  0.7651477709246493  0.3003126722750906  1.0000
  H   H22       1.0  0.4352566087973245  0.23485146816913274  0.6996855828904458  1.0000
  H   H23       1.0  0.3715390926290424  0.8969584349688092  0.804711980056055  1.0000
  H   H24       1.0  0.6284592218955183  0.1030396213591587  0.19528997004405824  1.0000
  C   C1        1.0  0.02779434199543831  0.2278549417777853  0.942921503601923  1.0000
  C   C2        1.0  0.9722025183250694  0.7721464536131466  0.05708097260566089  1.0000
  C   C3        1.0  0.1678611217756227  0.10112030539720251  0.9846798376771417  1.0000
  C   C4        1.0  0.8321377175842246  0.898879994271411  0.015322581360720693  1.0000
  C   C5        1.0  0.7174727668875319  0.5486088002238674  0.48465295948020787  1.0000
  C   C6        1.0  0.2825220703628729  0.4513903350779318  0.515344586488723  1.0000
  C   C7        1.0  0.8467497698953608  0.40768137922979975  0.35127834931400054  1.0000
  C   C8        1.0  0.15325100506257877  0.5923144688225009  0.6487196766109804  1.0000
  C   C9        1.0  0.8312874462388321  0.4123959609758999  0.4438918587400167  1.0000
  C   C10       1.0  0.16871086415905262  0.5876020959297537  0.5561055311035545  1.0000
  C   C11       1.0  0.785377061049239  0.4304195756134206  0.6207916311003673  1.0000
  C   C12       1.0  0.2146182623114115  0.5695784464748357  0.3792072595849234  1.0000
  C   C13       1.0  0.067743464089034  0.21259987217895573  0.1166624138717651  1.0000
  C   C14       1.0  0.9322638549884773  0.7874016444951693  0.883339369646336  1.0000
  C   C15       1.0  0.015238431405407482  0.2309202354707836  0.8515839270246559  1.0000
  C   C16       1.0  0.9847564111507342  0.7690788990882923  0.148419482131267  1.0000
  C   C17       1.0  0.29123305336206323  0.9822792284542389  0.9333188494515882  1.0000
  C   C18       1.0  0.7087657466832197  0.0177177147427088  0.06668379389967073  1.0000
  C   C19       1.0  0.6249543111270485  0.6760850706579121  0.4310393100418182  1.0000
  C   C20       1.0  0.3750435161082136  0.3239140990486575  0.5689599924115001  1.0000
  C   C21       1.0  0.8987036094080805  0.29773146518735427  0.5808446647356577  1.0000
  C   C22       1.0  0.1013011629430949  0.7022655478919547  0.41915302253648434  1.0000
  C   C23       1.0  0.13812219860663083  0.11357236962115991  0.8031805958178778  1.0000
  C   C24       1.0  0.8618731294702329  0.8864256518068885  0.1968235065891761  1.0000
  C   C25       1.0  0.752163964757962  0.5334015393565822  0.30106930439325197  1.0000
  C   C26       1.0  0.24783188284843752  0.4665987261548352  0.6989294037645665  1.0000
  C   C27       1.0  0.9294490896444856  0.33615345702818195  0.07582041966949761  1.0000
  C   C28       1.0  0.07055079643829025  0.6638513297343351  0.9241796799177493  1.0000
  C   C29       1.0  0.6407574332606529  0.6675907697189486  0.34100640332962223  1.0000
  C   C30       1.0  0.35924338160137376  0.3324084347224883  0.6589920497471908  1.0000
  C   C31       1.0  0.2769778071843802  0.9889837007964887  0.8439746844099361  1.0000
  C   C32       1.0  0.7230170353717612  0.011015433762580101  0.1560287247459868  1.0000
  C   C33       1.0  0.5405325427555993  0.6362633486146693  0.04927362037749112  1.0000
  C   C34       1.0  0.45945894105958013  0.3637469342506919  0.9507253631722818  1.0000
  C   C35       1.0  0.21237404750099384  0.0335084073360932  0.33265063553539415  1.0000
  C   C36       1.0  0.7876322641681451  0.9664919787157941  0.6673532431199264  1.0000
  C   C37       1.0  0.6424536169724391  0.6047156892884333  0.8319053568071837  1.0000
  C   C38       1.0  0.3575556805548814  0.3952847317459031  0.1680957180759677  1.0000
  C   C39       1.0  0.22556259746620802  0.969577991197419  0.547823812141246  1.0000
  C   C40       1.0  0.7744393046123578  0.030429056644536  0.452173400102005  1.0000
  N   N1        1.0  0.9054012594515156  0.3446717375297582  0.9909238953539231  1.0000
  N   N2        1.0  0.0946005669455658  0.6553285969562452  0.009077022842213  1.0000
  N   N3        1.0  0.925788452000276  0.2877286105457344  0.49400693397151935  1.0000
  N   N4        1.0  0.07421337203869864  0.712271724270373  0.5059913783637313  1.0000
  N   N5        1.0  0.6991600327395346  0.5556141832241507  0.5745752109556648  1.0000
  N   N6        1.0  0.30083230122577476  0.4443838043768125  0.42542257471046707  1.0000
  N   N7        1.0  0.18401126737082052  0.09525298462362027  0.07312362054419448  1.0000
  N   N8        1.0  0.8159900752741222  0.9047484627458215  0.9268785587964672  1.0000
  N   N9        1.0  0.48911892704206394  0.7379741777077128  0.09473289354190231  1.0000
  N   N10       1.0  0.5108843482533417  0.2620228184580569  0.9052616353597785  1.0000
  N   N11       1.0  0.35027575049026893  0.8941536254661459  0.5930010836307105  1.0000
  N   N12       1.0  0.6497349654637076  0.1058400995384048  0.4070035982496947  1.0000
  N   N13       1.0  0.27541426561134597  0.9823365860632548  0.2635157958740137  1.0000
  N   N14       1.0  0.7245964825828751  0.017660496403266304  0.7364808441103534  1.0000
  N   N15       1.0  0.6118077383161306  0.6636414309775418  0.7614257377963085  1.0000
  N   N16       1.0  0.3881960641726537  0.33635780819876265  0.2385718659040066  1.0000
