data_image0
_chemical_formula_structural       Zn2H2C34N10O24F20
_chemical_formula_sum              "Zn2 H2 C34 N10 O24 F20"
_cell_length_a       10.793079646196661
_cell_length_b       14.726164033945327
_cell_length_c       16.007611182032544
_cell_angle_alpha    90.13086245360304
_cell_angle_beta     89.94875495921552
_cell_angle_gamma    91.10913120020852

_space_group_name_H-M_alt    "P 1"
_space_group_IT_number       1

loop_
  _space_group_symop_operation_xyz
  'x, y, z'

loop_
  _atom_site_type_symbol
  _atom_site_label
  _atom_site_symmetry_multiplicity
  _atom_site_fract_x
  _atom_site_fract_y
  _atom_site_fract_z
  _atom_site_occupancy
  Zn  Zn1       1.0  0.5113808663156618  0.404388090100234  0.5012437551792674  1.0000
  Zn  Zn2       1.0  0.506177396280762  0.594412544702493  0.4994738091686912  1.0000
  H   H1        1.0  0.6373231951001018  0.4310952304715486  0.0616502431717265  1.0000
  H   H2        1.0  0.6426569967601949  0.5728184666267283  0.082280841713839  1.0000
  C   C1        1.0  0.510493354157191  0.49654557284999623  0.3386054747044654  1.0000
  C   C2        1.0  0.2704232517418959  0.48776771524323004  0.4937477993922387  1.0000
  C   C3        1.0  0.495798456020175  0.502546608252139  0.6620367378887198  1.0000
  C   C4        1.0  0.7462816501630272  0.5131343380973947  0.505825930757972  1.0000
  C   C5        1.0  0.03438403568138431  0.4092231420544011  0.49752204020175844  1.0000
  C   C6        1.0  0.05315455367946241  0.5415082798319446  0.4288469531666621  1.0000
  C   C7        1.0  0.9549284623276435  0.46129183033160365  0.4309661050747381  1.0000
  C   C8        1.0  0.8845136619338518  0.5120088603887468  0.5032451966275675  1.0000
  C   C9        1.0  0.9636050300278001  0.4597942262582252  0.5698176137773387  1.0000
  C   C10       1.0  0.9822782007957258  0.592075581748752  0.5011219393208466  1.0000
  C   C11       1.0  0.061771637566160116  0.5400967273250288  0.5677166884976972  1.0000
  C   C12       1.0  0.1321712163212041  0.48931101596353704  0.49541129189283595  1.0000
  C   C13       1.0  0.5387291769528558  0.41449253434413447  0.0500154401513271  1.0000
  C   C14       1.0  0.5506535527478392  0.5807032788565608  0.05406699121128611  1.0000
  C   C15       1.0  0.569333922862775  0.5746145417154409  0.9578595556793134  1.0000
  C   C16       1.0  0.5286397911998222  0.4057080186777354  0.9542437225061492  1.0000
  C   C17       1.0  0.4909310583420634  0.5025597453435895  0.7525809600287019  1.0000
  C   C18       1.0  0.4660079146602741  0.49923269812737203  0.08445105837409982  1.0000
  C   C19       1.0  0.4814539608912439  0.49887719945288483  0.9179203845791053  1.0000
  C   C20       1.0  0.3426732593726101  0.5120943251525958  0.9478541978921131  1.0000
  C   C21       1.0  0.3341682335044993  0.5115229037617867  0.04656946181376041  1.0000
  C   C22       1.0  0.4868661991210601  0.5003610644523775  0.8280972226289196  1.0000
  C   C23       1.0  0.47161782864380086  0.4971043720154286  0.1747253507533344  1.0000
  C   C24       1.0  0.4944430311641668  0.49610932360695176  0.24877854684739026  1.0000
  C   C25       1.0  0.443516744389605  0.9451539233380617  0.408262305616411  1.0000
  C   C26       1.0  0.43091405582989484  0.051243751865151  0.4118171409277807  1.0000
  C   C27       1.0  0.6237563089772918  0.9467230564224209  0.5156672062989217  1.0000
  C   C28       1.0  0.6297670028574132  0.053467763044444915  0.5029637512518833  1.0000
  C   C29       1.0  0.48755045072475406  0.9099980363151945  0.4958217158751524  1.0000
  C   C30       1.0  0.4918767289348907  0.09004930511582641  0.493916708268813  1.0000
  C   C31       1.0  0.41678730775233663  0.05290651979396442  0.5722954118829195  1.0000
  C   C32       1.0  0.3988404571695482  0.9470779289945811  0.5663207292528158  1.0000
  C   C33       1.0  0.500011079665974  0.1886629922494905  0.4959865655119132  1.0000
  C   C34       1.0  0.48832363888177344  0.8114408618824814  0.4973597954122583  1.0000
  N   N1        1.0  0.5164132394568597  0.2659878686459437  0.5034618020952594  1.0000
  N   N2        1.0  0.49469732959251894  0.7333282417909504  0.4985021953114882  1.0000
  N   N3        1.0  0.4743710696009274  0.09975582453750322  0.3272255987670647  1.0000
  N   N4        1.0  0.5339662483125522  0.9083603150347558  0.33557469092561126  1.0000
  N   N5        1.0  0.2582359818462834  0.9107181483454952  0.5497011538229872  1.0000
  N   N6        1.0  0.2910484624108847  0.10463062167553264  0.5922328716649761  1.0000
  N   N7        1.0  0.5577776655279294  0.6694077053909027  0.9113411382574486  1.0000
  N   N8        1.0  0.4459100382324833  0.3212267925822447  0.9241302200808122  1.0000
  N   N9        1.0  0.2366834342730613  0.43866684912695325  0.07626589457396452  1.0000
  N   N10       1.0  0.2716641740037673  0.5997120212502765  0.0890827979734539  1.0000
  O   O1        1.0  0.5135754755677128  0.41935697245231307  0.3737550226507126  1.0000
  O   O2        1.0  0.5181952611303656  0.5744929724651514  0.37269594346340545  1.0000
  O   O3        1.0  0.3219734623062038  0.41138254448380007  0.49583806836538014  1.0000
  O   O4        1.0  0.3215425047271125  0.5662194829764857  0.49160058265425743  1.0000
  O   O5        1.0  0.4986048262797311  0.4247190298673616  0.627948587539457  1.0000
  O   O6        1.0  0.49665875003211807  0.5798384072084843  0.627114028569487  1.0000
  O   O7        1.0  0.6954907762992875  0.43461425088689515  0.5066517207589671  1.0000
  O   O8        1.0  0.694400647263585  0.5894981781585572  0.5061652183159425  1.0000
  O   O9        1.0  0.5429534678803664  0.16631380201513926  0.3324641123594604  1.0000
  O   O10       1.0  0.4225562596561829  0.06692304713183009  0.265952583004463  1.0000
  O   O11       1.0  0.6184644215427894  0.9589859688359257  0.31277387718908056  1.0000
  O   O12       1.0  0.5074318175750676  0.8315688711121114  0.3125438403298162  1.0000
  O   O13       1.0  0.1839572995647032  0.9637256653805224  0.5207894890306619  1.0000
  O   O14       1.0  0.24315448993355204  0.8311379687101165  0.5686955321711196  1.0000
  O   O15       1.0  0.2647885486023966  0.16941775862152755  0.5487698730983868  1.0000
  O   O16       1.0  0.24045505611807977  0.07573484635713609  0.6554576053397982  1.0000
  O   O17       1.0  0.6438967344699122  0.688620148031518  0.8643987189514918  1.0000
  O   O18       1.0  0.46587143552033433  0.7138804214065145  0.9266895715551302  1.0000
  O   O19       1.0  0.4762245216524121  0.28937300236092517  0.8566068833212201  1.0000
  O   O20       1.0  0.3626506499092841  0.29485086342355543  0.9707349271956078  1.0000
  O   O21       1.0  0.2715915575402974  0.37945891651583  0.1235507691800066  1.0000
  O   O22       1.0  0.1312037627465443  0.4512855019961251  0.0502960028423161  1.0000
  O   O23       1.0  0.2533796179298164  0.5883160325608687  0.1640455066004733  1.0000
  O   O24       1.0  0.24776096503107678  0.6657621388399804  0.0471746247290952  1.0000
  F   F1        1.0  0.8961681367234532  0.4246519603435532  0.36369918493486614  1.0000
  F   F2        1.0  0.27264207738849683  0.44227218099943855  0.9147509460855334  1.0000
  F   F3        1.0  0.29749265352072735  0.5880254520931985  0.9129725693418396  1.0000
  F   F4        1.0  0.65446124769759  0.9261587552998948  0.5951864452732212  1.0000
  F   F5        1.0  0.687939402957781  0.0938695072144498  0.5682651439937133  1.0000
  F   F6        1.0  0.7054420426112529  0.9053302983589406  0.46441241770670433  1.0000
  F   F7        1.0  0.6958081001545295  0.07379091784712702  0.4334947617685786  1.0000
  F   F8        1.0  0.4277791324512776  0.9087909215249043  0.6400895637362469  1.0000
  F   F9        1.0  0.4839445957735363  0.07176625062840711  0.6425875043842952  1.0000
  F   F10       1.0  0.33237889876394183  0.905715182234289  0.39015243829447144  1.0000
  F   F11       1.0  0.3079063631034629  0.07033176974724141  0.4121941653998462  1.0000
  F   F12       1.0  0.0620083218741172  0.31988000923895765  0.4955315049012584  1.0000
  F   F13       1.0  0.10240415081234738  0.579639450589994  0.35907239566231663  1.0000
  F   F14       1.0  0.9139733589258012  0.421640380854214  0.6394267257086812  1.0000
  F   F15       1.0  0.9547334976738924  0.681500873257548  0.5028589058167796  1.0000
  F   F16       1.0  0.1206097229826213  0.5769173035863844  0.6347951135722029  1.0000
  F   F17       1.0  0.6423696112283892  0.3865995698280571  0.9216243959670081  1.0000
  F   F18       1.0  0.6902313020912274  0.5515409755489035  0.9447538081130562  1.0000
  F   F19       1.0  0.5057427776144648  0.6627427296665832  0.0814933791825467  1.0000
  F   F20       1.0  0.5141329743793719  0.3349971228777094  0.09210454604270522  1.0000
