data_image0
_chemical_formula_structural       CuH22C26N2O8F2
_chemical_formula_sum              "Cu1 H22 C26 N2 O8 F2"
_cell_length_a       6.623221269938837
_cell_length_b       8.018679189284931
_cell_length_c       11.440078073910332
_cell_angle_alpha    83.70379760804674
_cell_angle_beta     83.04779598320475
_cell_angle_gamma    85.27437333406864

_space_group_name_H-M_alt    "P 1"
_space_group_IT_number       1

loop_
  _space_group_symop_operation_xyz
  'x, y, z'

loop_
  _atom_site_type_symbol
  _atom_site_label
  _atom_site_symmetry_multiplicity
  _atom_site_fract_x
  _atom_site_fract_y
  _atom_site_fract_z
  _atom_site_occupancy
  Cu  Cu1       1.0  0.5000006858845438  0.4999974971041679  0.5000012318871329  1.0000
  H   H1        1.0  0.381068140415593  0.25006341850621533  0.3951480559591972  1.0000
  H   H2        1.0  0.6189341841168244  0.7499366301916479  0.60485132656855  1.0000
  H   H3        1.0  0.6284484100143288  0.15191042943946084  0.1669550424602235  1.0000
  H   H4        1.0  0.37154655899368544  0.8480870429812909  0.8330451245337118  1.0000
  H   H5        1.0  0.0654685356189333  0.1330069880147988  0.9511008468074494  1.0000
  H   H6        1.0  0.9345227867979348  0.8669967484402785  0.04889913903003421  1.0000
  H   H7        1.0  0.35884694436708037  0.30580026844476993  0.964020900772589  1.0000
  H   H8        1.0  0.6411504970871746  0.6942022706488443  0.03597606221558892  1.0000
  H   H9        1.0  0.030146281039982594  0.5224148871879208  0.26446664868178976  1.0000
  H   H10       1.0  0.969846358475415  0.4775901307160736  0.7355305119141421  1.0000
  H   H11       1.0  0.45207295450565244  0.2783222622180829  0.727159366572835  1.0000
  H   H12       1.0  0.5479358268807033  0.7216753005437935  0.27284405750012314  1.0000
  H   H13       1.0  0.6716063353824637  0.05990830422792469  0.8386090042141066  1.0000
  H   H14       1.0  0.3283993122394477  0.940090487985685  0.16139545242479167  1.0000
  H   H15       1.0  0.03195858848430081  0.9961311574219064  0.7527611401625695  1.0000
  H   H16       1.0  0.9680465733573483  0.0038726655125174  0.24724297513637347  1.0000
  H   H17       1.0  0.9273645378829372  0.37080483769209843  0.46353192648817315  1.0000
  H   H18       1.0  0.0726337536867874  0.6291888976400839  0.5364656338449123  1.0000
  H   H19       1.0  0.3251035562954883  0.1069748791358549  0.6082979487715436  1.0000
  H   H20       1.0  0.674901847908508  0.8930239478338532  0.39169865642537627  1.0000
  H   H21       1.0  0.22157370967534717  0.03062813549168909  0.49098593548567504  1.0000
  H   H22       1.0  0.7784286551628341  0.9693706671113417  0.5090109152297303  1.0000
  C   C1        1.0  0.6926371097562694  0.3481174511703671  0.2817247379557486  1.0000
  C   C2        1.0  0.3073638706311783  0.6518813199403722  0.718276597431107  1.0000
  C   C3        1.0  0.8722900773347319  0.33995609470239413  0.19091169176757466  1.0000
  C   C4        1.0  0.12770437884658037  0.66004641230095  0.8090872615039758  1.0000
  C   C5        1.0  0.8820350050592296  0.23008217738578904  0.10100168340864002  1.0000
  C   C6        1.0  0.11795721602810257  0.7699266212823872  0.8989934764174453  1.0000
  C   C7        1.0  0.05691184026004241  0.21924627669940822  0.01890565654582591  1.0000
  C   C8        1.0  0.943077341461475  0.7807624976020904  0.981089748798752  1.0000
  C   C9        1.0  0.2206839879597808  0.3142285072351214  0.025791940120939202  1.0000
  C   C10       1.0  0.779310562620161  0.6857727459498119  0.9742062261031568  1.0000
  C   C11       1.0  0.207154151907524  0.42226949201518943  0.11429751954636204  1.0000
  C   C12       1.0  0.7928414728808236  0.5777355579790608  0.885697650766197  1.0000
  C   C13       1.0  0.037310032336314705  0.4372933476510567  0.19604198094504716  1.0000
  C   C14       1.0  0.9626854980534035  0.5627129561616113  0.8039539764149668  1.0000
  C   C15       1.0  0.6090223108609579  0.24418994352144807  0.6933625193298669  1.0000
  C   C16       1.0  0.3909884086363817  0.755803850659582  0.3066427827536842  1.0000
  C   C17       1.0  0.7320084392723557  0.12381867999314268  0.7541921699504288  1.0000
  C   C18       1.0  0.2679926089950726  0.8761813217652797  0.24581518677853617  1.0000
  C   C19       1.0  0.9330020949388642  0.08968514887313718  0.7067481794969555  1.0000
  C   C20       1.0  0.06701151543278172  0.9103099312165738  0.2932559193506847  1.0000
  C   C21       1.0  0.0070449247309198985  0.17686583804940878  0.5995862047020353  1.0000
  C   C22       1.0  0.99295742684793  0.8231342067866692  0.4004140502081485  1.0000
  C   C23       1.0  0.8750540411881216  0.2975461893805614  0.5455080592056306  1.0000
  C   C24       1.0  0.12495353075765793  0.7024475958809474  0.4544939988666459  1.0000
  C   C25       1.0  0.2198479511707134  0.14181070888341912  0.5403193603720879  1.0000
  C   C26       1.0  0.7801560144896768  0.8581880943175759  0.45967998473139476  1.0000
  N   N1        1.0  0.6799825353995814  0.32930690192174683  0.5904779652158043  1.0000
  N   N2        1.0  0.3200218083831246  0.670689366609899  0.40952591246986714  1.0000
  O   O1        1.0  0.6799538415780261  0.4666171747082543  0.3491178824423785  1.0000
  O   O2        1.0  0.3200413029679226  0.5333790323087085  0.6508841146514328  1.0000
  O   O3        1.0  0.5641924773554692  0.23509887645995053  0.2884478872467469  1.0000
  O   O4        1.0  0.43580586830712786  0.7648948511486606  0.711551417851226  1.0000
  O   O5        1.0  0.27937445785276094  0.2837552028044356  0.4625775536993189  1.0000
  O   O6        1.0  0.720623253538065  0.716244817066979  0.537420452341273  1.0000
  O   O7        1.0  0.7275575060138877  0.13123909959156063  0.09437546331010795  1.0000
  O   O8        1.0  0.2724372471504281  0.8687608843278053  0.9056254053962934  1.0000
  F   F1        1.0  0.36809059761728946  0.5170465059164898  0.11980316531418823  1.0000
  F   F2        1.0  0.6319075322016019  0.4829497331907361  0.8801968414962433  1.0000
