data_image0
_chemical_formula_structural       Mn2H12C24N4O8
_chemical_formula_sum              "Mn2 H12 C24 N4 O8"
_cell_length_a       9.013816568200417
_cell_length_b       9.063450913176435
_cell_length_c       9.52413812305845
_cell_angle_alpha    115.62316126692848
_cell_angle_beta     115.45679659015863
_cell_angle_gamma    95.27092822868238

_space_group_name_H-M_alt    "P 1"
_space_group_IT_number       1

loop_
  _space_group_symop_operation_xyz
  'x, y, z'

loop_
  _atom_site_type_symbol
  _atom_site_label
  _atom_site_symmetry_multiplicity
  _atom_site_fract_x
  _atom_site_fract_y
  _atom_site_fract_z
  _atom_site_occupancy
  Mn  Mn1       1.0  0.7164414701276554  0.9664597128554387  0.9328910958380586  1.0000
  Mn  Mn2       1.0  0.283576260196611  0.0335612531898803  0.06715196956940873  1.0000
  H   H1        1.0  0.4067436568607831  0.7231299530821003  0.22453226213333702  1.0000
  H   H2        1.0  0.6821772682723407  0.4981986354132458  0.7755709574869842  1.0000
  H   H3        1.0  0.5932653678571427  0.2768494737618496  0.7754438429537202  1.0000
  H   H4        1.0  0.3177883224247466  0.5017968449978482  0.2244079697373209  1.0000
  H   H5        1.0  0.9080401387405955  0.11629883040460237  0.5244890033964466  1.0000
  H   H6        1.0  0.8831605167722782  0.5918646635770911  0.4757891811569833  1.0000
  H   H7        1.0  0.0919814858408756  0.8836986916806209  0.4755175431247379  1.0000
  H   H8        1.0  0.11683221989949297  0.40814484929221356  0.5242243593110203  1.0000
  H   H9        1.0  0.9493918635842604  0.1296090537715102  0.8091352669296227  1.0000
  H   H10       1.0  0.6398202769725286  0.32047598515558917  0.19107553622610132  1.0000
  H   H11       1.0  0.05057924187074998  0.8704020231306656  0.19085866003344165  1.0000
  H   H12       1.0  0.36020531463697125  0.6795084629675967  0.8089198277868306  1.0000
  C   C1        1.0  0.567657364301617  0.8171659390810502  0.5133924977493223  1.0000
  C   C2        1.0  0.5539855874693345  0.30349783998327945  0.48665928982006784  1.0000
  C   C3        1.0  0.4323378152150851  0.18282268144767497  0.4866049486888357  1.0000
  C   C4        1.0  0.44600934898662087  0.6965182614870354  0.513336873907285  1.0000
  C   C5        1.0  0.530649902751513  0.809561246972109  0.3517259711882517  1.0000
  C   C6        1.0  0.6788126553851512  0.4575366314510915  0.6484184750232701  1.0000
  C   C7        1.0  0.46935702063027657  0.1904259906017244  0.6482651316099961  1.0000
  C   C8        1.0  0.3211686858821921  0.5424756661521567  0.3515758822135026  1.0000
  C   C9        1.0  0.6517693418210228  0.9180071979212767  0.35277713732068583  1.0000
  C   C10       1.0  0.7988405536165857  0.5650561721857128  0.6474313648712806  1.0000
  C   C11       1.0  0.3482174832410294  0.08198941405836989  0.6472013636392688  1.0000
  C   C12       1.0  0.20115411623190477  0.43493119466765495  0.35255275575461537  1.0000
  C   C13       1.0  0.8079601714301745  0.032271756995378084  0.5183085070152558  1.0000
  C   C14       1.0  0.7893340569449521  0.5139358922041521  0.48193085268262337  1.0000
  C   C15       1.0  0.19205016231392594  0.9677284537565284  0.4817040580152818  1.0000
  C   C16       1.0  0.2106695393212661  0.48606960627265744  0.5180822447692037  1.0000
  C   C17       1.0  0.831191352833592  0.04006789312061439  0.6761999253268841  1.0000
  C   C18       1.0  0.6545776519275252  0.3638085830098133  0.32397060189549626  1.0000
  C   C19       1.0  0.16880564750790938  0.9599259422496755  0.32379832073409864  1.0000
  C   C20       1.0  0.34542254574977693  0.6361943683262224  0.6760316686867398  1.0000
  C   C21       1.0  0.6059932359540666  0.9109488317445694  0.1778442355884448  1.0000
  C   C22       1.0  0.9280720719429142  0.7330108014770501  0.822370847398446  1.0000
  C   C23       1.0  0.3940005731705725  0.0890567557457729  0.8221670563865899  1.0000
  C   C24       1.0  0.0719382618011863  0.2669894092748564  0.1776417176320919  1.0000
  N   N1        1.0  0.7138778556527683  0.936050321695127  0.6755697184122411  1.0000
  N   N2        1.0  0.5378885429774414  0.260313181045113  0.324502929332894  1.0000
  N   N3        1.0  0.28611172372878  0.06394365448716847  0.32440774719944443  1.0000
  N   N4        1.0  0.4620969230014467  0.739679513799153  0.6754765470187322  1.0000
  O   O1        1.0  0.7282037176366956  0.9363731608740479  0.14952095427890555  1.0000
  O   O2        1.0  0.07868744748045495  0.7867923105939167  0.8507995799169946  1.0000
  O   O3        1.0  0.2717804476615128  0.06363643688700188  0.8504891687699896  1.0000
  O   O4        1.0  0.9213500997231562  0.21320504983241753  0.149214363312197  1.0000
  O   O5        1.0  0.444606566289771  0.8763001841888851  0.06940363783241578  1.0000
  O   O6        1.0  0.875085603903159  0.8068576870988478  0.9306861814866921  1.0000
  O   O7        1.0  0.555384965922883  0.12368844870519516  0.930598644432699  1.0000
  O   O8        1.0  0.12493783149169252  0.19315549587925318  0.06932654965739  1.0000
