data_image0
_chemical_formula_structural       Nd2H44C48N30O16
_chemical_formula_sum              "Nd2 H44 C48 N30 O16"
_cell_length_a       10.682021019354904
_cell_length_b       11.969717006327139
_cell_length_c       13.499575576821643
_cell_angle_alpha    94.36394959085916
_cell_angle_beta     101.18089950597988
_cell_angle_gamma    113.3994421568291

_space_group_name_H-M_alt    "P 1"
_space_group_IT_number       1

loop_
  _space_group_symop_operation_xyz
  'x, y, z'

loop_
  _atom_site_type_symbol
  _atom_site_label
  _atom_site_symmetry_multiplicity
  _atom_site_fract_x
  _atom_site_fract_y
  _atom_site_fract_z
  _atom_site_occupancy
  Nd  Nd1       1.0  0.9477917919363605  0.1146332094041114  0.4102014051192952  1.0000
  Nd  Nd2       1.0  0.052210015533852114  0.8853675331546783  0.5897981461785375  1.0000
  H   H1        1.0  0.045805440138309485  0.1285656088148244  0.18212037966156902  1.0000
  H   H2        1.0  0.9541912153626412  0.8714323702651896  0.8178804132730232  1.0000
  H   H3        1.0  0.6389491669714431  0.9571645067942925  0.21532623720914043  1.0000
  H   H4        1.0  0.36104697848031714  0.0428343968330225  0.7846745367494774  1.0000
  H   H5        1.0  0.0059582544409764295  0.36417536583723387  0.5156475832454886  1.0000
  H   H6        1.0  0.9940411981388165  0.635824457635259  0.48435302376968525  1.0000
  H   H7        1.0  0.9864442415202673  0.2870701547077558  0.60998662537051  1.0000
  H   H8        1.0  0.01355432503734728  0.7129278196998925  0.3900129826614104  1.0000
  H   H9        1.0  0.23625808708114693  0.5704667968809359  0.3208475837712966  1.0000
  H   H10       1.0  0.7637404099703105  0.4295330289277502  0.6791536156952133  1.0000
  H   H11       1.0  0.32960870363620387  0.48829172842737006  0.3789389342189508  1.0000
  H   H12       1.0  0.6703906827281613  0.5117099433510787  0.6210617830055722  1.0000
  H   H13       1.0  0.008071808362977701  0.441161092974241  0.9559706099538655  1.0000
  H   H14       1.0  0.9919327299706567  0.5588433422829765  0.04402886563389787  1.0000
  H   H15       1.0  0.9371473300331913  0.4052385983323107  0.7674001506416627  1.0000
  H   H16       1.0  0.06285447743702828  0.594762144226479  0.23259940065616283  1.0000
  H   H17       1.0  0.1476744600514621  0.18276388568414603  0.7435377914621879  1.0000
  H   H18       1.0  0.8523231493324487  0.8172340926072224  0.25646314963368866  1.0000
  H   H19       1.0  0.23821060492541335  0.21808292845904023  0.9325228177640665  1.0000
  H   H20       1.0  0.7617907554202997  0.7819168934361752  0.06747808557368971  1.0000
  H   H21       1.0  0.6129138388383382  0.60444419830538  0.3426506051120624  1.0000
  H   H22       1.0  0.38708657585124223  0.3955556166407774  0.6573464470012949  1.0000
  H   H23       1.0  0.5386853910041083  0.6692433259269208  0.4256552257062081  1.0000
  H   H24       1.0  0.4613150899009  0.3307546407132875  0.5743417161977928  1.0000
  H   H25       1.0  0.20181263181869724  0.7437476294181096  0.009372749071665997  1.0000
  H   H26       1.0  0.7981862428511093  0.256254968455167  0.9906286897895097  1.0000
  H   H27       1.0  0.13157928332983457  0.705149713140095  0.8173258121870146  1.0000
  H   H28       1.0  0.8684223900641754  0.29485472757812664  0.18267470014212958  1.0000
  H   H29       1.0  0.4257663893349958  0.565906484530686  0.7992978443907572  1.0000
  H   H30       1.0  0.5742329390407831  0.43409702781601583  0.20069927998000017  1.0000
  H   H31       1.0  0.5096562531145353  0.5999119815558772  0.9887853471252935  1.0000
  H   H32       1.0  0.49034453919340126  0.4000906054548849  0.011211944382722487  1.0000
  H   H33       1.0  0.7790446161294752  0.1344337625861769  0.6426344780035291  1.0000
  H   H34       1.0  0.22095401499819192  0.8655623650630632  0.3573657604316691  1.0000
  H   H35       1.0  0.6441779136266702  0.9911364799977348  0.5729409973338944  1.0000
  H   H36       1.0  0.3558235129344709  0.0088614935915317  0.4270597957945198  1.0000
  H   H37       1.0  0.5378493813732844  0.9183208732288152  0.026053089499256974  1.0000
  H   H38       1.0  0.4621482975167908  0.0816752536615297  0.97394626016203  1.0000
  H   H39       1.0  0.9621996373473676  0.0949832343428056  0.9914080389104778  1.0000
  H   H40       1.0  0.037798924274149194  0.9050147447074649  0.008593790959309868  1.0000
  H   H41       1.0  0.7525214497262666  0.21250269444129796  0.4425853499680341  1.0000
  H   H42       1.0  0.24747755901974952  0.7874962052725536  0.5574151278618229  1.0000
  H   H43       1.0  0.6245751841744891  0.11210137298328958  0.3541145560458431  1.0000
  H   H44       1.0  0.3754251577182045  0.887900296458973  0.6458855687273439  1.0000
  C   C1        1.0  0.9341680125491648  0.08284668657343272  0.14456658562183117  1.0000
  C   C2        1.0  0.06582908514018734  0.9171522178127706  0.855435077110698  1.0000
  C   C3        1.0  0.7071232821650144  0.9869303968580501  0.16312167692113633  1.0000
  C   C4        1.0  0.29287242109834477  0.013067581463062103  0.8368782272395447  1.0000
  C   C5        1.0  0.11184310795405848  0.4069767739131507  0.3769652299795607  1.0000
  C   C6        1.0  0.8881563446257275  0.5930230495593491  0.6230353770356201  1.0000
  C   C7        1.0  0.23181067533190705  0.47840835397263237  0.3270887265135584  1.0000
  C   C8        1.0  0.7681878233649185  0.5215914702885059  0.6729117323403313  1.0000
  C   C9        1.0  0.18249461706577108  0.35534438679103175  0.07226338087125578  1.0000
  C   C10       1.0  0.8175048371593834  0.6446554351339274  0.927736485531298  1.0000
  C   C11       1.0  0.1308379573800025  0.3331845962649282  0.9609380213628496  1.0000
  C   C12       1.0  0.8691614322750923  0.6668170724184392  0.03906121463642618  1.0000
  C   C13       1.0  0.043146387866279654  0.3842777046742966  0.9123918544474275  1.0000
  C   C14       1.0  0.956855797222289  0.6157258099490902  0.08760793624506387  1.0000
  C   C15       1.0  0.0020904532917783232  0.3630699840514779  0.8060353874074904  1.0000
  C   C16       1.0  0.9979104002954813  0.6369307592959571  0.19396401572905111  1.0000
  C   C17       1.0  0.12063898817321218  0.2414851716260813  0.7929078502930691  1.0000
  C   C18       1.0  0.879362816006278  0.7585155740277898  0.20709318223000378  1.0000
  C   C19       1.0  0.1699599501714602  0.2598297254820849  0.898657357146021  1.0000
  C   C20       1.0  0.8300413456042004  0.7401719431715388  0.10134291578845724  1.0000
  C   C21       1.0  0.736489396368931  0.7982972060705505  0.4062210580841777  1.0000
  C   C22       1.0  0.2635121013437285  0.2016989145701444  0.5937774029970198  1.0000
  C   C23       1.0  0.5941711453089126  0.6855323734384555  0.3640936645088145  1.0000
  C   C24       1.0  0.4058302199728985  0.31446744381413794  0.6359050169910743  1.0000
  C   C25       1.0  0.4066874170559985  0.6970762262999912  0.12626040737897168  1.0000
  C   C26       1.0  0.5933138836557603  0.30292543771101077  0.8737376437176391  1.0000
  C   C27       1.0  0.36124321852460645  0.6741844667834727  0.014582518198856986  1.0000
  C   C28       1.0  0.6387589698546917  0.3258190447448328  0.9854157912683871  1.0000
  C   C29       1.0  0.2539457954402025  0.7045131772743929  0.9649931539635543  1.0000
  C   C30       1.0  0.7460545497432277  0.29548848907278813  0.03500548958439243  1.0000
  C   C31       1.0  0.2150180773165644  0.6827051998042108  0.8582037621240273  1.0000
  C   C32       1.0  0.7849817545269389  0.31729739418535263  0.14179634367319235  1.0000
  C   C33       1.0  0.3769138274850832  0.6045677897384535  0.8477318348134018  1.0000
  C   C34       1.0  0.6230878524903929  0.395436644789612  0.15226571506524775  1.0000
  C   C35       1.0  0.4242063737174178  0.6230256521708526  0.9539691410665508  1.0000
  C   C36       1.0  0.5757934647075443  0.37697693562854784  0.046028002280173966  1.0000
  C   C37       1.0  0.8467934342190377  0.9871440619733607  0.6280969643823012  1.0000
  C   C38       1.0  0.15320652840993892  0.0128548369518384  0.37190366160884725  1.0000
  C   C39       1.0  0.7351185104824933  0.0339856237511569  0.639164795421358  1.0000
  C   C40       1.0  0.2648815167165424  0.9660114284156408  0.3608364609730684  1.0000
  C   C41       1.0  0.6914813310090081  0.9892027757239032  0.8833787263046201  1.0000
  C   C42       1.0  0.3085177439524358  0.010794275683998902  0.11662164131589485  1.0000
  C   C43       1.0  0.7427486408141206  0.0043560846655382  0.993758143494581  1.0000
  C   C44       1.0  0.25724903643058633  0.9956400437723473  0.006241946779333241  1.0000
  C   C45       1.0  0.6509832226061789  0.9645918749134593  0.05782786847979078  1.0000
  C   C46       1.0  0.3490143900684686  0.03540610028283451  0.9421715913908455  1.0000
  C   C47       1.0  0.8875529465401967  0.06356950778159387  0.03883299898082267  1.0000
  C   C48       1.0  0.11244370731538567  0.936428472845961  0.9611685345663897  1.0000
  N   N1        1.0  0.8459597599966812  0.0456440719546194  0.2067954202910299  1.0000
  N   N2        1.0  0.15403543321747995  0.9543548309137933  0.7932044648936764  1.0000
  N   N3        1.0  0.15228287568296384  0.4241168488683583  0.13931730088045666  1.0000
  N   N4        1.0  0.847717974613566  0.5758838975741511  0.8606835834813252  1.0000
  N   N5        1.0  0.22762323197904522  0.41889438525587513  0.22823180066830415  1.0000
  N   N6        1.0  0.7723757105515501  0.5811063627639187  0.7717687873709023  1.0000
  N   N7        1.0  0.3005659088720165  0.35135090771186844  0.21930820052029518  1.0000
  N   N8        1.0  0.699434431375316  0.6486507632779351  0.7806926648655189  1.0000
  N   N9        1.0  0.2723491643698067  0.3102521441140453  0.12087089595045336  1.0000
  N   N10       1.0  0.7276521297604859  0.6897495260871195  0.879130117596645  1.0000
  N   N11       1.0  0.039081383127097476  0.2929304457843073  0.746031826291883  1.0000
  N   N12       1.0  0.9609176256189187  0.707068453929537  0.25396865153798126  1.0000
  N   N13       1.0  0.4982332826943647  0.6596076092803501  0.1800856666213092  1.0000
  N   N14       1.0  0.5017680196627622  0.34039405318311106  0.8199116438626741  1.0000
  N   N15       1.0  0.5042750004837941  0.7002389560507397  0.276095166722662  1.0000
  N   N16       1.0  0.4957268102771621  0.2997617834129684  0.7239029033499162  1.0000
  N   N17       1.0  0.4238748639218102  0.760736031811426  0.2840154959226238  1.0000
  N   N18       1.0  0.5761265013600081  0.23926378544116733  0.7159831855772649  1.0000
  N   N19       1.0  0.36113130932562837  0.7592082115484045  0.18942830182331238  1.0000
  N   N20       1.0  0.6388695442616238  0.24079253179903046  0.8105711013132291  1.0000
  N   N21       1.0  0.2742343877165255  0.6330950635654774  0.7993755025994884  1.0000
  N   N22       1.0  0.7257658217453267  0.36691030248868367  0.20062484259238988  1.0000
  N   N23       1.0  0.7765841054201416  0.0372859864306179  0.8217839557270421  1.0000
  N   N24       1.0  0.22341547959049285  0.9627101404299908  0.17821643086944755  1.0000
  N   N25       1.0  0.6876029973666533  0.0037752335077030005  0.7310708483490485  1.0000
  N   N26       1.0  0.31239702983238266  0.9962218186590946  0.26893040804537793  1.0000
  N   N27       1.0  0.553356265489242  0.9377950775490118  0.7336900320250519  1.0000
  N   N28       1.0  0.446644140973511  0.062204745134849304  0.2663107231514202  1.0000
  N   N29       1.0  0.5545437397934521  0.9284831938182164  0.8300672425497094  1.0000
  N   N30       1.0  0.4454543150695968  0.0715157066842735  0.16993308711886354  1.0000
  O   O1        1.0  0.8177225493614343  0.77739607156807  0.47568980679627487  1.0000
  O   O2        1.0  0.18227601719617326  0.2226019028395853  0.5243098012356453  1.0000
  O   O3        1.0  0.8565532382159589  0.9025129216561467  0.6732570419500657  1.0000
  O   O4        1.0  0.14344672934912242  0.09748597262643703  0.3267413622032149  1.0000
  O   O5        1.0  0.11240936499832802  0.46578335193531467  0.4576320115449802  1.0000
  O   O6        1.0  0.8875896437476881  0.5342155477785298  0.5423684662848841  1.0000
  O   O7        1.0  0.02883997383526797  0.2960492839877417  0.33410687206931994  1.0000
  O   O8        1.0  0.9711599904390764  0.7039496133899233  0.6658930133092082  1.0000
  O   O9        1.0  0.7570229277370187  0.8967352533348247  0.3700377804579345  1.0000
  O   O10       1.0  0.242978874797096  0.10326549386658  0.6299639926777656  1.0000
  O   O11       1.0  0.9278685676178142  0.038301082606828595  0.5703176719722263  1.0000
  O   O12       1.0  0.07213177427487949  0.9617005868354341  0.4296824528009678  1.0000
  O   O13       1.0  0.9472955590635336  0.28339051618284133  0.5351377123297281  1.0000
  O   O14       1.0  0.05270389351625938  0.7166093072896516  0.4648628946854528  1.0000
  O   O15       1.0  0.7167390722295366  0.13053572612201952  0.4007799683324506  1.0000
  O   O16       1.0  0.28326133752394606  0.8694640934667603  0.5992193056187743  1.0000
