data_image0
_chemical_formula_structural       Zn2H60C50N2O16
_chemical_formula_sum              "Zn2 H60 C50 N2 O16"
_cell_length_a       9.57799310558946
_cell_length_b       10.798845927862299
_cell_length_c       15.882425880627544
_cell_angle_alpha    89.56326742495591
_cell_angle_beta     87.03537292583326
_cell_angle_gamma    90.59286353183924

_space_group_name_H-M_alt    "P 1"
_space_group_IT_number       1

loop_
  _space_group_symop_operation_xyz
  'x, y, z'

loop_
  _atom_site_type_symbol
  _atom_site_label
  _atom_site_symmetry_multiplicity
  _atom_site_fract_x
  _atom_site_fract_y
  _atom_site_fract_z
  _atom_site_occupancy
  Zn  Zn1       1.0  0.3516022234373181  0.49691814704895165  0.5036292944847744  1.0000
  Zn  Zn2       1.0  0.6425431892269842  0.5002724560773045  0.4973648359931602  1.0000
  H   H1        1.0  0.2885458614316078  0.885753776533548  0.4517441329386855  1.0000
  H   H2        1.0  0.6764947558365647  0.8999502787692393  0.5755815690796878  1.0000
  H   H3        1.0  0.5183413306517651  0.8847141215247017  0.3661453697448067  1.0000
  H   H4        1.0  0.6767394651061664  0.8853481008488796  0.4188363384272193  1.0000
  H   H5        1.0  0.9035319923350896  0.4043149708960385  0.3899301131115464  1.0000
  H   H6        1.0  0.13753789173014744  0.3486442546390975  0.42150037487925823  1.0000
  H   H7        1.0  0.8572496311700488  0.3169475497610178  0.48092997898152823  1.0000
  H   H8        1.0  0.0907379818995366  0.31741514026350603  0.5281449474315068  1.0000
  H   H9        1.0  0.8863248193643115  0.41366514922857783  0.6125066737375917  1.0000
  H   H10       1.0  0.11761301903125339  0.46777555205887467  0.6322890216566677  1.0000
  H   H11       1.0  0.9084863225673344  0.7016351585789451  0.5001396689967521  1.0000
  H   H12       1.0  0.14324950193919508  0.6902134083300169  0.45672828400209636  1.0000
  H   H13       1.0  0.3040262453919382  0.5257694690909174  0.0857365504986092  1.0000
  H   H14       1.0  0.42619404393775534  0.33337620140664365  0.09392730828684388  1.0000
  H   H15       1.0  0.6084164983820485  0.3228339819224146  0.0767101780419992  1.0000
  H   H16       1.0  0.3886769884975152  0.6704503255043335  0.0764702740471606  1.0000
  H   H17       1.0  0.6451951743569991  0.6442429798586389  0.906007402090232  1.0000
  H   H18       1.0  0.7278756704169423  0.5013504191785855  0.9084077498050291  1.0000
  H   H19       1.0  0.2866343892477303  0.10049470643516399  0.4442223359843851  1.0000
  H   H20       1.0  0.6687051552466982  0.11715573719107651  0.5768531214271205  1.0000
  H   H21       1.0  0.28796062328427047  0.1094208915629338  0.5547257651858856  1.0000
  H   H22       1.0  0.5022840601047776  0.11297654074915187  0.628922297569062  1.0000
  H   H23       1.0  0.28328893087152096  0.8941605631792982  0.5628496392792214  1.0000
  H   H24       1.0  0.5190150296730067  0.8986450411461532  0.6384814802012287  1.0000
  H   H25       1.0  0.15079570401791642  0.5728589824191843  0.9805915267242185  1.0000
  H   H26       1.0  0.2723858950725528  0.3277142119010321  0.9952970665149932  1.0000
  H   H27       1.0  0.5039177710485986  0.2139026945824156  0.32609602232325585  1.0000
  H   H28       1.0  0.7857010568918669  0.0907494936033544  0.4601823110549219  1.0000
  H   H29       1.0  0.8445088053726976  0.5865955572116661  0.32813281964734387  1.0000
  H   H30       1.0  0.13622952994659704  0.48075233906836695  0.3278155306185866  1.0000
  H   H31       1.0  0.7553149073183505  0.6596145039414696  0.62756536952611  1.0000
  H   H32       1.0  0.22322223663272206  0.6725208056991788  0.6306393587617478  1.0000
  H   H33       1.0  0.8370837036844633  0.13837008412021848  0.8488298917945727  1.0000
  H   H34       1.0  0.6903100984759546  0.0366297698069005  0.8599370103788573  1.0000
  H   H35       1.0  0.7491336084073409  0.09171411399087499  0.7584470873893423  1.0000
  H   H36       1.0  0.5339990332128933  0.20608917173029073  0.8106925759155954  1.0000
  H   H37       1.0  0.6797285842154466  0.3068759599813119  0.7966926657084626  1.0000
  H   H38       1.0  0.719379576857051  0.30452775404673815  0.9470010065980076  1.0000
  H   H39       1.0  0.60174137043618  0.1810378455380857  0.9655546592522909  1.0000
  H   H40       1.0  0.2527744205952088  0.9117538222409536  0.850307691613331  1.0000
  H   H41       1.0  0.4358074574410295  0.9353434568519178  0.8397604324734473  1.0000
  H   H42       1.0  0.34051179419618893  0.9021244416067515  0.7495400487948913  1.0000
  H   H43       1.0  0.46726853193811724  0.7127241411089074  0.7948323440516843  1.0000
  H   H44       1.0  0.28561102811722344  0.6875185742120208  0.8034367959576441  1.0000
  H   H45       1.0  0.2922203110269733  0.7544082309933203  0.9587390437473147  1.0000
  H   H46       1.0  0.4741983696763298  0.7567776740432351  0.9468838954696961  1.0000
  H   H47       1.0  0.787083417882499  0.9420964516148516  0.08886696405828327  1.0000
  H   H48       1.0  0.6197878234544021  0.9304246654092766  0.1425636063422004  1.0000
  H   H49       1.0  0.7730183340720344  0.9300169521584748  0.20069085090604225  1.0000
  H   H50       1.0  0.6718122516472036  0.7153927064857158  0.19011525370582658  1.0000
  H   H51       1.0  0.8422085229037891  0.7263273939841639  0.1428140817637669  1.0000
  H   H52       1.0  0.7513921644436578  0.7483939126285789  0.0015841327771468924  1.0000
  H   H53       1.0  0.579505684031126  0.7572847670074552  0.044011956476190085  1.0000
  H   H54       1.0  0.0011516625568078005  0.3429087107707076  0.10584390204074617  1.0000
  H   H55       1.0  0.05419278153361519  0.4908851591444119  0.142354182032129  1.0000
  H   H56       1.0  0.991944922951987  0.37430692700735335  0.21513459073707958  1.0000
  H   H57       1.0  0.8091483952595482  0.5385845751660909  0.19053852656051617  1.0000
  H   H58       1.0  0.7539875570346554  0.3882891872278761  0.1669809106487747  1.0000
  H   H59       1.0  0.8115360183685282  0.41987210490587756  0.016275725827320297  1.0000
  H   H60       1.0  0.8868912306947223  0.5648796056532888  0.0324642986528403  1.0000
  C   C1        1.0  0.49622316985565357  0.2595601887802773  0.49288826370040784  1.0000
  C   C2        1.0  0.6418196202537557  0.5540613278989355  0.9383638395124547  1.0000
  C   C3        1.0  0.6632566452876816  0.5705200819739957  0.035073837883352596  1.0000
  C   C4        1.0  0.49444089497727356  0.47880580579136733  0.8282126384420606  1.0000
  C   C5        1.0  0.5232669638156936  0.5170546911788633  0.17172359163477316  1.0000
  C   C6        1.0  0.5042080767884939  0.5143342612929942  0.24787674440648289  1.0000
  C   C7        1.0  0.3419496583666515  0.0685483524221198  0.4991810323626281  1.0000
  C   C8        1.0  0.56379844329539  0.07583394126969266  0.5745922214719669  1.0000
  C   C9        1.0  0.34114859104450795  0.9260475228207024  0.5050032078269523  1.0000
  C   C10       1.0  0.5682940428183086  0.9329622004196595  0.5785867687540217  1.0000
  C   C11       1.0  0.5714650479266653  0.0651373651390728  0.4134043390336615  1.0000
  C   C12       1.0  0.49286048588707126  0.1189048893071174  0.4939731259813911  1.0000
  C   C13       1.0  0.49190709622225626  0.8787528983714948  0.5039680547003442  1.0000
  C   C14       1.0  0.49682199697794255  0.508432290877046  0.33792718929119303  1.0000
  C   C15       1.0  0.5699144668154118  0.9216072259304725  0.4211319495555372  1.0000
  C   C16       1.0  0.9200260524688274  0.3965742065106354  0.45763407177526  1.0000
  C   C17       1.0  0.0750764898156433  0.3823979475844084  0.4761614906044969  1.0000
  C   C18       1.0  0.9261441996810404  0.6240828220007515  0.4568720912954234  1.0000
  C   C19       1.0  0.08860758524438948  0.603912135682272  0.4419528713604208  1.0000
  C   C20       1.0  0.9087442117261234  0.5081734641316729  0.5890285004782851  1.0000
  C   C21       1.0  0.06904545546453988  0.5318466570772954  0.5885102647065423  1.0000
  C   C22       1.0  0.4951992425650004  0.7381697816014564  0.5058656204940988  1.0000
  C   C23       1.0  0.49044639579992827  0.47918833949839273  0.6624965649281052  1.0000
  C   C24       1.0  0.3925827686488219  0.5751120241391732  0.05310667888677759  1.0000
  C   C25       1.0  0.5166115706706192  0.37310924486477137  0.057008038450781805  1.0000
  C   C26       1.0  0.500562174428474  0.3539074713732546  0.9607176537800511  1.0000
  C   C27       1.0  0.3797489973170371  0.5723938745635877  0.956190641489435  1.0000
  C   C28       1.0  0.49324457005295835  0.4746556057038305  0.7520670141768022  1.0000
  C   C29       1.0  0.5282986833247634  0.5117092337952585  0.0805626474696624  1.0000
  C   C30       1.0  0.5012696633991921  0.4888619682466029  0.9185904358829617  1.0000
  C   C31       1.0  0.23246161586892808  0.5317953624797341  0.9360926192809413  1.0000
  C   C32       1.0  0.3597216104681067  0.2861464649890307  0.9558840953264109  1.0000
  C   C33       1.0  0.49989378375623517  0.11132998744713518  0.3349475334346081  1.0000
  C   C34       1.0  0.7235283543739897  0.10770077815732997  0.4036315823794324  1.0000
  C   C35       1.0  0.8637388211220411  0.6611627907561372  0.3740165055745591  1.0000
  C   C36       1.0  0.12990496885465316  0.5783039391413071  0.348942724193563  1.0000
  C   C37       1.0  0.8283562301348367  0.591205529346979  0.6525433458411951  1.0000
  C   C38       1.0  0.1122420270652  0.6625920062007821  0.6152771331786936  1.0000
  C   C39       1.0  0.6189595908688547  0.266620560882167  0.9278636202440464  1.0000
  C   C40       1.0  0.6362489768536649  0.22919074709934503  0.8349293513727644  1.0000
  C   C41       1.0  0.733454851432917  0.1180279267880735  0.8250072988587789  1.0000
  C   C42       1.0  0.3811671478022944  0.7105259712619086  0.9237990126364153  1.0000
  C   C43       1.0  0.371226174941988  0.7409136866831362  0.8299922506477982  1.0000
  C   C44       1.0  0.3489082916775245  0.8797890245823792  0.816767466634637  1.0000
  C   C45       1.0  0.6797613527278941  0.7113080038167398  0.05259863000971169  1.0000
  C   C46       1.0  0.733684060806631  0.7561934260803016  0.1364928394804821  1.0000
  C   C47       1.0  0.7281663704445903  0.8975109059232194  0.1424605127484568  1.0000
  C   C48       1.0  0.8006886505315478  0.5028551673256346  0.05573123790858149  1.0000
  C   C49       1.0  0.8278512919723723  0.46240219745235567  0.1462006985438862  1.0000
  C   C50       1.0  0.9770615420011596  0.4153013890019963  0.15265759037206544  1.0000
  N   N1        1.0  0.863285894534165  0.5108542482046587  0.49963813502495913  1.0000
  N   N2        1.0  0.13195455942943823  0.5052208422850767  0.5018669677377545  1.0000
  O   O1        1.0  0.383221390184751  0.31374290239910607  0.514915382831532  1.0000
  O   O2        1.0  0.6129019423091364  0.312231585191455  0.4725061276486429  1.0000
  O   O3        1.0  0.38062002186610755  0.47584723695881354  0.3749253599147124  1.0000
  O   O4        1.0  0.6090047045863685  0.5350200401575831  0.37438281602808837  1.0000
  O   O5        1.0  0.38267276586608995  0.6810333558363055  0.48989589915657916  1.0000
  O   O6        1.0  0.6096776831778854  0.68603310059855  0.5215941340831662  1.0000
  O   O7        1.0  0.37624489368688774  0.5115626226004862  0.6310966006428558  1.0000
  O   O8        1.0  0.6036334314599118  0.4524589339798553  0.6203673146772741  1.0000
  O   O9        1.0  0.19830381197090932  0.4695557748912407  0.8767825231289734  1.0000
  O   O10       1.0  0.3411316120504324  0.18848519276081527  0.9202455475940496  1.0000
  O   O11       1.0  0.441636492996615  0.04541047199311519  0.2854932718076952  1.0000
  O   O12       1.0  0.7796825251907079  0.1479593892309765  0.33809466991124276  1.0000
  O   O13       1.0  0.8424509942716512  0.7692864152763477  0.35743099006469947  1.0000
  O   O14       1.0  0.1474408192461922  0.6640096421155306  0.2991246958095815  1.0000
  O   O15       1.0  0.8462632273769657  0.5778899983242242  0.7275335853955625  1.0000
  O   O16       1.0  0.03114450051789669  0.7488943792356294  0.6204640925027929  1.0000
