data_image0
_chemical_formula_structural       Cd2H48C40N12O20
_chemical_formula_sum              "Cd2 H48 C40 N12 O20"
_cell_length_a       7.1244815726178965
_cell_length_b       12.840485815736564
_cell_length_c       13.4064
_cell_angle_alpha    73.42798824099243
_cell_angle_beta     82.24140456046844
_cell_angle_gamma    81.32408005597632

_space_group_name_H-M_alt    "P 1"
_space_group_IT_number       1

loop_
  _space_group_symop_operation_xyz
  'x, y, z'

loop_
  _atom_site_type_symbol
  _atom_site_label
  _atom_site_symmetry_multiplicity
  _atom_site_fract_x
  _atom_site_fract_y
  _atom_site_fract_z
  _atom_site_occupancy
  Cd  Cd1       1.0  0.9999980167083962  1.6365664735e-06  0.9999995460249167  1.0000
  Cd  Cd2       1.0  0.0  0.0  0.5  1.0000
  H   H1        1.0  0.2396476568506428  0.1832790792004531  0.027384035697181685  1.0000
  H   H2        1.0  0.7603543952739144  0.8167186784579954  0.9726158329131777  1.0000
  H   H3        1.0  0.024314899172814798  0.21214238378406242  0.10552130533297799  1.0000
  H   H4        1.0  0.97568823202009  0.7878570104408527  0.894478038784939  1.0000
  H   H5        1.0  0.0310250969503514  0.2099862074571917  0.28105335161137646  1.0000
  H   H6        1.0  0.9689776967321393  0.7900148233342037  0.7189448237298918  1.0000
  H   H7        1.0  0.25329060741308507  0.1812464636422177  0.33837000993148075  1.0000
  H   H8        1.0  0.74671252377982  0.8187529305827042  0.6616285882740414  1.0000
  H   H9        1.0  0.4199400097742654  0.9963433047264517  0.3734423122658797  1.0000
  H   H10       1.0  0.58006011950593  0.003656907781710601  0.6265585155011095  1.0000
  H   H11       1.0  0.3200984048765533  0.8912683726742544  0.3417589904102059  1.0000
  H   H12       1.0  0.6799018931588491  0.10873102155066763  0.6582420487889066  1.0000
  H   H13       1.0  0.3149325449810901  0.8941650953297116  0.1646801083698719  1.0000
  H   H14       1.0  0.6850693383882671  0.10583348061197033  0.8353210406331684  1.0000
  H   H15       1.0  0.40499225980060055  0.0029973714934854  0.061786919910801395  1.0000
  H   H16       1.0  0.5950097923239638  0.997000386164963  0.93821369461196  1.0000
  H   H17       1.0  0.5440256308972735  0.1448999588653379  0.1046014125642927  1.0000
  H   H18       1.0  0.45597942313999335  0.8550969805098774  0.8953984642217918  1.0000
  H   H19       1.0  0.5407872598465528  0.1418093030829439  0.23891515707500588  1.0000
  H   H20       1.0  0.4592147922780112  0.8581884545755047  0.7610847115353535  1.0000
  H   H21       1.0  0.8971412802523915  0.06726370028286512  0.2423158665578029  1.0000
  H   H22       1.0  0.10286168218530624  0.9327365122252902  0.7576825202155958  1.0000
  H   H23       1.0  0.018852663725461048  0.9312676938166576  0.2688420703239486  1.0000
  H   H24       1.0  0.9811476343099412  0.06873170040825731  0.7311589688751639  1.0000
  H   H25       1.0  0.11531473314646948  0.5223339197559868  0.13936941092830318  1.0000
  H   H26       1.0  0.8846833045341569  0.4776695658851154  0.8606321645631992  1.0000
  H   H27       1.0  0.3813898482146101  0.3694982500678706  0.15524679653743326  1.0000
  H   H28       1.0  0.6186071103976758  0.6305035990067581  0.8447575411837106  1.0000
  H   H29       1.0  0.78830283542878  0.6047064017084552  0.09064943539500091  1.0000
  H   H30       1.0  0.21169978949851037  0.3952954473661735  0.9093522580761473  1.0000
  H   H31       1.0  0.5193244168014387  0.7560413399417316  0.07227090339497974  1.0000
  H   H32       1.0  0.48067537496834944  0.24396050913289  0.9277280096829655  1.0000
  H   H33       1.0  0.0860286969768467  0.6282164973621178  0.6262157392448485  1.0000
  H   H34       1.0  0.9139735904400297  0.37178698827897705  0.3737818018000567  1.0000
  H   H35       1.0  0.17915630851632605  0.4234943059621514  0.6771531475121575  1.0000
  H   H36       1.0  0.8208415604090928  0.5765099979621837  0.32284597881002236  1.0000
  H   H37       1.0  0.7703604074348361  0.47454781533975426  0.6068249518986307  1.0000
  H   H38       1.0  0.22963597837472347  0.5254499423186942  0.39317308548732643  1.0000
  H   H39       1.0  0.6777601161864125  0.6786775696768574  0.5611024069537365  1.0000
  H   H40       1.0  0.3222405193594042  0.3213201879815912  0.4388960714600285  1.0000
  H   H41       1.0  0.6688412572346394  0.931261147550771  0.16975160946997647  1.0000
  H   H42       1.0  0.33116204271347277  0.0687374283909108  0.8302479460800638  1.0000
  H   H43       1.0  0.8280859591269942  0.8329877857562522  0.14015090728090482  1.0000
  H   H44       1.0  0.17191858864465806  0.1670116084686697  0.8598490811212116  1.0000
  H   H45       1.0  0.34169427609184316  0.972760381864781  0.5634206955765676  1.0000
  H   H46       1.0  0.658307438522307  0.0272390123601411  0.4365794960819471  1.0000
  H   H47       1.0  0.3456325902555974  0.1004982739132174  0.5142885802294828  1.0000
  H   H48       1.0  0.6543707096925077  0.8995003020284643  0.4857117212329598  1.0000
  C   C1        1.0  0.1652912018843793  0.1643014543910226  0.10620901443586211  1.0000
  C   C2        1.0  0.8347120980637257  0.8356971215506663  0.8937897952017761  1.0000
  C   C3        1.0  0.1725323495338101  0.16260678980925292  0.2826957619336383  1.0000
  C   C4        1.0  0.8274707816590947  0.837392604415669  0.7173035821842786  1.0000
  C   C5        1.0  0.33873658352171526  0.9783648037481782  0.318046789865413  1.0000
  C   C6        1.0  0.6612624666901395  0.0216337721935034  0.6819538164816237  1.0000
  C   C7        1.0  0.33110258632241596  0.9816346635592552  0.140812556243965  1.0000
  C   C8        1.0  0.6688947098002843  0.018365548948899902  0.8591877288670273  1.0000
  C   C9        1.0  0.4627650866257724  0.1239150852779787  0.18186158990810242  1.0000
  C   C10       1.0  0.5372383820775396  0.8760826723804698  0.8181381770740613  1.0000
  C   C11       1.0  0.0375395742601512  0.0184899280007755  0.24382962456326138  1.0000
  C   C12       1.0  0.9624607237752515  0.9815094662241464  0.7561699228110471  1.0000
  C   C13       1.0  0.1409649061663315  0.7408670956132541  0.09342949709293434  1.0000
  C   C14       1.0  0.8590292192884517  0.25913475346137466  0.9065705684102099  1.0000
  C   C15       1.0  0.3014229481943218  0.6483118970719347  0.10427000211458899  1.0000
  C   C16       1.0  0.6985765060650521  0.35169158856916033  0.8957299799239137  1.0000
  C   C17       1.0  0.2625949757458414  0.5396299725154279  0.12897072765368015  1.0000
  C   C18       1.0  0.7374003975324896  0.4603726948424339  0.8710335002635431  1.0000
  C   C19       1.0  0.41057375000799107  0.45417338104645927  0.1384868568180266  1.0000
  C   C20       1.0  0.5894202066915923  0.5458292863114025  0.8615129972529872  1.0000
  C   C21       1.0  0.5977365804019569  0.47992393620030793  0.12422042121449552  1.0000
  C   C22       1.0  0.4022621322994836  0.5200762763078473  0.8757820000054932  1.0000
  C   C23       1.0  0.6410600082363017  0.5875723690297435  0.09953694765815867  1.0000
  C   C24       1.0  0.35893961477827924  0.4124302983281254  0.9004662294620684  1.0000
  C   C25       1.0  0.4911579203801039  0.6713784832116901  0.08951318771754299  1.0000
  C   C26       1.0  0.5088431192132248  0.32862418414617883  0.9104854123000834  1.0000
  C   C27       1.0  0.31935124045154595  0.7869053470373829  0.5644626409791867  1.0000
  C   C28       1.0  0.6806545551436541  0.2130948654707794  0.4355385261874147  1.0000
  C   C29       1.0  0.3764030114268521  0.6650556086470802  0.5907781195239039  1.0000
  C   C30       1.0  0.6235923618514788  0.3349470587107888  0.409218649269313  1.0000
  C   C31       1.0  0.2352043298089725  0.5935630206005343  0.6219906149060463  1.0000
  C   C32       1.0  0.7647996451599538  0.4064322822082076  0.37800605681049143  1.0000
  C   C33       1.0  0.2851862581621702  0.4808543242396439  0.6489149032162871  1.0000
  C   C34       1.0  0.7148152876967799  0.5191458882685112  0.35108806065970555  1.0000
  C   C35       1.0  0.47888978702946616  0.4411356742471853  0.641639258138312  1.0000
  C   C36       1.0  0.5211089256719816  0.5588645382609698  0.3583564498700723  1.0000
  C   C37       1.0  0.6219536874872345  0.5100613077823795  0.6108285973810794  1.0000
  C   C38       1.0  0.3780421920567107  0.48993890472577567  0.38916731388371045  1.0000
  C   C39       1.0  0.5694245036922396  0.6226063474960668  0.585842139205603  1.0000
  C   C40       1.0  0.43057454651961546  0.3773922284456148  0.4141562294042345  1.0000
  N   N1        1.0  0.13897631602096536  0.04547199942481231  0.1373662725752567  1.0000
  N   N2        1.0  0.8610253985931847  0.9545273948001097  0.8626339190832581  1.0000
  N   N3        1.0  0.275354131109907  0.19009210542343172  0.178720385951415  1.0000
  N   N4        1.0  0.724649168838198  0.8099064705182499  0.8212791695986256  1.0000
  N   N5        1.0  0.14647878536737838  0.0433207327973548  0.3197853288268249  1.0000
  N   N6        1.0  0.8535215126680242  0.9566786614275673  0.6802142185474906  1.0000
  N   N7        1.0  0.4434952643981092  0.0054751331321086  0.21381828278157397  1.0000
  N   N8        1.0  0.5565052023925005  0.9945234428095732  0.786182221937267  1.0000
  N   N9        1.0  0.7545119088142087  0.3913095897235905  0.1376633548306074  1.0000
  N   N10       1.0  0.2454827229061962  0.6086898045013314  0.862340328618501  1.0000
  N   N11       1.0  0.5342590237391462  0.32271863403192214  0.6667669806663027  1.0000
  N   N12       1.0  0.4657315270002157  0.6772799419097596  0.3332342354499218  1.0000
  O   O1        1.0  0.1849349482098148  0.8332840042876839  0.03413729198702244  1.0000
  O   O2        1.0  0.8150664288939211  0.1667170265037043  0.9658609849824487  1.0000
  O   O3        1.0  0.9802736180405702  0.7206726836318824  0.14232334854690273  1.0000
  O   O4        1.0  0.01972634248442519  0.27932834715951327  0.8576802514375643  1.0000
  O   O5        1.0  0.7153860881140517  0.2955704511109829  0.1740559030706379  1.0000
  O   O6        1.0  0.28460820609593895  0.7044305796804124  0.8259384065654203  1.0000
  O   O7        1.0  0.920655443631986  0.41489005773555493  0.11341169231226192  1.0000
  O   O8        1.0  0.07934326906946146  0.5851101547726003  0.8865981880317263  1.0000
  O   O9        1.0  0.1485784934399774  0.8202741191184373  0.5432101730004392  1.0000
  O   O10       1.0  0.8514237939768988  0.1797293665226647  0.4567910976064624  1.0000
  O   O11       1.0  0.44459781341758725  0.8474558516520576  0.5669576796356779  1.0000
  O   O12       1.0  0.5554049802649031  0.15254517913933094  0.43303974979319554  1.0000
  O   O13       1.0  0.7068423879649401  0.2886755965644028  0.6714622782912159  1.0000
  O   O14       1.0  0.2931495793531623  0.7113229793772862  0.32853734437200893  1.0000
  O   O15       1.0  0.4064906213758448  0.2625199912087268  0.6813784623207084  1.0000
  O   O16       1.0  0.5934964211851932  0.7374818578659017  0.3186250949730223  1.0000
  O   O17       1.0  0.7613336299975371  0.9091584990630325  0.11447566956241668  1.0000
  O   O18       1.0  0.23866825337182007  0.09084007687864931  0.8855232417034173  1.0000
  O   O19       1.0  0.2634241506674684  0.04613153571303031  0.5585054568800345  1.0000
  O   O20       1.0  0.7365773951914817  0.9538686767951249  0.44149377743395496  1.0000
