data_image0
_chemical_formula_structural       Ag6H16C24N6O14
_chemical_formula_sum              "Ag6 H16 C24 N6 O14"
_cell_length_a       8.109561719894009
_cell_length_b       10.428385937572205
_cell_length_c       10.697647963076127
_cell_angle_alpha    63.43549062288758
_cell_angle_beta     69.1133476758807
_cell_angle_gamma    81.49781828251353

_space_group_name_H-M_alt    "P 1"
_space_group_IT_number       1

loop_
  _space_group_symop_operation_xyz
  'x, y, z'

loop_
  _atom_site_type_symbol
  _atom_site_label
  _atom_site_symmetry_multiplicity
  _atom_site_fract_x
  _atom_site_fract_y
  _atom_site_fract_z
  _atom_site_occupancy
  Ag  Ag1       1.0  0.6361009206590255  0.6154021046491919  0.4912208864140266  1.0000
  Ag  Ag2       1.0  0.3639040740394748  0.3845915014603137  0.5087806801750643  1.0000
  Ag  Ag3       1.0  0.015339418445371698  0.3653136061081383  0.48270367611119974  1.0000
  Ag  Ag4       1.0  0.9846630185082715  0.6346853719179748  0.5172971110675703  1.0000
  Ag  Ag5       1.0  0.24449292335995654  0.11719859000761092  0.5009836281560283  1.0000
  Ag  Ag6       1.0  0.7555042028622481  0.8827992578861413  0.4990163115085976  1.0000
  H   H1        1.0  0.6600303815264112  0.35475629576640694  0.7646911291033476  1.0000
  H   H2        1.0  0.339965373507674  0.6452383173215637  0.23530970267622556  1.0000
  H   H3        1.0  0.516660224658004  0.25541747761464256  0.04057860949811238  1.0000
  H   H4        1.0  0.4833368809212145  0.7445792819811315  0.9594208896488327  1.0000
  H   H5        1.0  0.13061759729287561  0.5862929362692667  0.9740351441408774  1.0000
  H   H6        1.0  0.8693808487988547  0.41370491397373144  0.025964434189440097  1.0000
  H   H7        1.0  0.28812328836089307  0.6769614867430461  0.7026775502023881  1.0000
  H   H8        1.0  0.7118791427098472  0.32303849848755567  0.29731904665982967  1.0000
  H   H9        1.0  0.38233909306853064  0.015768664237143095  0.7660852595633045  1.0000
  H   H10       1.0  0.6176594397448483  0.9842356022628423  0.2339104787052191  1.0000
  H   H11       1.0  0.2709315011806622  0.872787939171751  0.04361741994416233  1.0000
  H   H12       1.0  0.7290696973199218  0.12721743654340403  0.9563789623402813  1.0000
  H   H13       1.0  0.7960272421098792  0.7866007919463199  0.0025932280940069437  1.0000
  H   H14       1.0  0.20397390150012024  0.2133982648240291  0.9974125512533121  1.0000
  H   H15       1.0  0.9233374007740877  0.9331914002487096  0.7275340775946476  1.0000
  H   H16       1.0  0.0766571889239671  0.0668118844364258  0.2724687873270497  1.0000
  C   C1        1.0  0.542265032493546  0.4029022129429407  0.8148239406669759  1.0000
  C   C2        1.0  0.4577333876500234  0.5970945327833875  0.1851742709788055  1.0000
  C   C3        1.0  0.4625577608883589  0.3476540653596487  0.9672121259827549  1.0000
  C   C4        1.0  0.5374406592552105  0.6523426803666795  0.03278608566303382  1.0000
  C   C5        1.0  0.026339382834500193  0.8154819708460936  0.043469916991867155  1.0000
  C   C6        1.0  0.9736631467236945  0.184522416232511  0.9565312204416543  1.0000
  C   C7        1.0  0.24727311263448828  0.5323203087240814  0.9317526651150202  1.0000
  C   C8        1.0  0.75272532815206  0.4676775253002178  0.06824598704844931  1.0000
  C   C9        1.0  0.334738462050062  0.5828375282875554  0.780184774441352  1.0000
  C   C10       1.0  0.66525734430261  0.41716031725695046  0.2198155265575892  1.0000
  C   C11       1.0  0.9523400983189205  0.7335067006342513  0.20901350414939662  1.0000
  C   C12       1.0  0.04766634483443968  0.26649447725424846  0.790988006228666  1.0000
  C   C13       1.0  0.2538677970934202  0.961834216987562  0.8236010183491587  1.0000
  C   C14       1.0  0.746128132539411  0.0381711817679928  0.17639866160622125  1.0000
  C   C15       1.0  0.19273612632461826  0.8812469216360413  0.9761794016170382  1.0000
  C   C16       1.0  0.8072650674485189  0.11875741443722627  0.023819318650247084  1.0000
  C   C17       1.0  0.3136057688787232  0.41339736957124273  0.028290877335486186  1.0000
  C   C18       1.0  0.6863913160575166  0.5865983017265535  0.9717081812937635  1.0000
  C   C19       1.0  0.9274364897241442  0.8338798289702112  0.9532540828627846  1.0000
  C   C20       1.0  0.0725593891678287  0.1661213139056201  0.046749392022924496  1.0000
  C   C21       1.0  0.9968873225127125  0.915564886639011  0.8013850046659241  1.0000
  C   C22       1.0  0.003104591465500999  0.0844362329703756  0.19861862805586125  1.0000
  C   C23       1.0  0.23415050911282978  0.35656509832133304  0.19424011945409353  1.0000
  C   C24       1.0  0.7658492621536013  0.6434327704896103  0.8057600237087641  1.0000
  N   N1        1.0  0.48081949429339926  0.5206738580012384  0.722024172396722  1.0000
  N   N2        1.0  0.5191776165910014  0.479322917813235  0.27797625291706407  1.0000
  N   N3        1.0  0.15748109489485526  0.9797231921866896  0.7372380265845565  1.0000
  N   N4        1.0  0.8425161085940972  0.020278992680268004  0.2627627489839809  1.0000
  N   N5        1.0  0.7050981469867708  0.1681613426991859  0.547995646463434  1.0000
  N   N6        1.0  0.2949043053046765  0.8318387074062059  0.45200465506618287  1.0000
  O   O1        1.0  0.7912607124635614  0.694650868979231  0.26171926853774613  1.0000
  O   O2        1.0  0.2087443494690646  0.30534601824290764  0.7382845457712577  1.0000
  O   O3        1.0  0.057624157386037184  0.7155563194520627  0.27917602082202103  1.0000
  O   O4        1.0  0.9423836516502673  0.28444807702353353  0.7208236712742605  1.0000
  O   O5        1.0  0.10571818169071891  0.42502879657222076  0.24514378734085077  1.0000
  O   O6        1.0  0.8942842652955533  0.5749712373144718  0.7548555880219181  1.0000
  O   O7        1.0  0.308019696025191  0.24569871578178487  0.2664829408927645  1.0000
  O   O8        1.0  0.6919813951107727  0.754299155378405  0.7335168409357776  1.0000
  O   O9        1.0  0.6773321161271751  0.28557162209781944  0.561420987756719  1.0000
  O   O10       1.0  0.32267033616427193  0.7144284280075723  0.43857931377289117  1.0000
  O   O11       1.0  0.8575795167819322  0.11440783141340921  0.5298377945108541  1.0000
  O   O12       1.0  0.142422935509515  0.8855922186919827  0.47016250701875606  1.0000
  O   O13       1.0  0.5797280675780809  0.1062678443139902  0.5498796654694901  1.0000
  O   O14       1.0  0.42027436937556206  0.8937311337121232  0.45012112170928015  1.0000
