data_image0
_chemical_formula_structural       Zn4H40C48N8O16
_chemical_formula_sum              "Zn4 H40 C48 N8 O16"
_cell_length_a       7.977060031
_cell_length_b       7.977056372
_cell_length_c       17.627
_cell_angle_alpha    90.0
_cell_angle_beta     90.0
_cell_angle_gamma    90.0

_space_group_name_H-M_alt    "P 1"
_space_group_IT_number       1

loop_
  _space_group_symop_operation_xyz
  'x, y, z'

loop_
  _atom_site_type_symbol
  _atom_site_label
  _atom_site_symmetry_multiplicity
  _atom_site_fract_x
  _atom_site_fract_y
  _atom_site_fract_z
  _atom_site_occupancy
  Zn  Zn1       1.0  0.7353310589621671  0.7353301426562879  0.0  1.0000
  Zn  Zn2       1.0  0.2646689371516899  0.2646690585528191  0.5  1.0000
  Zn  Zn3       1.0  0.7646689352086187  0.2353299152541055  0.75  1.0000
  Zn  Zn4       1.0  0.23533106090523864  0.7646692859549946  0.25  1.0000
  H   H1        1.0  0.6835162301413078  0.4000962073181142  0.0738917569637465  1.0000
  H   H2        1.0  0.3164837659725493  0.5999042474862435  0.5738917569637465  1.0000
  H   H3        1.0  0.0999039742590568  0.1835163162615316  0.8238917569637465  1.0000
  H   H4        1.0  0.9000960218547931  0.8164841385428261  0.3238917569637465  1.0000
  H   H5        1.0  0.8164825104348026  0.9000951811250388  0.6761076757247437  1.0000
  H   H6        1.0  0.1835162320843793  0.0999052736793189  0.1761082430362535  1.0000
  H   H7        1.0  0.4000960237978717  0.683516543663707  0.9261082430362535  1.0000
  H   H8        1.0  0.5999039723159854  0.3164839111406508  0.4261082430362535  1.0000
  H   H9        1.0  0.4727568785172168  0.1657716754568241  0.0739195552277749  1.0000
  H   H10       1.0  0.5272431175966403  0.8342275257522758  0.5739195552277749  1.0000
  H   H11       1.0  0.334227145043279  0.9727573227684871  0.8239195552277749  1.0000
  H   H12       1.0  0.665771597475896  0.0272431320358706  0.3239195552277749  1.0000
  H   H13       1.0  0.027243119539711806  0.6657719028590066  0.6760804447722251  1.0000
  H   H14       1.0  0.9727568765741454  0.3342285519453512  0.1760804447722251  1.0000
  H   H15       1.0  0.1657715994189672  0.4727570953663047  0.9260804447722252  1.0000
  H   H16       1.0  0.8342283966948898  0.527243359438053  0.4260804447722251  1.0000
  H   H17       1.0  0.9650522836838888  0.3428971631191047  0.0210336415725862  1.0000
  H   H18       1.0  0.034946458835293015  0.657103291685253  0.5210336415725862  1.0000
  H   H19       1.0  0.157102992221418  0.4650524989420219  0.7710336415725862  1.0000
  H   H20       1.0  0.842897003892439  0.534946702267078  0.2710336415725862  1.0000
  H   H21       1.0  0.5349464568922218  0.8428973905212871  0.7289663584274138  1.0000
  H   H22       1.0  0.46505228562696044  0.1571030642830706  0.2289663584274138  1.0000
  H   H23       1.0  0.3428970058355105  0.9650527263442044  0.9789663584274136  1.0000
  H   H24       1.0  0.6571029902783465  0.0349477284601534  0.47896635842741375  1.0000
  H   H25       1.0  0.1107425538440197  0.7504861092637611  0.9807182163726084  1.0000
  H   H26       1.0  0.8892574422698376  0.2495143455405966  0.48071821637260836  1.0000
  H   H27       1.0  0.7495142291477139  0.6107428320427601  0.7307182163726083  1.0000
  H   H28       1.0  0.2504857669661433  0.3892576227615976  0.23071821637260828  1.0000
  H   H29       1.0  0.38925744421290903  0.2504858818615858  0.7692817836273917  1.0000
  H   H30       1.0  0.6107425519009482  0.7495133193475212  0.2692817836273917  1.0000
  H   H31       1.0  0.7504857650230718  0.1107426046405777  0.0192817836273917  1.0000
  H   H32       1.0  0.2495142310907852  0.8892565965685293  0.5192817836273917  1.0000
  H   H33       1.0  0.7044224285843301  0.4211302820664073  0.8944290009644291  1.0000
  H   H34       1.0  0.2955775675295271  0.5788701727379504  0.3944290009644291  1.0000
  H   H35       1.0  0.0788699091588896  0.2044225242940314  0.6444290009644291  1.0000
  H   H36       1.0  0.9211300869549677  0.7955779305103334  0.1444290009644291  1.0000
  H   H37       1.0  0.7955775655864556  0.9211305094685898  0.8555709990355709  1.0000
  H   H38       1.0  0.2044224305274014  0.0788711989310258  0.3555704317240611  1.0000
  H   H39       1.0  0.4211300888980389  0.704421498100956  0.1055709990355709  1.0000
  H   H40       1.0  0.5788699072158182  0.295577703108151  0.6055704317240611  1.0000
  C   C1        1.0  0.568289568134503  0.4072554898073903  0.0408226016905857  1.0000
  C   C2        1.0  0.431710427979354  0.5927437114017167  0.5408226016905857  1.0000
  C   C3        1.0  0.0927446950536819  0.0682883478061029  0.7908226016905857  1.0000
  C   C4        1.0  0.9072553010601754  0.9317121069982548  0.2908226016905857  1.0000
  C   C5        1.0  0.9317104260362827  0.9072557172095657  0.7091773983094143  1.0000
  C   C6        1.0  0.0682883164828993  0.0927447375947921  0.2091773983094143  1.0000
  C   C7        1.0  0.4072553030032466  0.568289828803529  0.9591773983094143  1.0000
  C   C8        1.0  0.5927446931106104  0.4317118795960795  0.4591773983094143  1.0000
  C   C9        1.0  0.4500592932795016  0.2794878080372669  0.0410620071481276  1.0000
  C   C10       1.0  0.5499407028343555  0.7205126467670908  0.5410620071481276  1.0000
  C   C11       1.0  0.220512318218006  0.9500584735243507  0.7910620071481276  1.0000
  C   C12       1.0  0.7794876778958513  0.0499407276847563  0.2910620071481276  1.0000
  C   C13       1.0  0.049940704777427  0.7794867818441915  0.7089379928518724  1.0000
  C   C14       1.0  0.9500592913364303  0.2205124193649084  0.2089379928518724  1.0000
  C   C15       1.0  0.2794876798389226  0.4500594997174262  0.9589379928518725  1.0000
  C   C16       1.0  0.7205123162749345  0.5499409550869316  0.4589379928518724  1.0000
  C   C17       1.0  0.3011999396598242  0.3012000778173771  0.0  1.0000
  C   C18       1.0  0.6988000564540329  0.6988003769869806  0.5  1.0000
  C   C19       1.0  0.19880005839710446  0.8012003052195524  0.75  1.0000
  C   C20       1.0  0.8011999377167527  0.1988001495848053  0.25  1.0000
  C   C21       1.0  0.1707295663699924  0.1707283910867687  0.0  1.0000
  C   C22       1.0  0.8292679225545145  0.8292695565270876  0.5  1.0000
  C   C23       1.0  0.3292704316869361  0.670728618488944  0.75  1.0000
  C   C24       1.0  0.6707333252109535  0.3292668219344037  0.2500005673115098  1.0000
  C   C25       1.0  0.0017964011734009  0.2130698243484872  0.0103800987122042  1.0000
  C   C26       1.0  0.9982035949404562  0.7869306304558705  0.5103800987122042  1.0000
  C   C27       1.0  0.2869302714415056  0.5017966293995713  0.7603800987122042  1.0000
  C   C28       1.0  0.7130697246723514  0.4982025718095286  0.2603800987122042  1.0000
  C   C29       1.0  0.49820359688352783  0.7130687981554118  0.7396199012877958  1.0000
  C   C30       1.0  0.5017963992303296  0.2869304030536952  0.2396199012877958  1.0000
  C   C31       1.0  0.21306972661542295  0.0017976555926467  0.9896199012877956  1.0000
  C   C32       1.0  0.7869302694984344  0.9982027992117111  0.48961990128779576  1.0000
  C   C33       1.0  0.8831148283482193  0.08571582901181783  0.0105083111136324  1.0000
  C   C34       1.0  0.1168839141709626  0.9142846257925399  0.5105088784251421  1.0000
  C   C35       1.0  0.41428295476745103  0.3831150060224218  0.7605083111136324  1.0000
  C   C36       1.0  0.5857157877517309  0.616885448781936  0.2605083111136324  1.0000
  C   C37       1.0  0.6168851658225663  0.5857160564140003  0.7394911215748579  1.0000
  C   C38       1.0  0.3831148302912908  0.4142843983903575  0.23949112157485788  1.0000
  C   C39       1.0  0.08571704328947763  0.8831139798293537  0.9894916888863676  1.0000
  C   C40       1.0  0.9142829528243797  0.1168852213797535  0.4894916888863677  1.0000
  C   C41       1.0  0.8290974336783208  0.4720989578585346  0.8787643955295863  1.0000
  C   C42       1.0  0.1709025624355363  0.5279027505410738  0.3787638282180765  1.0000
  C   C43       1.0  0.027903763934958206  0.3290963329800078  0.6287632609065668  1.0000
  C   C44       1.0  0.9720962321788991  0.6709028682290992  0.1287632609065668  1.0000
  C   C45       1.0  0.670902560492465  0.9720954244749578  0.8712367390934332  1.0000
  C   C46       1.0  0.3290974356213923  0.0279037767341492  0.3712367390934332  1.0000
  C   C47       1.0  0.4720987413113278  0.8290965603821832  0.12123617178192352  1.0000
  C   C48       1.0  0.5279012548025293  0.1709026408269168  0.6212361717819235  1.0000
  N   N1        1.0  0.5485366767951305  0.5485356748084413  0.0  1.0000
  N   N2        1.0  0.4514633193187265  0.4514635264006657  0.5  1.0000
  N   N3        1.0  0.951463317375655  0.0485367010015167  0.75  1.0000
  N   N4        1.0  0.04853667873820201  0.951463753802841  0.25  1.0000
  N   N5        1.0  0.9236021756597455  0.9236025993072943  0.0  1.0000
  N   N6        1.0  0.0763978204541118  0.0763978554970635  0.5  1.0000
  N   N7        1.0  0.5763978185110403  0.4236023719051119  0.75  1.0000
  N   N8        1.0  0.4236021776028168  0.5763980828992459  0.25  1.0000
  O   O1        1.0  0.8790531815918856  0.6045525786839718  0.9112809893912726  1.0000
  O   O2        1.0  0.1209468145219716  0.3954478761203859  0.4112809893912726  1.0000
  O   O3        1.0  0.8954464391945365  0.3790533574030519  0.6612809893912726  1.0000
  O   O4        1.0  0.10455355691932063  0.6209470974013058  0.1612809893912726  1.0000
  O   O5        1.0  0.620945558984225  0.1045536048770472  0.8387184432972177  1.0000
  O   O6        1.0  0.3790531835349569  0.8954468499273105  0.3387190106087274  1.0000
  O   O7        1.0  0.6045523013815741  0.8790523312099765  0.0887190106087274  1.0000
  O   O8        1.0  0.3954476947322832  0.1209468699991305  0.5887190106087274  1.0000
  O   O9        1.0  0.5889412868579171  0.8912573345921473  0.9212015657797679  1.0000
  O   O10       1.0  0.4110587092559399  0.1087431202122104  0.4212021330912776  1.0000
  O   O11       1.0  0.6087430683897281  0.0889400760022596  0.6712021330912776  1.0000
  O   O12       1.0  0.391256927724129  0.9110591252068474  0.1712021330912776  1.0000
  O   O13       1.0  0.9110587073128686  0.3912571071899649  0.8287978669087224  1.0000
  O   O14       1.0  0.0889412888009886  0.6087433476143929  0.3287978669087224  1.0000
  O   O15       1.0  0.8912581793757326  0.5889415569996928  0.0787984342202321  1.0000
  O   O16       1.0  0.10874307033279963  0.4110576442094143  0.5787984342202321  1.0000
