data_image0
_chemical_formula_structural       K2H38C40O16
_chemical_formula_sum              "K2 H38 C40 O16"
_cell_length_a       7.325365787596594
_cell_length_b       10.840207979394371
_cell_length_c       13.22469637894052
_cell_angle_alpha    102.56177206694426
_cell_angle_beta     106.07364118748147
_cell_angle_gamma    89.93552961735386

_space_group_name_H-M_alt    "P 1"
_space_group_IT_number       1

loop_
  _space_group_symop_operation_xyz
  'x, y, z'

loop_
  _atom_site_type_symbol
  _atom_site_label
  _atom_site_symmetry_multiplicity
  _atom_site_fract_x
  _atom_site_fract_y
  _atom_site_fract_z
  _atom_site_occupancy
  K   K1        1.0  0.27395022831491644  0.750335980819962  0.00024722996621309436  1.0000
  K   K2        1.0  0.7260314602703346  0.24966442197013816  0.9997559936336273  1.0000
  H   H1        1.0  0.4999950829623002  0.5000153198336222  1.818590931144186e-06  1.0000
  H   H2        1.0  0.4999971343083515  5.277681793795017e-06  0.9999975034336613  1.0000
  H   H3        1.0  0.5109874153376666  0.7174845221949938  0.521131559511886  1.0000
  H   H4        1.0  0.9897863330053553  0.7829825861836424  0.479046885812245  1.0000
  H   H5        1.0  0.4890279702230628  0.2825289490707021  0.478872638525921  1.0000
  H   H6        1.0  0.010215569477409795  0.2170232997020065  0.5209546886673947  1.0000
  H   H7        1.0  0.2553343522733512  0.7413820865094394  0.6137623658028345  1.0000
  H   H8        1.0  0.6422812042657995  0.7584434085909564  0.3858219344343609  1.0000
  H   H9        1.0  0.7446431921715019  0.25862196199168613  0.38624268621421  1.0000
  H   H10       1.0  0.3577370712754798  0.24155488084095822  0.6141771001792974  1.0000
  H   H11       1.0  0.274943459688231  0.636971657382496  0.7653022526902048  1.0000
  H   H12       1.0  0.5101017611842238  0.8628389253987192  0.23458784923759163  1.0000
  H   H13       1.0  0.7250725051189163  0.3630172344062288  0.23470087293266315  1.0000
  H   H14       1.0  0.4899013696150689  0.13716391834321232  0.7653967608264977  1.0000
  H   H15       1.0  0.9394649631886974  0.6673161289229411  0.6109277756477665  1.0000
  H   H16       1.0  0.3283965127319206  0.8323232306679317  0.3891015297854422  1.0000
  H   H17       1.0  0.06051011877955399  0.33267656331467776  0.38907571684960357  1.0000
  H   H18       1.0  0.6716271565829784  0.16768735695990958  0.6108989224657221  1.0000
  H   H19       1.0  0.7811421437159253  0.5962433394352118  0.48221339402002167  1.0000
  H   H20       1.0  0.2985415489977754  0.9029384202931466  0.5178164642384003  1.0000
  H   H21       1.0  0.2188726964925394  0.4037482801373714  0.5177809477305075  1.0000
  H   H22       1.0  0.7014760224830849  0.09706736865405927  0.482177689240231  1.0000
  H   H23       1.0  0.9031421730060671  0.5002154283209846  0.5694862771443283  1.0000
  H   H24       1.0  0.3342633828552549  0.999445709749416  0.4311615457737189  1.0000
  H   H25       1.0  0.0968540547051902  0.4997753832411292  0.43051865669971784  1.0000
  H   H26       1.0  0.6657499169264085  0.0005601005923380971  0.5688342185401466  1.0000
  H   H27       1.0  0.1539384423841383  0.3500783360229107  0.786334596109256  1.0000
  H   H28       1.0  0.3675173078985238  0.14984932081775776  0.21340320273332475  1.0000
  H   H29       1.0  0.8460525407717014  0.6499171833379266  0.21366881522656195  1.0000
  H   H30       1.0  0.6324871766384347  0.8501537284478571  0.7865982883451463  1.0000
  H   H31       1.0  0.9777826312405437  0.2878396193834832  0.8323755851908528  1.0000
  H   H32       1.0  0.1456168369340958  0.21252989762862742  0.16718755674159516  1.0000
  H   H33       1.0  0.02219509545203379  0.7121662952791752  0.16762754432922827  1.0000
  H   H34       1.0  0.8543589826503533  0.7874551933890358  0.8328124865623534  1.0000
  H   H35       1.0  0.16483390114167662  0.3957949596480503  0.9264781133501357  1.0000
  H   H36       1.0  0.23815187037364174  0.1035601035547273  0.07335178522319548  1.0000
  H   H37       1.0  0.8351596432409423  0.6042128259423548  0.07352400300041499  1.0000
  H   H38       1.0  0.7618538741184793  0.8964410169425678  0.9266465475916588  1.0000
  C   C1        1.0  0.5337400606707874  0.547878366301319  0.7549752522719045  1.0000
  C   C2        1.0  0.7788483017408366  0.9524273906112342  0.2450904490835909  1.0000
  C   C3        1.0  0.46627090144827565  0.45213316773861567  0.2450249060722384  1.0000
  C   C4        1.0  0.2211439713491572  0.047551069394039296  0.7549087436649488  1.0000
  C   C5        1.0  0.6740368658408329  0.5335535776445822  0.6996551124622598  1.0000
  C   C6        1.0  0.9744271615042803  0.96687279870914  0.300539990881738  1.0000
  C   C7        1.0  0.32594999012385256  0.46644273438869993  0.300335695665062  1.0000
  C   C8        1.0  0.025579546692483697  0.03312366312161431  0.6994637471843247  1.0000
  C   C9        1.0  0.671281069851652  0.5960259514064956  0.6171856458852573  1.0000
  C   C10       1.0  0.05425595896037551  0.9042389213620156  0.3829591301252718  1.0000
  C   C11       1.0  0.3287068485678475  0.4039666119263288  0.38280771298833116  1.0000
  C   C12       1.0  0.9457355429576493  0.09574724156787083  0.6170518421451233  1.0000
  C   C13       1.0  0.5166453701571639  0.6693636227008  0.586214505686655  1.0000
  C   C14       1.0  0.9306760880261747  0.8308924352175069  0.4137868968180171  1.0000
  C   C15       1.0  0.4833235005005036  0.3306384452479633  0.41378281635385855  1.0000
  C   C16       1.0  0.06934111895923677  0.16910962140662625  0.5862111016545412  1.0000
  C   C17       1.0  0.3734177063664531  0.6827338815500285  0.6377807761071279  1.0000
  C   C18       1.0  0.7361082268207965  0.8173015653812639  0.36204084374680423  1.0000
  C   C19       1.0  0.626577464991037  0.3172606602207892  0.36222009238547764  1.0000
  C   C20       1.0  0.2638786846604689  0.1826807479319257  0.6379642248139631  1.0000
  C   C21       1.0  0.3835172985733095  0.6237731453008665  0.7227076683946834  1.0000
  C   C22       1.0  0.661184235540631  0.8763183666580546  0.2771559671996471  1.0000
  C   C23       1.0  0.6164624592463923  0.3762231376688591  0.27728052333992537  1.0000
  C   C24       1.0  0.3388290794936565  0.12368739745431159  0.7228360106012843  1.0000
  C   C25       1.0  0.5438762967095698  0.4856945077042381  0.8473147669034873  1.0000
  C   C26       1.0  0.6963005741306958  0.014504498246218099  0.1527597579397195  1.0000
  C   C27       1.0  0.4561072839517095  0.5143283566893756  0.15268383805780417  1.0000
  C   C28       1.0  0.3037093305820946  0.9854806897455078  0.8472493604573827  1.0000
  C   C29       1.0  0.8321204348547796  0.5888464476004672  0.5667526148070721  1.0000
  C   C30       1.0  0.265452654008655  0.9109036387611555  0.4334450820117794  1.0000
  C   C31       1.0  0.16787014301542058  0.4111442537995415  0.4332431072784927  1.0000
  C   C32       1.0  0.7345593053708228  0.0891031349075817  0.5665521512551378  1.0000
  C   C33       1.0  0.9518230116954098  0.4812958247170443  0.8232040528416175  1.0000
  C   C34       1.0  0.12824207237577667  0.019204674254588404  0.1769819015155036  1.0000
  C   C35       1.0  0.04817772958236328  0.5187128999030008  0.17679782539670438  1.0000
  C   C36       1.0  0.8717667729327161  0.980784253191722  0.823023908832745  1.0000
  C   C37       1.0  0.06979013459107358  0.3726230836382811  0.8442713889124889  1.0000
  C   C38       1.0  0.22539320138285754  0.12738650177017521  0.1555974061762697  1.0000
  C   C39       1.0  0.9301983652607433  0.6273761823086588  0.15572925131954912  1.0000
  C   C40       1.0  0.7746061368226052  0.8726071271317795  0.8444062205912245  1.0000
  O   O1        1.0  0.60915454953809  0.37950413728656673  0.8475950009596785  1.0000
  O   O2        1.0  0.7606843925929211  0.12072510852212298  0.15237113364432278  1.0000
  O   O3        1.0  0.39089468452006315  0.6205227693459178  0.15242731341258772  1.0000
  O   O4        1.0  0.23935047128412634  0.8792523107844661  0.8476216209801491  1.0000
  O   O5        1.0  0.48025965741021526  0.5515022102778177  0.9243602386189024  1.0000
  O   O6        1.0  0.5559392224812071  0.9486447266908583  0.07573670804398347  1.0000
  O   O7        1.0  0.5197486061275853  0.44852634401981106  0.07564088874467241  1.0000
  O   O8        1.0  0.4440595451031584  0.0513584158219729  0.9242722319328889  1.0000
  O   O9        1.0  0.8198459070307109  0.4515846710788837  0.7235984591596392  1.0000
  O   O10       1.0  0.0960692723670817  0.04898122662633849  0.2766520372079313  1.0000
  O   O11       1.0  0.1801450475370245  0.5484097256606829  0.2763903887216586  1.0000
  O   O12       1.0  0.9039300219976524  0.9510113258837335  0.7233408126179767  1.0000
  O   O13       1.0  0.966820917292402  0.5862645010591052  0.8834059630035113  1.0000
  O   O14       1.0  0.08259524935488115  0.914304850871133  0.1167480374047755  1.0000
  O   O15       1.0  0.03316216185733369  0.4137375880332713  0.11659356261209548  1.0000
  O   O16       1.0  0.9174134442111422  0.08568211795486749  0.8832521224145891  1.0000
