data_image0
_chemical_formula_structural       Fe3H40C64N8O8
_chemical_formula_sum              "Fe3 H40 C64 N8 O8"
_cell_length_a       14.565042164962184
_cell_length_b       14.949983610672014
_cell_length_c       15.256996078628179
_cell_angle_alpha    107.53319825107144
_cell_angle_beta     110.75242380192434
_cell_angle_gamma    110.16826601121957

_space_group_name_H-M_alt    "P 1"
_space_group_IT_number       1

loop_
  _space_group_symop_operation_xyz
  'x, y, z'

loop_
  _atom_site_type_symbol
  _atom_site_label
  _atom_site_symmetry_multiplicity
  _atom_site_fract_x
  _atom_site_fract_y
  _atom_site_fract_z
  _atom_site_occupancy
  Fe  Fe1       1.0  0.9999924709536571  0.4999407248856612  0.4999532228574424  1.0000
  Fe  Fe2       1.0  0.9954145458097088  0.04611395230701025  0.0723001942309409  1.0000
  Fe  Fe3       1.0  0.004497011752853674  0.9537507490255807  0.9276737707986555  1.0000
  H   H1        1.0  0.3458130363928191  0.28355244620743747  0.30690028757882  1.0000
  H   H2        1.0  0.6368167516454974  0.9279996080837519  0.9416126464453425  1.0000
  H   H3        1.0  0.36304208014571765  0.0718762108848026  0.0582311015226438  1.0000
  H   H4        1.0  0.6541996831591489  0.7162767272630147  0.6931127307206637  1.0000
  H   H5        1.0  0.9901846651480144  0.9443544407096169  0.32090133482619626  1.0000
  H   H6        1.0  0.009611651593338905  0.05586855157956451  0.6796401121716684  1.0000
  H   H7        1.0  0.057307965654430845  0.31840447534796823  0.939471740191351  1.0000
  H   H8        1.0  0.9429512071857148  0.682330171948479  0.06091816467045416  1.0000
  H   H9        1.0  0.16100751786021303  0.2813392493771474  0.2591190645477467  1.0000
  H   H10       1.0  0.8581983388658473  0.16034761929180516  0.13925223178564755  1.0000
  H   H11       1.0  0.14191858794793444  0.8395339652998646  0.8607235275628327  1.0000
  H   H12       1.0  0.839127422308643  0.718839168445925  0.7407106725452266  1.0000
  H   H13       1.0  0.005230914251661997  0.1517921072004356  0.3019297095579319  1.0000
  H   H14       1.0  0.9951333792915519  0.8482788661535989  0.6980371260591764  1.0000
  H   H15       1.0  0.02462056101769865  0.33480869859105417  0.15828830408358394  1.0000
  H   H16       1.0  0.9752822226944601  0.6651835268699671  0.8415672682908022  1.0000
  H   H17       1.0  0.2586475307609603  0.43551054440364817  0.4790936221679445  1.0000
  H   H18       1.0  0.8131228464455448  0.3038364330621094  0.26106293678009257  1.0000
  H   H19       1.0  0.1868898413105241  0.6958994542633476  0.7389337944457565  1.0000
  H   H20       1.0  0.7415443687396389  0.5644440688009666  0.5207676592639813  1.0000
  H   H21       1.0  0.05645936412940237  0.3151093554379827  0.47596611323119475  1.0000
  H   H22       1.0  0.9438537066736501  0.6849449430255561  0.5240128587169507  1.0000
  H   H23       1.0  0.01695827092537172  0.48706632216972423  0.3031915434791586  1.0000
  H   H24       1.0  0.9828345620884703  0.5128028182685256  0.6966682095081964  1.0000
  H   H25       1.0  0.5579866761378937  0.3967042054207255  0.4130340250489652  1.0000
  H   H26       1.0  0.42443995904208975  0.8167524363691072  0.8344224448219606  1.0000
  H   H27       1.0  0.575413166066248  0.1830687319781959  0.1653127320073722  1.0000
  H   H28       1.0  0.44204160674242127  0.603068504405023  0.5868941638297471  1.0000
  H   H29       1.0  0.017604230744126398  0.8514897498031574  0.43153027005877215  1.0000
  H   H30       1.0  0.9821656600636787  0.14846994403270483  0.568739757534523  1.0000
  H   H31       1.0  0.02024938201093114  0.40731549464801736  0.8261280783211902  1.0000
  H   H32       1.0  0.9799496815218232  0.5931562123400835  0.1739905342714534  1.0000
  H   H33       1.0  0.6154590268061709  0.43010521187333944  0.2134974100691664  1.0000
  H   H34       1.0  0.3844928176872313  0.5696229041403668  0.7862726139798538  1.0000
  H   H35       1.0  0.6115559201273016  0.20149564042433338  0.41547516820438085  1.0000
  H   H36       1.0  0.3884049770630752  0.7983056734093807  0.5843422374869647  1.0000
  H   H37       1.0  0.22678683882469394  0.8076609231110582  0.4349695220578553  1.0000
  H   H38       1.0  0.22037379055453957  0.40827653333145275  0.7818523790116956  1.0000
  H   H39       1.0  0.7731727743116964  0.19229313303753046  0.5650068629695254  1.0000
  H   H40       1.0  0.7795643651532771  0.591582931698845  0.21803964041517074  1.0000
  C   C1        1.0  0.7642585437099711  0.4411774812292038  0.33961761308905375  1.0000
  C   C2        1.0  0.23570612113697115  0.5586258770416067  0.6602167073695  1.0000
  C   C3        1.0  0.7627165849702846  0.33312756074153754  0.4335414036502383  1.0000
  C   C4        1.0  0.2372432396897041  0.6666825293715563  0.566291611685628  1.0000
  C   C5        1.0  0.10660716381123331  0.674890991462526  0.44582872630454046  1.0000
  C   C6        1.0  0.10236421041581414  0.4275225106189565  0.6568160375994266  1.0000
  C   C7        1.0  0.8933516576419721  0.3250517860024046  0.5541306629118097  1.0000
  C   C8        1.0  0.8975910938722719  0.5723923354725357  0.3431175202682226  1.0000
  C   C9        1.0  0.7071656304011001  0.4686034601416368  0.2626970116280559  1.0000
  C   C10       1.0  0.29278756251216714  0.5311730874943592  0.7371165771951382  1.0000
  C   C11       1.0  0.7034463099655356  0.24930885505335712  0.4538658751038298  1.0000
  C   C12       1.0  0.2965154705926805  0.7505263113612841  0.5459876311710089  1.0000
  C   C13       1.0  0.21555272932464928  0.7554341543792163  0.47119185852844225  1.0000
  C   C14       1.0  0.21017461335780746  0.4498934034856248  0.7349959858966244  1.0000
  C   C15       1.0  0.7844109952447768  0.24448970432256795  0.5287544366429344  1.0000
  C   C16       1.0  0.7897719789257919  0.5499629252782158  0.2648924019544765  1.0000
  C   C17       1.0  0.7074820275798147  0.3607444882478602  0.3600156721029961  1.0000
  C   C18       1.0  0.29247083814016134  0.639044461892368  0.639801154187424  1.0000
  C   C19       1.0  0.002576544519520611  0.6534036742772928  0.3696788091214387  1.0000
  C   C20       1.0  0.9973777126362008  0.34660304293157634  0.6303384493909262  1.0000
  C   C21       1.0  0.5805225414415531  0.29694392290313243  0.2963004683150245  1.0000
  C   C22       1.0  0.4194242018840485  0.7028608119381233  0.7035385561641263  1.0000
  C   C23       1.0  0.9992735976387194  0.7157609185063973  0.309627501025666  1.0000
  C   C24       1.0  0.0006898064323124393  0.2844233780170314  0.6905547366048311  1.0000
  C   C25       1.0  0.5152038546990453  0.3250995662462016  0.33542196960018344  1.0000
  C   C26       1.0  0.47498950357956454  0.7944922176142057  0.8037983995663963  1.0000
  C   C27       1.0  0.5249177346207289  0.205350535867673  0.19600713186175506  1.0000
  C   C28       1.0  0.48476949653628754  0.6746948062817495  0.6644777411680493  1.0000
  C   C29       1.0  0.003786025633161222  0.8155794745210231  0.35100389773786833  1.0000
  C   C30       1.0  0.9960648764337992  0.18453927265072448  0.6492855164118866  1.0000
  C   C31       1.0  0.01860926502352809  0.3305539475019899  0.7941710921358123  1.0000
  C   C32       1.0  0.9815131149264927  0.6698675749278564  0.2060530848839548  1.0000
  C   C33       1.0  0.39672404324073085  0.26207807683788786  0.27646085149757477  1.0000
  C   C34       1.0  0.593195535936523  0.8570343896419245  0.8635226736991224  1.0000
  C   C35       1.0  0.40670800267802315  0.14283974225477178  0.1363324748875527  1.0000
  C   C36       1.0  0.6032442564442559  0.7377506105513091  0.7234837550776162  1.0000
  C   C37       1.0  0.9873032494397407  0.8670173004841999  0.2889353731018574  1.0000
  C   C38       1.0  0.01255978431893818  0.1332530981462057  0.7114958574136098  1.0000
  C   C39       1.0  0.038488067985312575  0.2811878187799763  0.857281650114949  1.0000
  C   C40       1.0  0.9616661444486069  0.7193805879730633  0.1430856589231908  1.0000
  C   C41       1.0  0.341964580483669  0.17038825977908792  0.17668084650932056  1.0000
  C   C42       1.0  0.6579663665268213  0.8294700948786371  0.8232289024688909  1.0000
  C   C43       1.0  0.9626403136551789  0.817438390401975  0.1834221478343069  1.0000
  C   C44       1.0  0.03735037632149834  0.1830383143428591  0.8170267256441903  1.0000
  C   C45       1.0  0.21578999414100505  0.10275697626834555  0.11199953878180216  1.0000
  C   C46       1.0  0.7841416057724331  0.8970945669123439  0.8878957586967644  1.0000
  C   C47       1.0  0.93240197532802  0.8619713948379089  0.1081407268225477  1.0000
  C   C48       1.0  0.06752159447292881  0.13853757542691622  0.8923468404929196  1.0000
  C   C49       1.0  0.11681235704723039  0.3066875736016641  0.2972298118571715  1.0000
  C   C50       1.0  0.9239549702341419  0.23318988802651555  0.21603105731839622  1.0000
  C   C51       1.0  0.07614424898607541  0.7667347399952646  0.7839176428935986  1.0000
  C   C52       1.0  0.883302446435685  0.6934105561921768  0.7026261646903932  1.0000
  C   C53       1.0  0.014748334604419667  0.2276511025462398  0.30190984744113786  1.0000
  C   C54       1.0  0.9854782141447418  0.7723823406986201  0.6980381066449652  1.0000
  C   C55       1.0  0.024197105409761766  0.3287976649873272  0.2278067724776562  1.0000
  C   C56       1.0  0.9757850172171775  0.6711810171412654  0.7720684695484082  1.0000
  C   C57       1.0  0.17189621059931434  0.375603043591788  0.41371991857054974  1.0000
  C   C58       1.0  0.8947581078411346  0.3137289333455867  0.27279824760627497  1.0000
  C   C59       1.0  0.1052711338126001  0.6861060729757825  0.7271594880424672  1.0000
  C   C60       1.0  0.8282548784027167  0.624497934358878  0.5861371175531643  1.0000
  C   C61       1.0  0.06168396046479781  0.32735115459927755  0.4104825182215635  1.0000
  C   C62       1.0  0.93852532650925  0.6726888782128597  0.5894562847507386  1.0000
  C   C63       1.0  0.99861637367588  0.4067048754301086  0.2930196520444  1.0000
  C   C64       1.0  0.0013062732352862629  0.5931969341170102  0.7068733116883336  1.0000
  N   N1        1.0  0.8813294973995695  0.5048264976487075  0.3884592901067804  1.0000
  N   N2        1.0  0.1186359321747119  0.49504104342096167  0.6114320129107538  1.0000
  N   N3        1.0  0.8791972923025992  0.37936695992782166  0.49550784611718496  1.0000
  N   N4        1.0  0.12076492128088026  0.6204979811351521  0.504373093019737  1.0000
  N   N5        1.0  0.9970578355916332  0.1436090334232249  0.05660558641830711  1.0000
  N   N6        1.0  0.003229486921028989  0.8564309319367781  0.9435975068359498  1.0000
  N   N7        1.0  0.9972586652557992  0.3859551757956865  0.3820903491457626  1.0000
  N   N8        1.0  0.0027982791274965427  0.6139639713047346  0.6178427749836857  1.0000
  O   O1        1.0  0.1599324016947605  0.11309828069260422  0.15935298168797365  1.0000
  O   O2        1.0  0.8283864056110558  0.962412932806025  0.9864966453937782  1.0000
  O   O3        1.0  0.17156292830664904  0.03764461505320327  0.013345267398300097  1.0000
  O   O4        1.0  0.8399852580773269  0.8865085343268221  0.8405896539464379  1.0000
  O   O5        1.0  0.9837524342319596  0.9687100076391245  0.15375935549703693  1.0000
  O   O6        1.0  0.016062603120964507  0.03182493802724911  0.8467710118717164  1.0000
  O   O7        1.0  0.13456185352452366  0.20425459463972118  0.9893159031338782  1.0000
  O   O8        1.0  0.865432047601949  0.7962910376631027  0.011169944720116115  1.0000
