data_image0
_chemical_formula_structural       K2B2H14C28O2F30
_chemical_formula_sum              "K2 B2 H14 C28 O2 F30"
_cell_length_a       8.850846124945898
_cell_length_b       9.031497822752602
_cell_length_c       11.899608348522847
_cell_angle_alpha    78.04743072298815
_cell_angle_beta     82.2085263547786
_cell_angle_gamma    85.29968627998805

_space_group_name_H-M_alt    "P 1"
_space_group_IT_number       1

loop_
  _space_group_symop_operation_xyz
  'x, y, z'

loop_
  _atom_site_type_symbol
  _atom_site_label
  _atom_site_symmetry_multiplicity
  _atom_site_fract_x
  _atom_site_fract_y
  _atom_site_fract_z
  _atom_site_occupancy
  K   K1        1.0  0.785706134868569  0.2919578329147825  0.02755964951051476  1.0000
  K   K2        1.0  0.21429337137151092  0.7080339758056908  0.972441436529415  1.0000
  B   B1        1.0  0.2077774074965575  0.1904076133798256  0.18718050963423843  1.0000
  B   B2        1.0  0.792225010273192  0.8095932520186155  0.8128205764128394  1.0000
  H   H1        1.0  0.3033074860408504  0.0425117631435867  0.3393908033142949  1.0000
  H   H2        1.0  0.6967016353388118  0.9574913966524152  0.660606723774613  1.0000
  H   H3        1.0  0.41000046868857243  0.02993074835264759  0.20554209962578077  1.0000
  H   H4        1.0  0.5900029573810669  0.9700723921928757  0.7944576954075018  1.0000
  H   H5        1.0  0.6972232484027785  0.34664048842628853  0.3281360918286039  1.0000
  H   H6        1.0  0.3027838656943088  0.6533580996146853  0.6718665407557863  1.0000
  H   H7        1.0  0.7392240815657374  0.3971090220169131  0.518716089289853  1.0000
  H   H8        1.0  0.26077398075776165  0.6028884103052334  0.4812893289840473  1.0000
  H   H9        1.0  0.5534203740955945  0.3107796560907373  0.6924189416134253  1.0000
  H   H10       1.0  0.44657304392696756  0.6892189487009476  0.3075817318649427  1.0000
  H   H11       1.0  0.3284571190508458  0.17300848392666524  0.6747030177366822  1.0000
  H   H12       1.0  0.6715331618873321  0.827004897340764  0.32529068030519426  1.0000
  H   H13       1.0  0.2897303892171267  0.11837815307297458  0.48641228737562864  1.0000
  H   H14       1.0  0.7102620465367124  0.8816374900229463  0.5135816848379163  1.0000
  C   C1        1.0  0.08348652914590098  0.2887834573636071  0.2653132939858125  1.0000
  C   C2        1.0  0.9165115145431884  0.7112140178802591  0.7346870773522765  1.0000
  C   C3        1.0  0.11176363907539155  0.44986182912846573  0.2829388883304205  1.0000
  C   C4        1.0  0.8882285772992662  0.5501379010233691  0.7170625770647445  1.0000
  C   C5        1.0  0.1165847879319131  0.04716210475704229  0.16318703576503416  1.0000
  C   C6        1.0  0.8834143316121439  0.9528365049778815  0.8368130520808988  1.0000
  C   C7        1.0  0.017844834622138657  0.9415262567593319  0.2614323560719781  1.0000
  C   C8        1.0  0.9821567619842637  0.05846894729203461  0.7385688377739469  1.0000
  C   C9        1.0  0.2609314559758786  0.30196701061474573  0.06066315965685478  1.0000
  C   C10       1.0  0.7390710937982731  0.6980315806252549  0.9393391002775215  1.0000
  C   C11       1.0  0.3582448239775218  0.24389015367695782  0.9574864828395062  1.0000
  C   C12       1.0  0.6417599357444317  0.7561095873499893  0.04251369416429181  1.0000
  C   C13       1.0  0.3519956579421404  0.11034677500841639  0.2571792714732836  1.0000
  C   C14       1.0  0.6480066829553335  0.8896552525069127  0.742818283584249  1.0000
  C   C15       1.0  0.4779681855784118  0.2001419280646317  0.2768855414084114  1.0000
  C   C16       1.0  0.5220397861797536  0.7998612522035842  0.7231095793390807  1.0000
  C   C17       1.0  0.4918333468811795  0.22935779838076797  0.39360653349818614  1.0000
  C   C18       1.0  0.5081689909105549  0.7706442362881846  0.6063901804033803  1.0000
  C   C19       1.0  0.6176615063211627  0.30854405905896704  0.4048056727187301  1.0000
  C   C20       1.0  0.3823444030222873  0.6914556614957662  0.595196910626484  1.0000
  C   C21       1.0  0.640661368102144  0.33656505808114195  0.5114638628686092  1.0000
  C   C22       1.0  0.35933776386485045  0.663433523039302  0.4885395896012028  1.0000
  C   C23       1.0  0.5364035680812265  0.28779622887594775  0.6088106907750586  1.0000
  C   C24       1.0  0.4635931450612885  0.7122046387328781  0.39119013974848826  1.0000
  C   C25       1.0  0.4099707455674704  0.21046275734604342  0.5988615065223043  1.0000
  C   C26       1.0  0.5900222764418714  0.7895426699209552  0.4011356452941681  1.0000
  C   C27       1.0  0.38800193185642223  0.18027562658235044  0.49212220967285697  1.0000
  C   C28       1.0  0.6119933032064395  0.8197309433179782  0.5078737003690108  1.0000
  O   O1        1.0  0.5782387011982096  0.24441312936435364  0.1956307292877  1.0000
  O   O2        1.0  0.42176611676161  0.7555854924674178  0.8043679317698249  1.0000
  F   F1        1.0  0.9404680115462937  0.31234812190064076  0.22189237328989003  1.0000
  F   F2        1.0  0.05953035128374748  0.6876436929847999  0.7781079887205562  1.0000
  F   F3        1.0  0.05536067328814909  0.2051793839361977  0.377352963238934  1.0000
  F   F4        1.0  0.9446385138109786  0.794818085142694  0.6226481321286383  1.0000
  F   F5        1.0  0.2531638317252387  0.4584806297804036  0.3114242221555016  1.0000
  F   F6        1.0  0.7468257235562702  0.5415258851013504  0.6885781616105787  1.0000
  F   F7        1.0  0.008768774220534693  0.4922851678250453  0.3670726859916015  1.0000
  F   F8        1.0  0.9912211553340595  0.5077145746567309  0.6329273313445966  1.0000
  F   F9        1.0  0.09617045254921659  0.5554083700508629  0.18380341340361633  1.0000
  F   F10       1.0  0.9038217545082432  0.4445913815618283  0.8161955285236429  1.0000
  F   F11       1.0  0.22274880480703982  0.944635817566336  0.11621114781690513  1.0000
  F   F12       1.0  0.7772538000992524  0.0553616616321193  0.8837887550152316  1.0000
  F   F13       1.0  0.016876232890965095  0.09484056694131482  0.07852957624974978  1.0000
  F   F14       1.0  0.983124094512462  0.9051569031262262  0.921471401991333  1.0000
  F   F15       1.0  0.09782308689200649  0.8798491170849162  0.35068033637757157  1.0000
  F   F16       1.0  0.9021829358214504  0.1201483722330963  0.6493183739191295  1.0000
  F   F17       1.0  0.8894036114599685  0.015019518729502596  0.30267483841853954  1.0000
  F   F18       1.0  0.11059913166219808  0.9849756720032801  0.697327920612828  1.0000
  F   F19       1.0  0.972113648634  0.8254879455538315  0.21909366109582612  1.0000
  F   F20       1.0  0.0278900352329856  0.17451066098205814  0.7809067994001281  1.0000
  F   F21       1.0  0.34567422735430847  0.4185212649388604  0.07774376370724663  1.0000
  F   F22       1.0  0.6543238225462602  0.5814761959977731  0.9222582899427747  1.0000
  F   F23       1.0  0.13427564699949812  0.37971779815349993  0.008957591291355978  1.0000
  F   F24       1.0  0.8657258176024953  0.6202796800563064  0.9910424286672704  1.0000
  F   F25       1.0  0.4887748626919902  0.1660021197508996  0.9891195123424338  1.0000
  F   F26       1.0  0.5112309697791844  0.8339987629207215  0.010879540013242114  1.0000
  F   F27       1.0  0.28023676248768226  0.15277821840226116  0.9118050251004417  1.0000
  F   F28       1.0  0.7197647207487136  0.8472192168858257  0.08820004179399625  1.0000
  F   F29       1.0  0.4000558133190566  0.36375185984807257  0.8713613001824853  1.0000
  F   F30       1.0  0.599946724032165  0.6362467600064079  0.12863759512801917  1.0000
