data_image0
_chemical_formula_structural       Li6H60C30S12N6
_chemical_formula_sum              "Li6 H60 C30 S12 N6"
_cell_length_a       9.45206777328341
_cell_length_b       9.990047294325972
_cell_length_c       14.20185870103848
_cell_angle_alpha    103.39559828020249
_cell_angle_beta     89.98601222966587
_cell_angle_gamma    118.24958886697821

_space_group_name_H-M_alt    "P 1"
_space_group_IT_number       1

loop_
  _space_group_symop_operation_xyz
  'x, y, z'

loop_
  _atom_site_type_symbol
  _atom_site_label
  _atom_site_symmetry_multiplicity
  _atom_site_fract_x
  _atom_site_fract_y
  _atom_site_fract_z
  _atom_site_occupancy
  Li  Li1       1.0  0.9371736033295903  0.9999497777034065  0.2500577976752183  1.0000
  Li  Li2       1.0  0.06282794601613523  5.508510970030003e-05  0.7499416849118817  1.0000
  Li  Li3       1.0  0.14426169233131958  0.0570585380970456  0.05058370699096319  1.0000
  Li  Li4       1.0  0.08721252724762932  0.9429385752046285  0.44942334508906595  1.0000
  Li  Li5       1.0  0.8557400874653993  0.9429404391976703  0.9494155294340912  1.0000
  Li  Li6       1.0  0.912787256435536  0.0570627572245073  0.5505762717593967  1.0000
  H   H1        1.0  0.17657584011028857  0.4632372876391671  0.23803252122599616  1.0000
  H   H2        1.0  0.7134894893047418  0.5368058965727798  0.262012220941223  1.0000
  H   H3        1.0  0.823420650837129  0.5367616919099945  0.761967420128329  1.0000
  H   H4        1.0  0.28651194140370245  0.4631966137396616  0.7379875859549472  1.0000
  H   H5        1.0  0.0031510976615434613  0.4870657017537922  0.22920685712006156  1.0000
  H   H6        1.0  0.5161788387005899  0.5129360741568192  0.2709930117496597  1.0000
  H   H7        1.0  0.9968458623262464  0.5129321001649458  0.7707928940553614  1.0000
  H   H8        1.0  0.4838198856349366  0.48706525525925326  0.7290059005631235  1.0000
  H   H9        1.0  0.9817699389496399  0.2984764385957134  0.22577623424338356  1.0000
  H   H10       1.0  0.683450280258576  0.7015490851571329  0.27430262688805124  1.0000
  H   H11       1.0  0.018228200337880095  0.7015237217233761  0.7742246017599256  1.0000
  H   H12       1.0  0.3165500924170459  0.2984534250288674  0.7256971800737162  1.0000
  H   H13       1.0  0.11557708395050525  0.5914284453355805  0.4018557154730544  1.0000
  H   H14       1.0  0.5240668874240981  0.4084604344381901  0.09829572419125299  1.0000
  H   H15       1.0  0.8844232887251168  0.40857406485041997  0.598144091488713  1.0000
  H   H16       1.0  0.4759318369114282  0.5915408949778821  0.9017031881215303  1.0000
  H   H17       1.0  0.9343095495151135  0.41040333462508743  0.3893501573425908  1.0000
  H   H18       1.0  0.5238429334431203  0.589447003427921  0.11079118615192839  1.0000
  H   H19       1.0  0.06569070583805099  0.5895968259468843  0.6106506785295238  1.0000
  H   H20       1.0  0.4761584959505073  0.410555503997891  0.8892079161429649  1.0000
  H   H21       1.0  0.3603148533622686  0.5727500270474619  0.3815545953110727  1.0000
  H   H22       1.0  0.7875017067024858  0.42718146453842815  0.11845256710741127  1.0000
  H   H23       1.0  0.6396865760313658  0.4272524803783425  0.6184445069838205  1.0000
  H   H24       1.0  0.21249960536868426  0.572818693273348  0.8815475640978221  1.0000
  H   H25       1.0  0.3829827350313195  0.4411874518160417  0.4367198388735432  1.0000
  H   H26       1.0  0.9416481785926225  0.5586575149577228  0.06314068422413037  1.0000
  H   H27       1.0  0.6170192833547645  0.5588162333666346  0.5632794535346547  1.0000
  H   H28       1.0  0.058353133478547474  0.4413426428540531  0.9368594469811028  1.0000
  H   H29       1.0  0.305284040723798  0.7006825182731192  0.544115977629275  1.0000
  H   H30       1.0  0.6042897303371858  0.2991097309153118  0.9559228593460175  1.0000
  H   H31       1.0  0.694715272604185  0.2993199888998177  0.45588312479682  1.0000
  H   H32       1.0  0.3957094669831561  0.7008904295302258  0.044077976591694275  1.0000
  H   H33       1.0  0.49962050486261944  0.7131243185691076  0.5521110872677539  1.0000
  H   H34       1.0  0.78621401436925  0.28670219126095015  0.9478773441837731  1.0000
  H   H35       1.0  0.5003804554906495  0.28687936648713463  0.4478882052060413  1.0000
  H   H36       1.0  0.21378459264381877  0.7132967885410862  0.052122597039357246  1.0000
  H   H37       1.0  0.33598208233546234  0.5693690452889156  0.5969372905339582  1.0000
  H   H38       1.0  0.7663518760168274  0.4304025231988645  0.9030480341153435  1.0000
  H   H39       1.0  0.6640178186701676  0.430634636754256  0.4030612974041574  1.0000
  H   H40       1.0  0.23364732130350765  0.569597637246666  0.09695280182236125  1.0000
  H   H41       1.0  0.5555500683342488  0.0211859854409937  0.40733866419038384  1.0000
  H   H42       1.0  0.5346518479873554  0.9788539160367267  0.09266181641807944  1.0000
  H   H43       1.0  0.4444501857040991  0.9788141722443485  0.592661467080454  1.0000
  H   H44       1.0  0.46535040610898903  0.0211438951740774  0.9073400482331734  1.0000
  H   H45       1.0  0.48322508774809586  0.8178797140936281  0.39200454824986497  1.0000
  H   H46       1.0  0.6656653597374388  0.18224653005851366  0.10810861005091968  1.0000
  H   H47       1.0  0.5167735205797898  0.18211926859503794  0.6079960975745349  1.0000
  H   H48       1.0  0.33433795239172776  0.8177512812787314  0.891893254534736  1.0000
  H   H49       1.0  0.35094607672891676  0.897628773058237  0.4221682869910168  1.0000
  H   H50       1.0  0.45358844611477184  0.10234395777967359  0.0778304890471517  1.0000
  H   H51       1.0  0.6490541773094309  0.10237138462710502  0.5778318442798208  1.0000
  H   H52       1.0  0.5464127486339335  0.8976538504180666  0.9221706710684288  1.0000
  H   H53       1.0  0.49106872314593636  0.8602479750659313  0.22763350667711524  1.0000
  H   H54       1.0  0.6307374510849755  0.13965350907087526  0.2724166940524455  1.0000
  H   H55       1.0  0.5089281195193821  0.139747477238771  0.7723672734086477  1.0000
  H   H56       1.0  0.36925962203133617  0.8603360577154502  0.7275838398712863  1.0000
  H   H57       1.0  0.2837342810015001  0.762749664075919  0.2463932647622045  1.0000
  H   H58       1.0  0.5208911355707003  0.23706423138641242  0.2536143608809809  1.0000
  H   H59       1.0  0.716262095253086  0.23724697163247307  0.7536091147050143  1.0000
  H   H60       1.0  0.47911276818055626  0.7629347634809563  0.7463891030205261  1.0000
  C   C1        1.0  0.05453798711615575  0.4254174375569306  0.2594296984380193  1.0000
  C   C2        1.0  0.6291550628442054  0.5745528227991912  0.24062567967622062  1.0000
  C   C3        1.0  0.9454579122091719  0.5745803584621143  0.7405686436004543  1.0000
  C   C4        1.0  0.37084354416886356  0.4254461570028453  0.7593742615469097  1.0000
  C   C5        1.0  0.057746317352318464  0.4632993023140912  0.3698360457852843  1.0000
  C   C6        1.0  0.5943346897264234  0.5365590294787594  0.13025171141450897  1.0000
  C   C7        1.0  0.9422533463787557  0.5366996747277496  0.6301631907709719  1.0000
  C   C8        1.0  0.4056677977000263  0.46344347807348646  0.869747390814787  1.0000
  C   C9        1.0  0.32349588575892335  0.5130546154088265  0.4403005348675463  1.0000
  C   C10       1.0  0.8102798838985737  0.48678918387116715  0.05968304813605129  1.0000
  C   C11       1.0  0.6765049546422475  0.48694671426012087  0.5596983773140422  1.0000
  C   C12       1.0  0.18972037145458392  0.5132109767007976  0.9403177877360562  1.0000
  C   C13       1.0  0.3685302729835982  0.631521356802196  0.539347448260365  1.0000
  C   C14       1.0  0.7367301438680444  0.3682694880931905  0.9606611707821955  1.0000
  C   C15       1.0  0.6314706873696635  0.36848232825404637  0.4606518442134302  1.0000
  C   C16       1.0  0.26327104693621095  0.6317283114446611  0.039337875529561486  1.0000
  C   C17       1.0  0.0780428385834  0.26774192688855447  0.4401860104283912  1.0000
  C   C18       1.0  0.8102305052142782  0.7321409095684429  0.059840733082808045  1.0000
  C   C19       1.0  0.9219568238328577  0.732257047266664  0.559812521526588  1.0000
  C   C20       1.0  0.1897718635748973  0.26785924548314444  0.940158693455551  1.0000
  C   C21       1.0  0.4498512096760193  0.9042424236771822  0.37949213340653637  1.0000
  C   C22       1.0  0.5458652591413796  0.09577573756377689  0.1205491333122453  1.0000
  C   C23       1.0  0.5501495186619537  0.09575656792424779  0.6205106260904927  1.0000
  C   C24       1.0  0.4541364085921415  0.9042209016634218  0.8794539504282568  1.0000
  C   C25       1.0  0.39943047083098554  0.8717884765889182  0.271332745034826  1.0000
  C   C26       1.0  0.5276104072917533  0.12807178751315007  0.22865833275063346  1.0000
  C   C27       1.0  0.6005676671417107  0.1282116808435489  0.7286673863672134  1.0000
  C   C28       1.0  0.472388432801935  0.8719213125437618  0.7713427715130051  1.0000
  C   C29       1.0  0.23842486254763162  0.9998692838853035  0.2499734537685967  1.0000
  C   C30       1.0  0.7615779765967191  0.00012969642247639965  0.7500264871921374  1.0000
  S   S1        1.0  0.18726924314538002  0.22216534599890278  0.511770893616557  1.0000
  S   S2        1.0  0.9649976220635423  0.7777414204345803  0.9881554500772793  1.0000
  S   S3        1.0  0.812730541852602  0.7778359893168627  0.4882294278331827  1.0000
  S   S4        1.0  0.03500357005552958  0.2222563819899008  0.011844300835747399  1.0000
  S   S5        1.0  0.8739366676644027  0.1354352803253036  0.4020097467668791  1.0000
  S   S6        1.0  0.7385055436498646  0.8644757450885905  0.09809294134119989  1.0000
  S   S7        1.0  0.12606370369640263  0.8645672269740673  0.5979893555936115  1.0000
  S   S8        1.0  0.26149952625296885  0.13552557931284778  0.9019045613754457  1.0000
  S   S9        1.0  0.22180128029091153  0.15290081722005058  0.22347496958551008  1.0000
  S   S10       1.0  0.06870456670394266  0.8468574593271184  0.27654857227965823  1.0000
  S   S11       1.0  0.7782006194578983  0.8471005154619604  0.776524647131751  1.0000
  S   S12       1.0  0.9312914538882995  0.153142694965851  0.7234508546522989  1.0000
  N   N1        1.0  0.14832006122598065  0.40623026482898433  0.4175577105873032  1.0000
  N   N2        1.0  0.7419790513756936  0.5936351628456507  0.08246957808375298  1.0000
  N   N3        1.0  0.8516792521020095  0.5937722423439524  0.5824413918387917  1.0000
  N   N4        1.0  0.2580228483731091  0.40636616983636026  0.9175300386335081  1.0000
  N   N5        1.0  0.3803145623044058  0.9998779585912202  0.24995416560501119  1.0000
  N   N6        1.0  0.6196801642952752  0.00011749346061409882  0.7500466146119535  1.0000
