data_image0
_chemical_formula_structural       Cu4H16C20N12O4
_chemical_formula_sum              "Cu4 H16 C20 N12 O4"
_cell_length_a       5.866285738359408
_cell_length_b       8.618919770550642
_cell_length_c       11.900607928139976
_cell_angle_alpha    90.00047838008302
_cell_angle_beta     89.99982021294478
_cell_angle_gamma    90.00123544800583

_space_group_name_H-M_alt    "P 1"
_space_group_IT_number       1

loop_
  _space_group_symop_operation_xyz
  'x, y, z'

loop_
  _atom_site_type_symbol
  _atom_site_label
  _atom_site_symmetry_multiplicity
  _atom_site_fract_x
  _atom_site_fract_y
  _atom_site_fract_z
  _atom_site_occupancy
  Cu  Cu1       1.0  0.824494570662452  0.35652506800204964  0.7499985970411558  1.0000
  Cu  Cu2       1.0  0.3244730165669694  0.1434737286517134  0.7500014963381929  1.0000
  Cu  Cu3       1.0  0.6755109828074738  0.856512936616923  0.2499996434852036  1.0000
  Cu  Cu4       1.0  0.1755286363713182  0.6434975649310672  0.2500000219966481  1.0000
  H   H1        1.0  0.07923502013770901  0.2341004365935006  0.5544807514930169  1.0000
  H   H2        1.0  0.5792333177704307  0.26590400447057044  0.5544915931686204  1.0000
  H   H3        1.0  0.07921264666815381  0.23409690555132565  0.9455137162056387  1.0000
  H   H4        1.0  0.420771350279793  0.7340815509526591  0.05449002662013669  1.0000
  H   H5        1.0  0.9207762541979748  0.7659105937800418  0.44550274223647784  1.0000
  H   H6        1.0  0.42076602365948906  0.7340907825515685  0.44550450491446003  1.0000
  H   H7        1.0  0.9208037414517563  0.7659118045598844  0.054500028070521  1.0000
  H   H8        1.0  0.5792245815677076  0.26589815299109176  0.9455136340577468  1.0000
  H   H9        1.0  0.7922665305675308  0.6623385675630544  0.6322080649444145  1.0000
  H   H10       1.0  0.29226631930411884  0.8376630445244755  0.632211289661285  1.0000
  H   H11       1.0  0.7922943546565405  0.6623503776982813  0.8677909878729081  1.0000
  H   H12       1.0  0.7077239492671127  0.16232689404485257  0.13222121225129507  1.0000
  H   H13       1.0  0.20774133461454622  0.33768406519129707  0.36777963028715277  1.0000
  H   H14       1.0  0.7077262035218439  0.16233174242201187  0.3677806069581776  1.0000
  H   H15       1.0  0.20771862435096716  0.3376699347449516  0.1322185549732566  1.0000
  H   H16       1.0  0.29227709659846823  0.837656290656845  0.8677832887284255  1.0000
  C   C1        1.0  0.38703760380453645  0.4937083444665048  0.7500067268205652  1.0000
  C   C2        1.0  0.887026173799775  0.0062647072489525986  0.7500000443940067  1.0000
  C   C3        1.0  0.11295782583946588  0.9937393615976331  0.2500019357748258  1.0000
  C   C4        1.0  0.6129685559633202  0.5062713595736595  0.250000295026517  1.0000
  C   C5        1.0  0.044557459858509695  0.3533145067175952  0.5295597057039529  1.0000
  C   C6        1.0  0.5445503688099721  0.14668796321152655  0.5295622690881103  1.0000
  C   C7        1.0  0.044548479243417184  0.3533135856569274  0.970438863453566  1.0000
  C   C8        1.0  0.4554426113285501  0.8533100652762541  0.029562233896626794  1.0000
  C   C9        1.0  0.9554418817712858  0.6466918826622035  0.47043219094791766  1.0000
  C   C10       1.0  0.45543363078640203  0.8533114646480867  0.4704338290143468  1.0000
  C   C11       1.0  0.9554610902546158  0.6466939641404252  0.0295706793554942  1.0000
  C   C12       1.0  0.5445499114520871  0.14668472172389357  0.9704389059481143  1.0000
  C   C13       1.0  0.8829687296555875  0.5885407939024674  0.5729007569711726  1.0000
  C   C14       1.0  0.3829554570186176  0.9114603330302341  0.5729061052897177  1.0000
  C   C15       1.0  0.8829806301064663  0.5885474913894271  0.9270969480977982  1.0000
  C   C16       1.0  0.617026869901359  0.0885277565738321  0.072912288119106  1.0000
  C   C17       1.0  0.1170493633749174  0.411473717217433  0.42707937559352155  1.0000
  C   C18       1.0  0.6170251331661519  0.08853213336476529  0.4270883122066493  1.0000
  C   C19       1.0  0.11703575813893961  0.4114693403892176  0.0729167962027404  1.0000
  C   C20       1.0  0.38295883403134917  0.9114531075263554  0.927090532272679  1.0000
  N   N1        1.0  0.4721303553429762  0.3656743778508087  0.7500063122988507  1.0000
  N   N2        1.0  0.9721058353645374  0.13429879302589137  0.7500012387654136  1.0000
  N   N3        1.0  0.027876459669663203  0.8657099167850858  0.2500049428839901  1.0000
  N   N4        1.0  0.5278775090713382  0.6343041659542121  0.2499990289577241  1.0000
  N   N5        1.0  0.9263549001083505  0.4403452349418869  0.6039886245237867  1.0000
  N   N6        1.0  0.4263495070211931  0.05965803896356898  0.6039935415310964  1.0000
  N   N7        1.0  0.9263619914282302  0.4403480906885234  0.8960090003816887  1.0000
  N   N8        1.0  0.5736291056841624  0.9403280910964467  0.1039956253728249  1.0000
  N   N9        1.0  0.0736444417448112  0.5596750772866059  0.396001591583456  1.0000
  N   N10       1.0  0.5736259692048408  0.9403355876409448  0.3960025565569793  1.0000
  N   N11       1.0  0.0736475782408306  0.5596710615006301  0.10400222304861728  1.0000
  N   N12       1.0  0.42635489367648194  0.059657413929109296  0.8960046741538789  1.0000
  O   O1        1.0  0.303744970592156  0.6218351436625084  0.7500054603951084  1.0000
  O   O2        1.0  0.80374844192513  0.8781471245519793  0.7499984894864651  1.0000
  O   O3        1.0  0.19624408101540783  0.12185694433429718  0.24999928921331357  1.0000
  O   O4        1.0  0.6962645985100268  0.378145720636617  0.2500007211610296  1.0000
