data_image0
_chemical_formula_structural       Al6H62C84S12O64
_chemical_formula_sum              "Al6 H62 C84 S12 O64"
_cell_length_a       13.851571794744071
_cell_length_b       13.986263747145145
_cell_length_c       27.035901326423602
_cell_angle_alpha    90.18515447075555
_cell_angle_beta     90.31512273828841
_cell_angle_gamma    119.78405495212421

_space_group_name_H-M_alt    "P 1"
_space_group_IT_number       1

loop_
  _space_group_symop_operation_xyz
  'x, y, z'

loop_
  _atom_site_type_symbol
  _atom_site_label
  _atom_site_symmetry_multiplicity
  _atom_site_fract_x
  _atom_site_fract_y
  _atom_site_fract_z
  _atom_site_occupancy
  Al  Al1       1.0  0.3634076597309674  0.5376089355053824  0.49632571025651356  1.0000
  Al  Al2       1.0  0.1956510513589081  0.6331473138868234  0.4976151348574688  1.0000
  Al  Al3       1.0  0.438752544096488  0.7953187938243147  0.4984187704537887  1.0000
  Al  Al4       1.0  0.8892534476132001  0.046816120289968  0.9864336520389969  1.0000
  Al  Al5       1.0  0.1427270593054786  0.10092998146388511  0.9856137254010873  1.0000
  Al  Al6       1.0  0.9651322393354678  0.8639502130052538  0.9856804716369963  1.0000
  H   H1        1.0  0.2759824779561555  0.7940573561586391  0.18737498466177976  1.0000
  H   H2        1.0  0.09357636010281573  0.7178769323123718  0.7829395310322839  1.0000
  H   H3        1.0  0.6438299701547763  0.9092222599976695  0.7793169986193645  1.0000
  H   H4        1.0  0.2873382870692751  0.3745723283884743  0.7789706734209147  1.0000
  H   H5        1.0  0.40302193668817676  0.9931431038226466  0.7175151302103799  1.0000
  H   H6        1.0  0.6075411482189568  0.5995464292085871  0.7139049319962963  1.0000
  H   H7        1.0  0.008954749219810853  0.41881781775951066  0.7218338739357505  1.0000
  H   H8        1.0  0.31957135261153274  0.06601000948217721  0.7665154209592798  1.0000
  H   H9        1.0  0.7655040477779026  0.680922962977526  0.7629230812870061  1.0000
  H   H10       1.0  0.9358855611438062  0.260240518408132  0.7689828872835847  1.0000
  H   H11       1.0  0.2873175726103341  0.09663191201662615  0.8540050644715435  1.0000
  H   H12       1.0  0.5249040255907433  0.7333007255535623  0.18046005690595723  1.0000
  H   H13       1.0  0.8291368891398466  0.7141010258237658  0.8509593191818396  1.0000
  H   H14       1.0  0.9129120369507859  0.19108102449966682  0.8555564877374948  1.0000
  H   H15       1.0  0.05721433029808052  0.7459967446143025  0.7015949891775434  1.0000
  H   H16       1.0  0.7086481020144079  0.9437371709713819  0.7001216567428088  1.0000
  H   H17       1.0  0.24670655264304045  0.3097395976679565  0.6982515914993925  1.0000
  H   H18       1.0  0.09133953709140041  0.7138418862718511  0.6145177166698942  1.0000
  H   H19       1.0  0.6354216464850497  0.9095068267136671  0.6135691525683455  1.0000
  H   H20       1.0  0.2718101578294352  0.37727272246297633  0.6113331602137178  1.0000
  H   H21       1.0  0.2705538542842164  0.0645220509632409  0.29555103057294463  1.0000
  H   H22       1.0  0.7840824370963663  0.7281989268527983  0.2951006876529618  1.0000
  H   H23       1.0  0.2214547455482717  0.4908924801989657  0.18439545156174117  1.0000
  H   H24       1.0  0.9312689974699141  0.22537243728682205  0.2860069339287321  1.0000
  H   H25       1.0  0.14271185691599447  0.761956294408826  0.2810183350793167  1.0000
  H   H26       1.0  0.6126479891985357  0.8625278919304977  0.268185851771598  1.0000
  H   H27       1.0  0.24105504265428845  0.3956781664678532  0.2784116725674863  1.0000
  H   H28       1.0  0.10387764043461814  0.7843130666507678  0.20014062587443962  1.0000
  H   H29       1.0  0.7024984026554366  0.9021472645812807  0.19241158142060746  1.0000
  H   H30       1.0  0.21636389993992827  0.3139841485419767  0.20085835098313953  1.0000
  H   H31       1.0  0.5753254325075545  0.07144905969278881  0.1971663605202352  1.0000
  H   H32       1.0  0.47775018135151726  0.42672643493423823  0.1939081618482987  1.0000
  H   H33       1.0  0.9425897909287787  0.509312150118433  0.1837733545142086  1.0000
  H   H34       1.0  0.09627272853632024  0.9035155125186309  0.21484654864836727  1.0000
  H   H35       1.0  0.3285501914587527  0.7933382741934736  0.2691127139959661  1.0000
  H   H36       1.0  0.458522587816546  0.679437485680168  0.2599745161515727  1.0000
  H   H37       1.0  0.21373785963154296  0.5474181972006207  0.26490301860768983  1.0000
  H   H38       1.0  0.06001093560726653  0.7499901145128833  0.8700575904931682  1.0000
  H   H39       1.0  0.7104958673798268  0.9436207172723318  0.8669530835007178  1.0000
  H   H40       1.0  0.2625013815070859  0.30287119092854214  0.8650235902683221  1.0000
  H   H41       1.0  0.4418464062939907  0.9296088288572268  0.2657313990470768  1.0000
  H   H42       1.0  0.48177987071827033  0.5657222705524633  0.2590482307571733  1.0000
  H   H43       1.0  0.07821334728495102  0.5276919769718165  0.2557395161202791  1.0000
  H   H44       1.0  0.6173193246798976  0.17376226674902284  0.2910716106954183  1.0000
  H   H45       1.0  0.8158059119313353  0.8909148449469203  0.2155432514864088  1.0000
  H   H46       1.0  0.5311677611109927  0.38987079506475913  0.2993342888097317  1.0000
  H   H47       1.0  0.8396510589479862  0.47579014098131034  0.28883170347261  1.0000
  H   H48       1.0  0.4285967334118866  0.0875040037926382  0.12174483172206857  1.0000
  H   H49       1.0  0.6587358557351948  0.5632983159876874  0.12121213620812907  1.0000
  H   H50       1.0  0.9354796135540301  0.34990438146930825  0.10749781394445528  1.0000
  H   H51       1.0  0.2510507208272017  0.08096433273804853  0.2154073399642513  1.0000
  H   H52       1.0  0.825481318639959  0.7356959079507704  0.2160915148261111  1.0000
  H   H53       1.0  0.9226483996313847  0.1865791797089997  0.20665627309546858  1.0000
  H   H54       1.0  0.9565911354008564  0.922521316304838  0.3021894930752396  1.0000
  H   H55       1.0  0.9236336846499142  0.08630599029401514  0.2972941154553155  1.0000
  H   H56       1.0  0.08737661832105914  0.19924169318808546  0.2162824985606449  1.0000
  H   H57       1.0  0.11338701041037073  0.07069879824825882  0.2879909615049812  1.0000
  H   H58       1.0  0.4359724841370965  0.959571949230018  0.6305244934784822  1.0000
  H   H59       1.0  0.535012809606073  0.5669182618408402  0.6269741289645836  1.0000
  H   H60       1.0  0.03514067678057136  0.48604967468537563  0.6349138896299918  1.0000
  H   H61       1.0  0.42721393975032385  0.41893557719432556  0.46908618282608927  1.0000
  H   H62       1.0  0.7224511481995252  0.047109168466690214  0.969674384854038  1.0000
  C   C1        1.0  0.5168503435366959  0.7096425585088116  0.4257544230247063  1.0000
  C   C2        1.0  0.22915973105509135  0.939491476946053  0.1420200021937603  1.0000
  C   C3        1.0  0.7163982580141027  0.7628429946994263  0.139417471029617  1.0000
  C   C4        1.0  0.07859281154985351  0.30106210430319896  0.1377316151656913  1.0000
  C   C5        1.0  0.30283466564870326  0.8974778313156835  0.340890488778541  1.0000
  C   C6        1.0  0.5872187863992908  0.7091906608117856  0.33497786861019546  1.0000
  C   C7        1.0  0.09461114918275379  0.4165684775600555  0.33483471158574923  1.0000
  C   C8        1.0  0.3009031004163776  0.8605248135325426  0.3816396535734511  1.0000
  C   C9        1.0  0.5575618403357441  0.7146085821798425  0.3764120637615419  1.0000
  C   C10       1.0  0.1244078183251319  0.4446477815473104  0.377229623911731  1.0000
  C   C11       1.0  0.07650684995587653  0.20470387856819636  0.053252663305585195  1.0000
  C   C12       1.0  0.1693845548789383  0.4834291645149236  0.4261552031501522  1.0000
  C   C13       1.0  0.14541786677106963  0.9449387289433069  0.0543526998231201  1.0000
  C   C14       1.0  0.8112439212797757  0.8520627479691645  0.054165553894811994  1.0000
  C   C15       1.0  0.26557200679911136  0.8351174538921459  0.6170642153651684  1.0000
  C   C16       1.0  0.5808777876415477  0.7362362772897415  0.6155572341198976  1.0000
  C   C17       1.0  0.1552670950310642  0.43579463634704046  0.6182296799867331  1.0000
  C   C18       1.0  0.3530483169369706  0.914274571094531  0.6462908358555097  1.0000
  C   C19       1.0  0.574292407956449  0.6490065661564942  0.6435374102848214  1.0000
  C   C20       1.0  0.08039924220949513  0.4466434398112116  0.6491633676613516  1.0000
  C   C21       1.0  0.33399701450156305  0.9327788425821032  0.6948911154737586  1.0000
  C   C22       1.0  0.6151899265782248  0.6679490339465913  0.6917353386656444  1.0000
  C   C23       1.0  0.29884461932638123  0.8163338512668261  0.4298231200563194  1.0000
  C   C24       1.0  0.06593981144047238  0.4087032015558877  0.6975591123111116  1.0000
  C   C25       1.0  0.22779556874362347  0.8716730033159766  0.7160535866346008  1.0000
  C   C26       1.0  0.6619924544346745  0.7737081281210649  0.7131540966394496  1.0000
  C   C27       1.0  0.12682928652947828  0.3605634915591979  0.7162790532025838  1.0000
  C   C28       1.0  0.5275846691335604  0.7143074210960667  0.5660115698669301  1.0000
  C   C29       1.0  0.17981626435608436  0.48172092031449426  0.5674908195045417  1.0000
  C   C30       1.0  0.2868631741614821  0.8076465568020981  0.5667002014138021  1.0000
  C   C31       1.0  0.14060195875074305  0.7927771260925525  0.6862968891248113  1.0000
  C   C32       1.0  0.6698429329398653  0.8608580004423277  0.6843661625410817  1.0000
  C   C33       1.0  0.2010991828475568  0.3494666478744719  0.684685421484609  1.0000
  C   C34       1.0  0.14689872969738377  0.863922843727281  0.2195040221997431  1.0000
  C   C35       1.0  0.1588437104311781  0.7751464612897154  0.6374147176078822  1.0000
  C   C36       1.0  0.6301644455673172  0.8425642087429215  0.6360065649845907  1.0000
  C   C37       1.0  0.21488749554679032  0.3859786299329002  0.6361891935422719  1.0000
  C   C38       1.0  0.13552407363467736  0.8012944647414744  0.7982007918813778  1.0000
  C   C39       1.0  0.6854776276779831  0.8672006922353364  0.7947928784413776  1.0000
  C   C40       1.0  0.2048366734241328  0.3331928610793114  0.7954605940385235  1.0000
  C   C41       1.0  0.11738212937800814  0.8185585021958562  0.8471378711557164  1.0000
  C   C42       1.0  0.7210629404413428  0.8856985950550328  0.8437410051858831  1.0000
  C   C43       1.0  0.19166034933432036  0.2941631543616979  0.8436153809636977  1.0000
  C   C44       1.0  0.24643601435453635  0.013808822950693406  0.8382526461068096  1.0000
  C   C45       1.0  0.7247398907900193  0.8512787151344556  0.21525987726308674  1.0000
  C   C46       1.0  0.7874097067334561  0.7553835273668884  0.8348904054549066  1.0000
  C   C47       1.0  0.9943941877437581  0.23206732474859856  0.8382149579390941  1.0000
  C   C48       1.0  0.2643680878864887  0.9960866105220847  0.7893686098301343  1.0000
  C   C49       1.0  0.7514762166866692  0.7369862891888064  0.7859348023521733  1.0000
  C   C50       1.0  0.008017397494015213  0.2714383544980024  0.7902204800391175  1.0000
  C   C51       1.0  0.20904755220406926  0.8896758568224998  0.7682476148469206  1.0000
  C   C52       1.0  0.7001797096488147  0.7927048902178129  0.7650392281571357  1.0000
  C   C53       1.0  0.11323491945226755  0.32185955618998463  0.7678023816958585  1.0000
  C   C54       1.0  0.1725131534237435  0.9251602376949751  0.8676699053894692  1.0000
  C   C55       1.0  0.7723368459051091  0.8298515805286688  0.8641344883524552  1.0000
  C   C56       1.0  0.13642920919108553  0.2894083441562501  0.2185332704174812  1.0000
  C   C57       1.0  0.0860111610963159  0.2424904206078295  0.8652011823186285  1.0000
  C   C58       1.0  0.06727424723712262  0.19213280882388525  0.9149117402751866  1.0000
  C   C59       1.0  0.14570791027715316  0.9454023639540455  0.9182637136780087  1.0000
  C   C60       1.0  0.8165050639065825  0.8562180994983352  0.9153320465853767  1.0000
  C   C61       1.0  0.35314879466988486  0.8773885446435447  0.2573581753337209  1.0000
  C   C62       1.0  0.5189341132362701  0.6533298882030893  0.2504572500639171  1.0000
  C   C63       1.0  0.1300981244944382  0.48966352229578564  0.250729229168158  1.0000
  C   C64       1.0  0.3275586643307378  0.043267815211727616  0.2768005854437448  1.0000
  C   C65       1.0  0.7063765015703041  0.6724104311204474  0.27551682605456307  1.0000
  C   C66       1.0  0.9567902588008367  0.30249083139960226  0.2664317901177782  1.0000
  C   C67       1.0  0.1645035071001005  0.8479050899486469  0.2742916363550307  1.0000
  C   C68       1.0  0.31271876316165503  0.053885292650790007  0.21954192914367343  1.0000
  C   C69       1.0  0.7354173927859622  0.6796057686900883  0.21907470526161174  1.0000
  C   C70       1.0  0.9514308454101084  0.2751580442212004  0.2095656290844161  1.0000
  C   C71       1.0  0.19019859955759702  0.9354996178243554  0.1012389704994234  1.0000
  C   C72       1.0  0.7548414927126578  0.8018861011075845  0.09949791602102208  1.0000
  C   C73       1.0  0.08962780881633853  0.263365721487837  0.09908436530838569  1.0000
  C   C74       1.0  0.2893587450636589  0.920416940110762  0.2895738479908658  1.0000
  C   C75       1.0  0.6232487452105321  0.7167122627247554  0.2842783771996267  1.0000
  C   C76       1.0  0.08014889056479298  0.3840875165348551  0.2830546188789  1.0000
  C   C77       1.0  0.3281882069412562  0.878323993084891  0.20177882605015177  1.0000
  C   C78       1.0  0.6778669823524556  0.8395820113968927  0.2672819665123853  1.0000
  C   C79       1.0  0.550961338599244  0.6767205031566592  0.1955992898661165  1.0000
  C   C80       1.0  0.13525769367907264  0.46150619086444084  0.1959708559679356  1.0000
  C   C81       1.0  0.26097891825282465  0.9384311119753121  0.19345810449632944  1.0000
  C   C82       1.0  0.6790707979963745  0.7354538048701402  0.1901445195458535  1.0000
  C   C83       1.0  0.07185552243576153  0.33497318801797604  0.18787373403765167  1.0000
  C   C84       1.0  0.15441107433348839  0.33102748125467235  0.2718984302443204  1.0000
  S   S1        1.0  0.4520105759041898  0.9184793216941574  0.16413448553272048  1.0000
  S   S2        1.0  0.06110256969185462  0.8524048260142223  0.3149593691512749  1.0000
  S   S3        1.0  0.7779704775821517  0.9350755724430757  0.3121088016477386  1.0000
  S   S4        1.0  0.1403780911728276  0.2276457446940228  0.3170733651266602  1.0000
  S   S5        1.0  0.46529907267637344  0.5563313646635779  0.1561890153145953  1.0000
  S   S6        1.0  0.10191003869555008  0.5447478010361523  0.154301181622003  1.0000
  S   S7        1.0  0.4527998138133428  0.14467595706488373  0.312344776974804  1.0000
  S   S8        1.0  0.674543695878562  0.5500426558763394  0.313847717771452  1.0000
  S   S9        1.0  0.8536580416359103  0.32932388288595155  0.2973349160895822  1.0000
  S   S10       1.0  0.4307688470647406  0.17048421995952626  0.18809209317596037  1.0000
  S   S11       1.0  0.7273059825115599  0.5562717394573158  0.1907117025806357  1.0000
  S   S12       1.0  0.8402167681899047  0.2768123264973428  0.17189924218491368  1.0000
  O   O1        1.0  0.2562986070017531  0.48117054422756683  0.43747088479105406  1.0000
  O   O2        1.0  0.24677291378695554  0.46471870435426166  0.542607624454888  1.0000
  O   O3        1.0  0.2022887070628627  0.7417706142278249  0.5400855933398248  1.0000
  O   O4        1.0  0.5436317975603586  0.8000965669140568  0.540982088843009  1.0000
  O   O5        1.0  0.4675544755731381  0.6156763332631459  0.5520768889423237  1.0000
  O   O6        1.0  0.13564336085453027  0.5390686094591787  0.552391524621676  1.0000
  O   O7        1.0  0.3878634721357702  0.8462183489667868  0.5533225405527986  1.0000
  O   O8        1.0  0.33261139416393365  0.6567519193920435  0.4968482330846058  1.0000
  O   O9        1.0  0.00024930836033119756  0.003155777398418998  0.9868702581673074  1.0000
  O   O10       1.0  0.9809044383364312  0.16202572397517662  0.034000298401935  1.0000
  O   O11       1.0  0.19827192756154946  0.037809781000206016  0.0326802442546921  1.0000
  O   O12       1.0  0.21059704841989915  0.7284635467214573  0.44193867215744115  1.0000
  O   O13       1.0  0.8479279043369846  0.7976155799120621  0.029478159206242093  1.0000
  O   O14       1.0  0.8039977228760552  0.9270464616943106  0.9394566810613937  1.0000
  O   O15       1.0  0.15308342641144898  0.20232979573272303  0.9390743258491483  1.0000
  O   O16       1.0  0.07105900945104081  0.8632185314040798  0.9423678621236462  1.0000
  O   O17       1.0  0.9682950597612531  0.13954177176135127  0.9300817051785726  1.0000
  O   O18       1.0  0.19466646655774164  0.044884439574850915  0.934603231267957  1.0000
  O   O19       1.0  0.8688520631726891  0.807655078459412  0.9317400553319215  1.0000
  O   O20       1.0  0.4563795376845902  0.8194334340408318  0.1558186235327099  1.0000
  O   O21       1.0  0.45120019728398864  0.9816640314229593  0.12179826475013297  1.0000
  O   O22       1.0  0.5546111908832574  0.9918824227625083  0.19877209894685413  1.0000
  O   O23       1.0  0.5220396452391187  0.797654454401311  0.4429486334662441  1.0000
  O   O24       1.0  0.3678917611495082  0.5624254691033245  0.1434831665030956  1.0000
  O   O25       1.0  0.5319626150224581  0.5485940143857634  0.1167744663702521  1.0000
  O   O26       1.0  0.4224549060010291  0.4529368949227006  0.1910288741457649  1.0000
  O   O27       1.0  0.20264108071706508  0.6482156343891676  0.1489791271460987  1.0000
  O   O28       1.0  0.04633817187144023  0.48061187447455483  0.1103384153869342  1.0000
  O   O29       1.0  0.021599008141663625  0.5730225809328647  0.18375619858069567  1.0000
  O   O30       1.0  0.4891164472836281  0.25348259501022613  0.2927361312542018  1.0000
  O   O31       1.0  0.41892348082377134  0.12293664434079694  0.36281984317432137  1.0000
  O   O32       1.0  0.5429592830862262  0.11023400529139595  0.30175793871860174  1.0000
  O   O33       1.0  0.736358805255016  0.4985792081829674  0.2962035546168806  1.0000
  O   O34       1.0  0.8227001968392006  0.9447680444290614  0.043784445591164504  1.0000
  O   O35       1.0  0.6917619186868649  0.5896136040321808  0.3636943047273178  1.0000
  O   O36       1.0  0.546784084196922  0.4678616261320486  0.3035544123828018  1.0000
  O   O37       1.0  0.7458675116997214  0.2621766860643789  0.2736707911552969  1.0000
  O   O38       1.0  0.8627994133846073  0.31259276175804024  0.3489841218116823  1.0000
  O   O39       1.0  0.8991060584866447  0.454167000686198  0.2852217690042238  1.0000
  O   O40       1.0  0.41457710747201304  0.2623984575537009  0.19712281884117994  1.0000
  O   O41       1.0  0.5334587159805653  0.173370494998494  0.2013673447115636  1.0000
  O   O42       1.0  0.4085455561198827  0.14536041822331214  0.1313691296374913  1.0000
  O   O43       1.0  0.8302727228905555  0.5624910279025671  0.20404246051474215  1.0000
  O   O44       1.0  0.621291345061387  0.4610718854732384  0.20224020411792756  1.0000
  O   O45       1.0  0.16033709036020846  0.19776386995447848  0.0373763044810218  1.0000
  O   O46       1.0  0.7333797469897192  0.5764262654541384  0.1335035002705425  1.0000
  O   O47       1.0  0.7432288173325504  0.17215520272697668  0.1796616816872216  1.0000
  O   O48       1.0  0.8386134021536265  0.3780150753786343  0.1811004212628617  1.0000
  O   O49       1.0  0.874226518123848  0.2745517954239106  0.11706348786693609  1.0000
  O   O50       1.0  0.9628916875084388  0.7456273721056589  0.31041310422983764  1.0000
  O   O51       1.0  0.10781567699929456  0.9005944254738625  0.3620919397404663  1.0000
  O   O52       1.0  0.0315436662285934  0.9385752397245499  0.2862155373243738  1.0000
  O   O53       1.0  0.7238794287877683  0.9654646600337815  0.3485805348819966  1.0000
  O   O54       1.0  0.8495196770810696  0.8913223022251133  0.329008204699491  1.0000
  O   O55       1.0  0.8529757976039252  0.0353635182641199  0.2769157147083803  1.0000
  O   O56       1.0  0.05464139626479898  0.8619482703393829  0.039527677438187  1.0000
  O   O57       1.0  0.2207808666924791  0.2790038288682127  0.3555561815093354  1.0000
  O   O58       1.0  0.022798249373906305  0.1594560461666248  0.3303457900364392  1.0000
  O   O59       1.0  0.17066129749866127  0.15191151190967395  0.28405846703316223  1.0000
  O   O60       1.0  0.47681871109846  0.6173864383595317  0.4467088176221523  1.0000
  O   O61       1.0  0.11788917801511196  0.5204311303576362  0.4530387558466059  1.0000
  O   O62       1.0  0.3877211650195635  0.8667224969680662  0.45604454646835524  1.0000
  O   O63       1.0  0.3874874884085673  0.42616885387465003  0.49683366373314897  1.0000
  O   O64       1.0  0.7902138219811976  0.08994448736032723  0.9885081855812315  1.0000
