data_image0
_chemical_formula_structural       Cd2H30C36Br2N24
_chemical_formula_sum              "Cd2 H30 C36 Br2 N24"
_cell_length_a       11.04878790667375
_cell_length_b       10.970233936883218
_cell_length_c       10.970248329737032
_cell_angle_alpha    69.80235946978718
_cell_angle_beta     64.41852684024326
_cell_angle_gamma    64.4185658921979

_space_group_name_H-M_alt    "P 1"
_space_group_IT_number       1

loop_
  _space_group_symop_operation_xyz
  'x, y, z'

loop_
  _atom_site_type_symbol
  _atom_site_label
  _atom_site_symmetry_multiplicity
  _atom_site_fract_x
  _atom_site_fract_y
  _atom_site_fract_z
  _atom_site_occupancy
  Cd  Cd1       1.0  0.7419019223130051  0.6294898103041432  0.3654313454935119  1.0000
  Cd  Cd2       1.0  0.24190261238961608  0.36543088103968546  0.6294874666356308  1.0000
  H   H1        1.0  0.4922830703420402  0.2380623256238862  0.7808337821412226  1.0000
  H   H2        1.0  0.9922820454412933  0.7808345756045368  0.2380632021479839  1.0000
  H   H3        1.0  0.6758452620677957  0.08599312990482127  0.9770109654871318  1.0000
  H   H4        1.0  0.17584588542677465  0.9770128640835192  0.08599275975029756  1.0000
  H   H5        1.0  0.44197567831786017  0.9044956622397321  0.44518287124243017  1.0000
  H   H6        1.0  0.9419758678735025  0.44518130943914247  0.9044951931012121  1.0000
  H   H7        1.0  0.1857556870499551  0.044721808619350184  0.5129218504238011  1.0000
  H   H8        1.0  0.685756120613803  0.5129195639033811  0.044722045287308214  1.0000
  H   H9        1.0  0.9987316078257822  0.9356176060817633  0.6110131208205088  1.0000
  H   H10       1.0  0.49873190060220923  0.6110113858839199  0.9356178037205326  1.0000
  H   H11       1.0  0.0617171020691246  0.6831166867940083  0.6513615366817833  1.0000
  H   H12       1.0  0.5617179058304773  0.6513591287697833  0.6831166818991221  1.0000
  H   H13       1.0  0.5724865410095604  0.28507322300172416  0.48119579937686296  1.0000
  H   H14       1.0  0.07248604029828702  0.481195892824779  0.2850717023307753  1.0000
  H   H15       1.0  0.7034617300934658  0.3683109398086727  0.4014602985242846  1.0000
  H   H16       1.0  0.20346114824544512  0.40145981277957776  0.3683091640991735  1.0000
  H   H17       1.0  0.7820347715918106  0.8697773519628527  0.46095314341786775  1.0000
  H   H18       1.0  0.28203627714884777  0.46095412646432254  0.8697763979079626  1.0000
  H   H19       1.0  0.8634432257334552  0.062063255263083796  0.4241351314109351  1.0000
  H   H20       1.0  0.36344317813136934  0.4241365899751628  0.06206250653665532  1.0000
  H   H21       1.0  0.8587926713893524  0.2508579909008119  0.21850464545709503  1.0000
  H   H22       1.0  0.3587923855690677  0.21850499113661206  0.25085804982026627  1.0000
  H   H23       1.0  0.7686757436946864  0.2558558033564751  0.04368062287694832  1.0000
  H   H24       1.0  0.26867532061174165  0.04368234740664428  0.2558549030904658  1.0000
  H   H25       1.0  0.677302508361379  0.7162753831518458  0.10825659806958747  1.0000
  H   H26       1.0  0.17730477124450061  0.10825456719278749  0.7162748234132792  1.0000
  H   H27       1.0  0.5048421245261566  0.8428422581945153  0.1367903888333756  1.0000
  H   H28       1.0  0.0048428524209569255  0.1367907812698589  0.8428408693242347  1.0000
  H   H29       1.0  0.44893411689356116  0.9109675767744175  0.9075186742899461  1.0000
  H   H30       1.0  0.9489341871342705  0.9075176964840064  0.9109689026519805  1.0000
  C   C1        1.0  0.6012518023677844  0.2363559075000693  0.7398764635190105  1.0000
  C   C2        1.0  0.10125112462462482  0.7398765480722033  0.23635668129163181  1.0000
  C   C3        1.0  0.3967311355757917  0.7131696121158981  0.5046144453870057  1.0000
  C   C4        1.0  0.8967316166881645  0.5046113403295677  0.7131698812692593  1.0000
  C   C5        1.0  0.3611236268995059  0.8556717525969261  0.4865338949732275  1.0000
  C   C6        1.0  0.8611233237761413  0.48653118367851517  0.8556718016276721  1.0000
  C   C7        1.0  0.21686823408298064  0.9333778243147176  0.525766621652636  1.0000
  C   C8        1.0  0.7168688456726005  0.5257650101765562  0.9333764133284961  1.0000
  C   C9        1.0  0.11058831966430203  0.8717272145723881  0.5822577094049636  1.0000
  C   C10       1.0  0.6105896795216456  0.582254636417474  0.8717268913215008  1.0000
  C   C11       1.0  0.14496291910710118  0.7297380698307163  0.6043851801238702  1.0000
  C   C12       1.0  0.6449638991647647  0.604382412066485  0.7297376467543445  1.0000
  C   C13       1.0  0.2896437232484814  0.6506115908611391  0.5653538282703182  1.0000
  C   C14       1.0  0.7896451582429126  0.5653514538956086  0.6506108735770654  1.0000
  C   C15       1.0  0.49802893491899164  0.49136885809026143  0.513370696583131  1.0000
  C   C16       1.0  0.9980293191827843  0.5133692708082407  0.4913684474308725  1.0000
  C   C17       1.0  0.6121360061673401  0.35496907168618447  0.4935486114198753  1.0000
  C   C18       1.0  0.11213548485304173  0.4935478407982925  0.35496806525549124  1.0000
  C   C19       1.0  0.7387764711999408  0.9499408041881735  0.2669015391762316  1.0000
  C   C20       1.0  0.23877680024330067  0.266902191636703  0.949939718343856  1.0000
  C   C21       1.0  0.782464901347325  0.9505612126970249  0.36887043403145015  1.0000
  C   C22       1.0  0.28246418859549755  0.3688713184141008  0.9505597673417584  1.0000
  C   C23       1.0  0.8263929865289513  0.05977505411575379  0.34780987240831984  1.0000
  C   C24       1.0  0.32639104614652587  0.347813333715564  0.05977392739181651  1.0000
  C   C25       1.0  0.8234367676092946  0.16711851060987465  0.23113824650395284  1.0000
  C   C26       1.0  0.32343638329797403  0.23114125869820148  0.16711703458639704  1.0000
  C   C27       1.0  0.7745511636477505  0.17066012133723518  0.13171622151687493  1.0000
  C   C28       1.0  0.27454967357616067  0.1317190456378015  0.170659364516915  1.0000
  C   C29       1.0  0.7327387306353617  0.05992327837979868  0.1517839429009271  1.0000
  C   C30       1.0  0.23273762570153883  0.15178580706842124  0.05992426288506181  1.0000
  C   C31       1.0  0.6674532132199572  0.9025672313914087  0.13632449894471688  1.0000
  C   C32       1.0  0.1674543827161657  0.13632499866239559  0.9025672509879216  1.0000
  C   C33       1.0  0.6191842724222881  0.8275341270962924  0.08482715982194125  1.0000
  C   C34       1.0  0.1191856682367245  0.08482675484884789  0.8275334502006189  1.0000
  C   C35       1.0  0.5595646514691025  0.9052665292632867  0.8639471195632427  1.0000
  C   C36       1.0  0.059564704533194526  0.863946208811569  0.9052678508708994  1.0000
  Br  Br1       1.0  0.8985854066244061  0.49179827739041554  0.17016605999898352  1.0000
  Br  Br2       1.0  0.3985934844594966  0.17016483977327107  0.4917961719393915  1.0000
  N   N1        1.0  0.5275346493493703  0.6093937642385538  0.4726202841043234  1.0000
  N   N2        1.0  0.02753539550976575  0.47261706514515817  0.6093928394046131  1.0000
  N   N3        1.0  0.3573012386241743  0.5096594317246143  0.5713671700125575  1.0000
  N   N4        1.0  0.857301340203094  0.5713661500560505  0.5096591927274403  1.0000
  N   N5        1.0  0.6677455115567527  0.28664792928593386  0.6088704959639204  1.0000
  N   N6        1.0  0.167745057933523  0.6088698739235452  0.2866473238585386  1.0000
  N   N7        1.0  0.6911583941105235  0.1858984642104672  0.808942447399872  1.0000
  N   N8        1.0  0.1911584124081004  0.8089425464262944  0.18589908235595237  1.0000
  N   N9        1.0  0.8155406623564687  0.20530672469984518  0.7165568438831188  1.0000
  N   N10       1.0  0.3155404061012845  0.7165565404750325  0.20530716010465982  1.0000
  N   N11       1.0  0.6988472660347754  0.8523881243853565  0.25277844790211657  1.0000
  N   N12       1.0  0.19884801808606067  0.2527789226305187  0.8523875529020658  1.0000
  N   N13       1.0  0.684780016420284  0.02716013740802479  0.07332113516470419  1.0000
  N   N14       1.0  0.18478032314004622  0.07332178637511787  0.02716022409830289  1.0000
  N   N15       1.0  0.6457754410670021  0.8692957802765235  0.9371829629603284  1.0000
  N   N16       1.0  0.1457757789431612  0.9371831037934085  0.869295673083812  1.0000
  N   N17       1.0  0.7779621502606346  0.8656426135765397  0.8473233211497515  1.0000
  N   N18       1.0  0.2779619678842168  0.847322902469308  0.8656442233362827  1.0000
  N   N19       1.0  0.7689702251284845  0.900741403519447  0.7245905048047377  1.0000
  N   N20       1.0  0.2689697161458256  0.7245894543999467  0.9007435059582464  1.0000
  N   N21       1.0  0.6345791476123426  0.9260886809175374  0.7309612653613442  1.0000
  N   N22       1.0  0.13457906510278417  0.7309611163680501  0.9260902735197547  1.0000
  N   N23       1.0  0.802819399075844  0.266268748718403  0.5957874491999107  1.0000
  N   N24       1.0  0.3028195517872805  0.5957867364650582  0.2662683891337068  1.0000
