data_image0
_chemical_formula_structural       K4H44C56O12
_chemical_formula_sum              "K4 H44 C56 O12"
_cell_length_a       8.997171536007308
_cell_length_b       10.26119557929243
_cell_length_c       14.21596291953147
_cell_angle_alpha    112.6619941613391
_cell_angle_beta     89.99992920384116
_cell_angle_gamma    89.99990828468603

_space_group_name_H-M_alt    "P 1"
_space_group_IT_number       1

loop_
  _space_group_symop_operation_xyz
  'x, y, z'

loop_
  _atom_site_type_symbol
  _atom_site_label
  _atom_site_symmetry_multiplicity
  _atom_site_fract_x
  _atom_site_fract_y
  _atom_site_fract_z
  _atom_site_occupancy
  K   K1        1.0  0.028391485482536907  0.8110717117064254  0.02369016477890538  1.0000
  K   K2        1.0  0.4716101270951327  0.3110705911758487  0.02368651647293521  1.0000
  K   K3        1.0  0.9716086656783318  0.18892632801284748  0.9763093754511869  1.0000
  K   K4        1.0  0.528391135526988  0.6889284820629412  0.9763111959335757  1.0000
  H   H1        1.0  0.19573231279377987  0.6257100610840354  0.8645605301895072  1.0000
  H   H2        1.0  0.30426577162432283  0.1257103890563727  0.8645609272499257  1.0000
  H   H3        1.0  0.8042656154450115  0.37428903469214  0.13543929873652158  1.0000
  H   H4        1.0  0.6957332680755786  0.8742886992073334  0.135438196169602  1.0000
  H   H5        1.0  0.3937160976311916  0.2612352573604966  0.7452847207933713  1.0000
  H   H6        1.0  0.10628419348788042  0.7612351190876866  0.7452844462163312  1.0000
  H   H7        1.0  0.6062840535259185  0.7387659505224065  0.25471568551996165  1.0000
  H   H8        1.0  0.8937148462114594  0.2387650177192882  0.2547142603918573  1.0000
  H   H9        1.0  0.5344049615447234  0.20875334785824148  0.5856430749786412  1.0000
  H   H10       1.0  0.9655944568176336  0.7087545596860066  0.585642885784054  1.0000
  H   H11       1.0  0.46559518961112906  0.791248916079205  0.41435762002910786  1.0000
  H   H12       1.0  0.034404582879197704  0.2912476892300546  0.4143563982129662  1.0000
  H   H13       1.0  0.4494305164710397  0.3034969614204924  0.4577115707257845  1.0000
  H   H14       1.0  0.05057025998693379  0.8034958777377454  0.457710378238353  1.0000
  H   H15       1.0  0.5505696346848057  0.6965053025169538  0.5422891242819643  1.0000
  H   H16       1.0  0.9494298911728267  0.1965042590680496  0.5422883283690751  1.0000
  H   H17       1.0  0.22211779438578116  0.4537670336265335  0.492523340974145  1.0000
  H   H18       1.0  0.27788263687001097  0.9537665314363009  0.49252283142638464  1.0000
  H   H19       1.0  0.7778823567688138  0.5462362863654562  0.5074776427280199  1.0000
  H   H20       1.0  0.7221164028261242  0.04623572499104261  0.5074771580763766  1.0000
  H   H21       1.0  0.0785213536314302  0.5030137645083671  0.6515317172546701  1.0000
  H   H22       1.0  0.4214773742142059  0.0030159409912897998  0.6515311201942922  1.0000
  H   H23       1.0  0.9214776860676326  0.49698429023465013  0.34846923398767155  1.0000
  H   H24       1.0  0.5785205540202514  0.9969873714917765  0.34846915800365247  1.0000
  H   H25       1.0  0.8583017331233194  0.5157920962937155  0.885254746912615  1.0000
  H   H26       1.0  0.641697454133997  0.0157927540115779  0.8852539555681034  1.0000
  H   H27       1.0  0.14169841803629885  0.48420699948010093  0.11474508201189336  1.0000
  H   H28       1.0  0.35830269702575634  0.9842073827942172  0.11474475103932479  1.0000
  H   H29       1.0  0.6253175585795319  0.37643949551505773  0.8556548058824092  1.0000
  H   H30       1.0  0.8746810218080086  0.8764419562012262  0.8556550298699932  1.0000
  H   H31       1.0  0.37468148112232313  0.6235585291828301  0.14434332333695468  1.0000
  H   H32       1.0  0.12531912934797876  0.12356134876819878  0.14434454282068288  1.0000
  H   H33       1.0  0.6273274209903974  0.1190088420577027  0.7487427761777068  1.0000
  H   H34       1.0  0.8726740662805312  0.6190102885050807  0.7487462417497281  1.0000
  H   H35       1.0  0.372672730171452  0.8809912722142458  0.25125381391249135  1.0000
  H   H36       1.0  0.127328307794059  0.38099199796386063  0.2512565697737372  1.0000
  H   H37       1.0  0.8654268801827955  0.003107587952491999  0.667501857067478  1.0000
  H   H38       1.0  0.6345727569476408  0.5031074422649696  0.6675064822944989  1.0000
  H   H39       1.0  0.13457104806018094  0.9968914627559823  0.33249373882407685  1.0000
  H   H40       1.0  0.365428505668902  0.4968916910640857  0.3324968741579681  1.0000
  H   H41       1.0  0.0953658267300241  0.14361314207983608  0.693139683871081  1.0000
  H   H42       1.0  0.404634783350005  0.6436134646910147  0.6931428169840784  1.0000
  H   H43       1.0  0.9046343244322445  0.8563848826168722  0.30685844534751533  1.0000
  H   H44       1.0  0.5953675907283513  0.3563856536142964  0.30685912845613217  1.0000
  C   C1        1.0  0.23602516339532545  0.39475365519935934  0.890299370646616  1.0000
  C   C2        1.0  0.2639701517109003  0.894759511324601  0.8902999068065468  1.0000
  C   C3        1.0  0.7639738763051298  0.6052443845210932  0.1097001695842366  1.0000
  C   C4        1.0  0.7360288879870468  0.10524064050493818  0.10970021081313057  1.0000
  C   C5        1.0  0.13739199638756364  0.4236885455105082  0.8088955306799263  1.0000
  C   C6        1.0  0.36260787066450473  0.923688919693106  0.8088951938114022  1.0000
  C   C7        1.0  0.8626081547720548  0.5763105502633081  0.19110429824458205  1.0000
  C   C8        1.0  0.6373911690347002  0.0763101760818898  0.19110463511385936  1.0000
  C   C9        1.0  0.22608666906452163  0.3861414356449941  0.7098119100335081  1.0000
  C   C10       1.0  0.2739134612714339  0.8861409493833605  0.7098121114263021  1.0000
  C   C11       1.0  0.7739145935542594  0.6138587161821859  0.29018820758464864  1.0000
  C   C12       1.0  0.7260866898881846  0.1138581463904558  0.290187717498199  1.0000
  C   C13       1.0  0.3543759722137807  0.3028537487450933  0.6898410726937171  1.0000
  C   C14       1.0  0.1456243507758472  0.8028535270416339  0.6898407442479735  1.0000
  C   C15       1.0  0.6456252904037356  0.6971474591366302  0.31015933361886266  1.0000
  C   C16       1.0  0.8543746889228033  0.19714661727662272  0.3101586678659628  1.0000
  C   C17       1.0  0.43363655397669737  0.2723552683022347  0.5993587010062882  1.0000
  C   C18       1.0  0.06636511391568692  0.7723562632325738  0.5993580642803096  1.0000
  C   C19       1.0  0.5663647086395686  0.727646995634032  0.4006419940007007  1.0000
  C   C20       1.0  0.9336350372428158  0.22764492962776461  0.4006409310215416  1.0000
  C   C21       1.0  0.3865384398217914  0.32578867157987906  0.5277380629624558  1.0000
  C   C22       1.0  0.1134632698463705  0.8257874695402734  0.5277381953673626  1.0000
  C   C23       1.0  0.6134628227939134  0.674214640899649  0.47226221523320067  1.0000
  C   C24       1.0  0.8865368813126865  0.17421267477680397  0.4722612167458137  1.0000
  C   C25       1.0  0.2584002957206408  0.4092531112948805  0.5471016016732547  1.0000
  C   C26       1.0  0.24160011069719908  0.9092526860508201  0.5471011418073672  1.0000
  C   C27       1.0  0.7416009668963213  0.5907491451301112  0.452898387827986  1.0000
  C   C28       1.0  0.7584000404606002  0.09074851432080067  0.4528985590002178  1.0000
  C   C29       1.0  0.17814273655721283  0.43775644430544247  0.6368162678674523  1.0000
  C   C30       1.0  0.32185633013965304  0.937755841345229  0.636814992599568  1.0000
  C   C31       1.0  0.8218551916751623  0.5622468907114707  0.3631861268477221  1.0000
  C   C32       1.0  0.6781427095577329  0.0622453590275711  0.3631847082087845  1.0000
  C   C33       1.0  0.9926808864161247  0.3405082712987379  0.7899864379163616  1.0000
  C   C34       1.0  0.5073190002902878  0.8405093989605701  0.7899865875471119  1.0000
  C   C35       1.0  0.007319264744751303  0.659489768420528  0.21001310231373077  1.0000
  C   C36       1.0  0.4926811508686342  0.1594897043245282  0.21001394688313715  1.0000
  C   C37       1.0  0.8594911467976801  0.40407380192471004  0.8361824838797886  1.0000
  C   C38       1.0  0.6405085322453276  0.9040767592335753  0.8361830285219723  1.0000
  C   C39       1.0  0.14050900436444644  0.5959231817400192  0.16381676765588785  1.0000
  C   C40       1.0  0.3594916189117825  0.09592444864932759  0.16381737779136069  1.0000
  C   C41       1.0  0.7284922882083152  0.3248340346349892  0.8201666103746985  1.0000
  C   C42       1.0  0.7715086797410323  0.8248356655832721  0.8201673924497822  1.0000
  C   C43       1.0  0.2715089744143668  0.6751639900605396  0.17983151884314444  1.0000
  C   C44       1.0  0.22849147141607776  0.17516554229963074  0.17983301386355777  1.0000
  C   C45       1.0  0.7291593568562007  0.18064277925217448  0.7594160427104768  1.0000
  C   C46       1.0  0.7708397729704828  0.6806433780963984  0.759418653523056  1.0000
  C   C47       1.0  0.2708396828450931  0.8193562939889741  0.24058166969755482  1.0000
  C   C48       1.0  0.22916148964550592  0.3193568037759107  0.2405842861180787  1.0000
  C   C49       1.0  0.8623190871936688  0.11586733505119888  0.714205401188451  1.0000
  C   C50       1.0  0.6376813620552826  0.6158671677493855  0.7142086111479031  1.0000
  C   C51       1.0  0.13767995250832143  0.8841317306786678  0.2857916057138396  1.0000
  C   C52       1.0  0.3623199005606992  0.38413301412292367  0.2857943284932317  1.0000
  C   C53       1.0  0.9924710140641082  0.19539220744415078  0.7288128195439325  1.0000
  C   C54       1.0  0.5075303714343279  0.6953923011386108  0.728814796709102  1.0000
  C   C55       1.0  0.007529137096206301  0.8046068808183832  0.27118630387482767  1.0000
  C   C56       1.0  0.4924720026440213  0.30460681716670013  0.27118714873111566  1.0000
  O   O1        1.0  0.10136605431661391  0.5715352779009918  0.849125397575605  1.0000
  O   O2        1.0  0.39863216020417264  0.071535390723291  0.8491242544081385  1.0000
  O   O3        1.0  0.8986318739214811  0.4284638253864656  0.15087513685617174  1.0000
  O   O4        1.0  0.6013679909548842  0.9284647535937862  0.15087515770503754  1.0000
  O   O5        1.0  0.20327494172875055  0.2915137125968598  0.9150803336974673  1.0000
  O   O6        1.0  0.29672496101232343  0.7915100097938462  0.9150796377709296  1.0000
  O   O7        1.0  0.7967240979679389  0.7084874952872225  0.08492007261663292  1.0000
  O   O8        1.0  0.7032740786861782  0.20848909349243167  0.08492089666007978  1.0000
  O   O9        1.0  0.3437133399866781  0.4779475046035557  0.9258097532013068  1.0000
  O   O10       1.0  0.15629064389531072  0.9779441071423634  0.9258099550808934  1.0000
  O   O11       1.0  0.656287922632103  0.5220526472236315  0.07419036441685017  1.0000
  O   O12       1.0  0.8437095072623537  0.022056052197285698  0.07419086804377169  1.0000
