data_image0
_chemical_formula_structural       Mg4H72C32O8
_chemical_formula_sum              "Mg4 H72 C32 O8"
_cell_length_a       5.535933639405008
_cell_length_b       12.467207294019616
_cell_length_c       13.798941015306317
_cell_angle_alpha    90.00270663893221
_cell_angle_beta     90.00218278874954
_cell_angle_gamma    89.99997001157068

_space_group_name_H-M_alt    "P 1"
_space_group_IT_number       1

loop_
  _space_group_symop_operation_xyz
  'x, y, z'

loop_
  _atom_site_type_symbol
  _atom_site_label
  _atom_site_symmetry_multiplicity
  _atom_site_fract_x
  _atom_site_fract_y
  _atom_site_fract_z
  _atom_site_occupancy
  Mg  Mg1       1.0  0.4136960664320809  0.1577029323982089  0.2499916091930031  1.0000
  Mg  Mg2       1.0  0.08631632254683548  0.6577037947166247  0.2499933585661011  1.0000
  Mg  Mg3       1.0  0.9136901102422497  0.34228995716509286  0.7499989885803443  1.0000
  Mg  Mg4       1.0  0.5863067542666229  0.8422964345154823  0.750011608446037  1.0000
  H   H1        1.0  0.601943232717957  0.2562742908647451  0.4099117701667792  1.0000
  H   H2        1.0  0.8980734921002095  0.7562631757327406  0.4099157198661344  1.0000
  H   H3        1.0  0.6018968941774999  0.256262044792102  0.09006910945858237  1.0000
  H   H4        1.0  0.10192328191863712  0.2437436244537423  0.9099265346744614  1.0000
  H   H5        1.0  0.39805958788535617  0.7437250760079976  0.5900899980856664  1.0000
  H   H6        1.0  0.10190765106916189  0.24373218019989198  0.5900722790333713  1.0000
  H   H7        1.0  0.3980914754391733  0.7437541663320388  0.9099355578296409  1.0000
  H   H8        1.0  0.8980903769021534  0.7562517318716572  0.0900737841635788  1.0000
  H   H9        1.0  0.41816028475103195  0.1525984239838749  0.4514207555440492  1.0000
  H   H10       1.0  0.08184618577036668  0.6525832321323508  0.4514289849255347  1.0000
  H   H11       1.0  0.41813919049830145  0.15257661291426666  0.048549259474029285  1.0000
  H   H12       1.0  0.9181560520593947  0.3474307266166861  0.9514363075274017  1.0000
  H   H13       1.0  0.5818443425380622  0.8473985367014476  0.5485853608294347  1.0000
  H   H14       1.0  0.9181367639717946  0.3474177386349239  0.5485626375590442  1.0000
  H   H15       1.0  0.581860017357421  0.8474387961000286  0.9514546831560151  1.0000
  H   H16       1.0  0.0818539936282932  0.6525694421859355  0.048558938535030884  1.0000
  H   H17       1.0  0.7345863512608019  0.0161687829625592  0.4172654937968189  1.0000
  H   H18       1.0  0.7654460887256747  0.5161573031369855  0.4172537050821175  1.0000
  H   H19       1.0  0.7345607227696007  0.016157726156393395  0.08273692362286769  1.0000
  H   H20       1.0  0.23456790824268836  0.48384590109233017  0.9172592404958306  1.0000
  H   H21       1.0  0.2654291140916172  0.9838313860727581  0.582737723917276  1.0000
  H   H22       1.0  0.23454950576360997  0.48383885504261304  0.5827386420606755  1.0000
  H   H23       1.0  0.2654330659806448  0.98385928707944  0.9172677437065172  1.0000
  H   H24       1.0  0.7654258795673384  0.516151861170428  0.08272875851019987  1.0000
  H   H25       1.0  0.8868510209559373  0.12146291229917239  0.477247513920588  1.0000
  H   H26       1.0  0.6131550840174426  0.6214510140567525  0.47722777410709927  1.0000
  H   H27       1.0  0.8868608514642419  0.121446059842711  0.022767709912571394  1.0000
  H   H28       1.0  0.38686861354116786  0.37855878803009085  0.977237854919103  1.0000
  H   H29       1.0  0.11316986354964338  0.8785356525350706  0.5227557037874673  1.0000
  H   H30       1.0  0.38684592961847397  0.3785443420260321  0.5227645730453856  1.0000
  H   H31       1.0  0.11313113075636488  0.8785717554334694  0.9772347833441867  1.0000
  H   H32       1.0  0.6131287876639816  0.6214429850455829  0.022760289888658695  1.0000
  H   H33       1.0  0.9089998449874624  0.10824950649586638  0.35050574860832723  1.0000
  H   H34       1.0  0.5910421780668499  0.6082343390538015  0.3504858010727431  1.0000
  H   H35       1.0  0.9089378452103742  0.10824543132909528  0.1495142374546177  1.0000
  H   H36       1.0  0.40895580541790366  0.39176027935807406  0.8504937086742002  1.0000
  H   H37       1.0  0.0910065884105578  0.8917514646108201  0.6494967443858355  1.0000
  H   H38       1.0  0.408951610320038  0.3917570066001802  0.6495101694336467  1.0000
  H   H39       1.0  0.09105774968797677  0.8917707797025828  0.8504868064010365  1.0000
  H   H40       1.0  0.5910596594967643  0.6082350768469453  0.14950226201256095  1.0000
  H   H41       1.0  0.4352193294496586  0.4095566091219568  0.3397680319876954  1.0000
  H   H42       1.0  0.06481161289894999  0.9095670375416135  0.3397674055988631  1.0000
  H   H43       1.0  0.43518764376436536  0.4095515360362967  0.16023179059444453  1.0000
  H   H44       1.0  0.9352409562250796  0.09044462099080158  0.8397568351006012  1.0000
  H   H45       1.0  0.5647961354087981  0.5904339344165805  0.6602264892180756  1.0000
  H   H46       1.0  0.9351839814838739  0.0904363395557866  0.6602242169922402  1.0000
  H   H47       1.0  0.5647555659187943  0.5904357989859932  0.8397627302094006  1.0000
  H   H48       1.0  0.06480160285485678  0.9095635683051668  0.16021739516619243  1.0000
  H   H49       1.0  0.20344229872105757  0.4863401668626039  0.39795697398062646  1.0000
  H   H50       1.0  0.29659324491760225  0.986344012436703  0.3979411296517055  1.0000
  H   H51       1.0  0.20337585873880923  0.48633902443864235  0.10204948348297897  1.0000
  H   H52       1.0  0.7034543382209577  0.0136540901283979  0.8979543597769034  1.0000
  H   H53       1.0  0.7965930369659019  0.5136527833026677  0.6020476930716823  1.0000
  H   H54       1.0  0.7034023490058913  0.013651343392915297  0.6020425211558303  1.0000
  H   H55       1.0  0.7965655453123616  0.5136443003670622  0.8979559076331254  1.0000
  H   H56       1.0  0.29658460969037737  0.9863460787753411  0.10204306050101046  1.0000
  H   H57       1.0  0.1183294449941883  0.2852401133111186  0.10104143970247037  1.0000
  H   H58       1.0  0.38165584159698074  0.7852465989127212  0.10102711851239828  1.0000
  H   H59       1.0  0.11838156653766417  0.2852453231837798  0.39896430226104923  1.0000
  H   H60       1.0  0.6183327907347332  0.2147467557280365  0.6010409169443063  1.0000
  H   H61       1.0  0.8816065402853608  0.7147448158594685  0.8989697489660314  1.0000
  H   H62       1.0  0.6183939438575974  0.21475036126125246  0.8989587066607353  1.0000
  H   H63       1.0  0.8816555765047693  0.714750835831005  0.6010555834218393  1.0000
  H   H64       1.0  0.3816591914433046  0.7852469963181291  0.3989579523739834  1.0000
  H   H65       1.0  0.8901395567404787  0.35940390452612553  0.16390641169767406  1.0000
  H   H66       1.0  0.6098232377561956  0.8594128523123884  0.16390113509882542  1.0000
  H   H67       1.0  0.8901779849872752  0.35941117658166627  0.3361044088789739  1.0000
  H   H68       1.0  0.39015018644825966  0.14058565935124528  0.6639026361405697  1.0000
  H   H69       1.0  0.10983616994455046  0.6405874420040475  0.8361214452288974  1.0000
  H   H70       1.0  0.3901813895956322  0.14058811893516318  0.8361064307399173  1.0000
  H   H71       1.0  0.10984109449979226  0.6405841804064423  0.6639191001698916  1.0000
  H   H72       1.0  0.6098472141368845  0.8594161134582238  0.3360860876543653  1.0000
  C   C1        1.0  0.5551794002326175  0.17147375001805903  0.3953761634079313  1.0000
  C   C2        1.0  0.9448602747649132  0.6714603568168798  0.3953725803376854  1.0000
  C   C3        1.0  0.5551295558856991  0.17146392965344154  0.10460674826656197  1.0000
  C   C4        1.0  0.05513277838512209  0.3285335897639428  0.8953775863720136  1.0000
  C   C5        1.0  0.44483245227087304  0.8285256168670827  0.6046256048868912  1.0000
  C   C6        1.0  0.05511544957009559  0.3285325929184069  0.6046197666489518  1.0000
  C   C7        1.0  0.4448624265929624  0.8285514794123616  0.8953993684094711  1.0000
  C   C8        1.0  0.9448718482061835  0.671455349551202  0.10461693475144065  1.0000
  C   C9        1.0  0.0821681193941046  0.3362501057950239  0.3359958078865119  1.0000
  C   C10       1.0  0.417854487592848  0.8362574929309899  0.335984000277456  1.0000
  C   C11       1.0  0.0821459627278927  0.3362492566980606  0.16401376950890514  1.0000
  C   C12       1.0  0.5821993904584558  0.16374994148427643  0.8359809646041608  1.0000
  C   C13       1.0  0.9178292832744858  0.6637476573736975  0.6640240776413932  1.0000
  C   C14       1.0  0.5821519452694731  0.16375069690921146  0.6640112459253655  1.0000
  C   C15       1.0  0.9178225375719931  0.6637428915578453  0.836001042920216  1.0000
  C   C16       1.0  0.417817880159454  0.8362582481455546  0.1640063100232823  1.0000
  C   C17       1.0  0.24403888188882655  0.43378301206475095  0.33653257938855313  1.0000
  C   C18       1.0  0.25597859447589844  0.9337955693028805  0.3365178036071369  1.0000
  C   C19       1.0  0.2440148479231325  0.43378213251561687  0.16347292207458958  1.0000
  C   C20       1.0  0.7440717416936237  0.06621109343238632  0.8365240554763883  1.0000
  C   C21       1.0  0.7559801964209637  0.5662163549531767  0.6634735370999321  1.0000
  C   C22       1.0  0.7440151932492396  0.06621262031518428  0.6634701956034234  1.0000
  C   C23       1.0  0.7559337817736561  0.5662092134244573  0.8365353680059255  1.0000
  C   C24       1.0  0.2559708186393834  0.9337954921874851  0.1634690167845818  1.0000
  C   C25       1.0  0.7810309134671768  0.1019962440024926  0.4114546303016267  1.0000
  C   C26       1.0  0.7190011702138007  0.6019862407630683  0.41144023173647765  1.0000
  C   C27       1.0  0.7810024370962264  0.1019879219185214  0.0885486912039397  1.0000
  C   C28       1.0  0.2810120618134916  0.39801583292712195  0.911449358086436  1.0000
  C   C29       1.0  0.21897551981586352  0.8980071333760052  0.5885464133531426  1.0000
  C   C30       1.0  0.28099442422125515  0.39801071950030575  0.5885513907287601  1.0000
  C   C31       1.0  0.21898773877897773  0.8980314975841565  0.9114545267691054  1.0000
  C   C32       1.0  0.7190034029796661  0.6019827316539548  0.08854516327666317  1.0000
  O   O1        1.0  0.20693323614970177  0.49741305082211795  0.25000527420538526  1.0000
  O   O2        1.0  0.29306639658224026  0.9974337312964607  0.2500017170680876  1.0000
  O   O3        1.0  0.706934617404556  0.002571250221670601  0.7499971525128472  1.0000
  O   O4        1.0  0.7930695848547415  0.5025839099016808  0.7500022915462095  1.0000
  O   O5        1.0  0.12687088618116596  0.2723128092209208  0.24999758445850512  1.0000
  O   O6        1.0  0.37311254103536834  0.7723184695227656  0.2499926041104174  1.0000
  O   O7        1.0  0.6269011177155758  0.22769132469968406  0.7500084397041176  1.0000
  O   O8        1.0  0.8730885823897198  0.7276817454172575  0.7500201267486089  1.0000
