data_image0
_chemical_formula_structural       Cd2Mo8H52C36N8O30
_chemical_formula_sum              "Cd2 Mo8 H52 C36 N8 O30"
_cell_length_a       11.835510340892007
_cell_length_b       13.306225152211098
_cell_length_c       13.299447817549268
_cell_angle_alpha    75.79253191857954
_cell_angle_beta     65.03691881038068
_cell_angle_gamma    67.09609884982439

_space_group_name_H-M_alt    "P 1"
_space_group_IT_number       1

loop_
  _space_group_symop_operation_xyz
  'x, y, z'

loop_
  _atom_site_type_symbol
  _atom_site_label
  _atom_site_symmetry_multiplicity
  _atom_site_fract_x
  _atom_site_fract_y
  _atom_site_fract_z
  _atom_site_occupancy
  Cd  Cd1       1.0  0.4999985917672732  1.973370132200449e-06  0.49999872697174635  1.0000
  Cd  Cd2       1.0  0.49999916584587123  0.5000005580268905  8.177446985669658e-07  1.0000
  Mo  Mo1       1.0  0.12389299610720174  0.10257092853634478  0.6201403660796317  1.0000
  Mo  Mo2       1.0  0.8761052142531296  0.8974288127264384  0.3798610728377627  1.0000
  Mo  Mo3       1.0  0.2730155404549279  0.0692626258197251  0.34137903274298514  1.0000
  Mo  Mo4       1.0  0.7269867154900141  0.9307362744221592  0.6586173306310243  1.0000
  Mo  Mo5       1.0  0.8515593629650055  0.0334337592069645  0.7790098813649209  1.0000
  Mo  Mo6       1.0  0.14843883959694196  0.9665660038090207  0.22098704371834543  1.0000
  Mo  Mo7       1.0  0.0979954246217858  0.8563133907351103  0.5320313269488965  1.0000
  Mo  Mo8       1.0  0.9020111989106355  0.143683812564845  0.4679675658323673  1.0000
  H   H1        1.0  0.3044315951091363  0.21383887586834047  0.6095225092859664  1.0000
  H   H2        1.0  0.6955585263360435  0.7861650146902476  0.3904847245313263  1.0000
  H   H3        1.0  0.28897122341398773  0.4081514498010535  0.6002054709249264  1.0000
  H   H4        1.0  0.7110294865487886  0.5918490778897123  0.39979559147288074  1.0000
  H   H5        1.0  0.6426525124390849  0.351236050382532  0.30470832140895954  1.0000
  H   H6        1.0  0.35734382863648056  0.6487661778757001  0.6952894592759196  1.0000
  H   H7        1.0  0.64253245411701  0.15932607696119314  0.3249730614709422  1.0000
  H   H8        1.0  0.3574582700879104  0.8406737432673663  0.6750311692638322  1.0000
  H   H9        1.0  0.5317647526028041  0.5339601401642682  0.37420960564323763  1.0000
  H   H10       1.0  0.46823283099366353  0.4660387913035465  0.6257922641450763  1.0000
  H   H11       1.0  0.3711590851490385  0.5661370979193521  0.47894811346228766  1.0000
  H   H12       1.0  0.6288419412723059  0.4338650628575991  0.5210516838651672  1.0000
  H   H13       1.0  0.37140935149534476  0.3347046137357593  0.17966779805425404  1.0000
  H   H14       1.0  0.6285991880303713  0.6652998664442648  0.8203391450770139  1.0000
  H   H15       1.0  0.21276460197636746  0.32324583162364456  0.3742969913330187  1.0000
  H   H16       1.0  0.7872454747787786  0.6767545719811566  0.6257058474328759  1.0000
  H   H17       1.0  0.15332072891251866  0.6640691274120911  0.38064828830981423  1.0000
  H   H18       1.0  0.8466731352650002  0.33593719816867906  0.619351688800549  1.0000
  H   H19       1.0  0.3141328176811343  0.6620631094554951  0.18654743006958088  1.0000
  H   H20       1.0  0.6858666575591243  0.337940693272479  0.8134540570589126  1.0000
  H   H21       1.0  0.09068012811988518  0.4126804510689226  0.5565477442085722  1.0000
  H   H22       1.0  0.9093155660868745  0.5873160763927457  0.44345015205269805  1.0000
  H   H23       1.0  0.0496472649115988  0.5570898084396773  0.5527153633628644  1.0000
  H   H24       1.0  0.9503409684436123  0.44291167448722746  0.44728864923307304  1.0000
  H   H25       1.0  0.5923473207931098  0.6013541861124948  0.16210124339801985  1.0000
  H   H26       1.0  0.4076580566645945  0.3986438503494015  0.837897164160978  1.0000
  H   H27       1.0  0.620926130582397  0.6963557804092632  0.25286993739095465  1.0000
  H   H28       1.0  0.3790748831870161  0.3036439421179579  0.7471281976778528  1.0000
  H   H29       1.0  0.5202639476847323  0.83705544595815  0.25266839754639414  1.0000
  H   H30       1.0  0.47973768409580936  0.1629426372377054  0.7473299013099111  1.0000
  H   H31       1.0  0.6924890726387289  0.7996816713775913  0.16986602018370436  1.0000
  H   H32       1.0  0.30751349621096574  0.20031639832200204  0.8301326820011212  1.0000
  H   H33       1.0  0.5331757681928763  0.8400148081204436  0.966605042119696  1.0000
  H   H34       1.0  0.46682337663715145  0.15998492689715252  0.03339529551483624  1.0000
  H   H35       1.0  0.639733134332424  0.8867460150910846  0.9926611269696297  1.0000
  H   H36       1.0  0.3602635147943474  0.11325292262192477  0.0073418441015462976  1.0000
  H   H37       1.0  0.4670204895520128  0.9250457856250448  0.07759056651342187  1.0000
  H   H38       1.0  0.5329780350127962  0.07495312146991748  0.9224139635204693  1.0000
  H   H39       1.0  0.41819516411884194  0.7544464289936599  0.9006942436271004  1.0000
  H   H40       1.0  0.5818030488409464  0.24555330501805628  0.09930869990166263  1.0000
  H   H41       1.0  0.17775585718317896  0.9742021645069983  0.9707233078875462  1.0000
  H   H42       1.0  0.8222460962548509  0.025797537272900697  0.029276735121158137  1.0000
  H   H43       1.0  0.1889965327314728  0.9752101188700237  0.8316742009722305  1.0000
  H   H44       1.0  0.8110032336634985  0.024790440444675692  0.1683226965686303  1.0000
  H   H45       1.0  0.33477386927413744  0.9263010286800011  0.8632410600827428  1.0000
  H   H46       1.0  0.6652271383419971  0.07369623746981802  0.13675917425586454  1.0000
  H   H47       1.0  0.061314198494308456  0.8314531370946979  0.8845527706102133  1.0000
  H   H48       1.0  0.9386858834048722  0.1685465844266432  0.11544797035283248  1.0000
  H   H49       1.0  0.023321189454684112  0.8608869314737718  0.02116948814885695  1.0000
  H   H50       1.0  0.9766776476695043  0.1391136195839735  0.9788315198976111  1.0000
  H   H51       1.0  0.10295522904418428  0.7221493208398327  0.9862547701681665  1.0000
  H   H52       1.0  0.897041736541155  0.2778512499593617  0.013746935832649876  1.0000
  C   C1        1.0  0.3765348065559665  0.2480685638487969  0.5429329484027932  1.0000
  C   C2        1.0  0.6234574788825141  0.7519320599295369  0.4570697501781923  1.0000
  C   C3        1.0  0.3693583417430163  0.35550664747506733  0.5375170337220753  1.0000
  C   C4        1.0  0.6306395609114759  0.6444939098278653  0.4624850756072547  1.0000
  C   C5        1.0  0.4666516662760359  0.3949779356044303  0.45275950593930514  1.0000
  C   C6        1.0  0.5333431200646218  0.6050234709763488  0.5472435684277954  1.0000
  C   C7        1.0  0.5647729904808685  0.32465164563635796  0.3728230270160466  1.0000
  C   C8        1.0  0.43522055723807546  0.6753530468582339  0.6271782151646761  1.0000
  C   C9        1.0  0.5653480379629912  0.21809237511652668  0.3830296162195951  1.0000
  C   C10       1.0  0.43464582136097374  0.7819114904613115  0.6169732124662558  1.0000
  C   C11       1.0  0.47041708463248005  0.5049009491946207  0.45621252891872655  1.0000
  C   C12       1.0  0.5295792554887272  0.4950988081840749  0.543790360258697  1.0000
  C   C13       1.0  0.3238445759347357  0.40489440259198517  0.2280755378146395  1.0000
  C   C14       1.0  0.6761630125701642  0.595107656460101  0.7719285874237871  1.0000
  C   C15       1.0  0.23412668780394344  0.39953151604460396  0.33615452584210476  1.0000
  C   C16       1.0  0.7658796546262395  0.6004713761694231  0.6638491141740561  1.0000
  C   C17       1.0  0.17078783508554105  0.4928134751117311  0.39436907291986506  1.0000
  C   C18       1.0  0.8292122542666504  0.5071886991614745  0.6056303210790689  1.0000
  C   C19       1.0  0.2013537352951005  0.5883857060185986  0.34035851884660673  1.0000
  C   C20       1.0  0.798641366204393  0.4116173372739027  0.6596425381444392  1.0000
  C   C21       1.0  0.292140033724941  0.587621741710798  0.2318035556812177  1.0000
  C   C22       1.0  0.7078613156536235  0.41238203402465956  0.7681987381043103  1.0000
  C   C23       1.0  0.06488598305566748  0.4915371892766415  0.5069440030748639  1.0000
  C   C24       1.0  0.9351087880335952  0.5084617863054817  0.49305590442222097  1.0000
  C   C25       1.0  0.5717617551030045  0.6679462573975669  0.09709414025820712  1.0000
  C   C26       1.0  0.4282439287608  0.3320509666497172  0.9029028445831601  1.0000
  C   C27       1.0  0.6042386759032182  0.7746420593458512  0.2011884024457515  1.0000
  C   C28       1.0  0.39576234046565867  0.22535765593030282  0.7988112372344318  1.0000
  C   C29       1.0  0.5524621776729007  0.8598252463735533  0.03158672911929033  1.0000
  C   C30       1.0  0.4475360326874238  0.1401744948892301  0.9684147097981041  1.0000
  C   C31       1.0  0.32928415625985286  0.7330800914036142  0.9212162893363924  1.0000
  C   C32       1.0  0.6707149872704433  0.2669196472395114  0.07878329599245153  1.0000
  C   C33       1.0  0.2312522338852929  0.9303569292974672  0.8954450234048466  1.0000
  C   C34       1.0  0.7687481583191841  0.06964196893265749  0.10455655175763211  1.0000
  C   C35       1.0  0.09514462294920636  0.8077402758003274  0.9547927079907553  1.0000
  C   C36       1.0  0.9048539051694249  0.19226109492310428  0.045208218161960356  1.0000
  N   N1        1.0  0.47386780929982564  0.1801091436487923  0.46748887033237446  1.0000
  N   N2        1.0  0.5261254093086195  0.8198914775098913  0.5325119746600677  1.0000
  N   N3        1.0  0.35290405232348127  0.4973715762191945  0.17665922109547702  1.0000
  N   N4        1.0  0.6470972870026162  0.5026297540154728  0.8233429150427796  1.0000
  N   N5        1.0  0.5770592138624268  0.7626662756098951  0.10875140096469245  1.0000
  N   N6        1.0  0.4229414873476145  0.23733180295453596  0.8912502560915456  1.0000
  N   N7        1.0  0.22356625143291353  0.8198746700334354  0.9207358523635919  1.0000
  N   N8        1.0  0.7764319602271427  0.18012506760381797  0.07926633885949036  1.0000
  O   O1        1.0  0.42421375737356465  0.010872779734484103  0.3588809384733268  1.0000
  O   O2        1.0  0.575787551449757  0.9891236885028574  0.6411148639249051  1.0000
  O   O3        1.0  0.2811769592498621  0.040246335130746  0.6266135727956694  1.0000
  O   O4        1.0  0.7188203013893784  0.959750981378562  0.37338580053456405  1.0000
  O   O5        1.0  0.29692281886954675  0.16877172319398429  0.2336535480684319  1.0000
  O   O6        1.0  0.7030806831501124  0.831226343885959  0.7663433005278506  1.0000
  O   O7        1.0  0.1729648824431536  0.15613748411524142  0.4652780785599192  1.0000
  O   O8        1.0  0.8270370683954127  0.8438622249157249  0.5347204598374021  1.0000
  O   O9        1.0  0.06453990694674162  0.22166856464115628  0.6796982297728391  1.0000
  O   O10       1.0  0.9354629770617962  0.7783311417701599  0.3202984550359391  1.0000
  O   O11       1.0  0.1867467374819257  0.9464448653761791  0.5116200367941559  1.0000
  O   O12       1.0  0.8132611191279152  0.05355154101717828  0.4883718181524872  1.0000
  O   O13       1.0  0.036942400903925  0.010083422296560203  0.7340236571705532  1.0000
  O   O14       1.0  0.9630586041127458  0.9899138511043333  0.26597507255667824  1.0000
  O   O15       1.0  0.7799498170086989  0.1529324939558094  0.8408735604440242  1.0000
  O   O16       1.0  0.22005244119033326  0.8470688735400812  0.15911844674312198  1.0000
  O   O17       1.0  0.8328891023483466  0.9331564936274079  0.8878662411827705  1.0000
  O   O18       1.0  0.1671091141652568  0.06684570401277769  0.11213309846482394  1.0000
  O   O19       1.0  0.28192952655992093  0.9538568299629588  0.27429083173537805  1.0000
  O   O20       1.0  0.718073044543864  0.04614370699064099  0.725703514262584  1.0000
  O   O21       1.0  0.9307861907462468  0.1338023951176197  0.5946298027217267  1.0000
  O   O22       1.0  0.06922291843696379  0.8661931599861177  0.4053662989756218  1.0000
  O   O23       1.0  0.18723773583325715  0.7230624420322298  0.5622153290116999  1.0000
  O   O24       1.0  0.8127676442239108  0.2769355871785919  0.43778458315866686  1.0000
  O   O25       1.0  0.058657549027195395  0.10118226056103198  0.3541349126490303  1.0000
  O   O26       1.0  0.941344400511653  0.8988174520954644  0.64586287344261  1.0000
  O   O27       1.0  0.5462644289839461  0.652674095021524  0.02078696652415604  1.0000
  O   O28       1.0  0.45374499535810736  0.34732309679393575  0.9792071177971452  1.0000
  O   O29       1.0  0.3305734685218837  0.6352588651143661  0.9431026428461637  1.0000
  O   O30       1.0  0.6694275426480729  0.36474086466392913  0.05689398761126796  1.0000
