data_image0
_chemical_formula_structural       Er4Cu4H60C64N8O52
_chemical_formula_sum              "Er4 Cu4 H60 C64 N8 O52"
_cell_length_a       10.571163711837043
_cell_length_b       13.968119595037432
_cell_length_c       19.161349218157252
_cell_angle_alpha    90.00017384250805
_cell_angle_beta     99.87426644500114
_cell_angle_gamma    89.99976977371564

_space_group_name_H-M_alt    "P 1"
_space_group_IT_number       1

loop_
  _space_group_symop_operation_xyz
  'x, y, z'

loop_
  _atom_site_type_symbol
  _atom_site_label
  _atom_site_symmetry_multiplicity
  _atom_site_fract_x
  _atom_site_fract_y
  _atom_site_fract_z
  _atom_site_occupancy
  Er  Er1       1.0  0.15465848903694734  0.06568048251862989  0.5563761286117597  1.0000
  Er  Er2       1.0  0.8453106281671837  0.5656659199806952  0.9436176412216141  1.0000
  Er  Er3       1.0  0.8454002281125385  0.9343322560380898  0.4436220615747644  1.0000
  Er  Er4       1.0  0.1545906182286529  0.43431889807430923  0.056370357018913395  1.0000
  Cu  Cu1       1.0  0.7551582638909624  0.06569935791587507  0.7827766566864512  1.0000
  Cu  Cu2       1.0  0.24485598045995266  0.5656950108737816  0.7172119860641928  1.0000
  Cu  Cu3       1.0  0.24486588692235503  0.9343055056180631  0.21722139654546171  1.0000
  Cu  Cu4       1.0  0.7551585678279197  0.4343005457588304  0.28278202793447355  1.0000
  H   H1        1.0  0.766505773918155  0.2550613830817099  0.8398651409082021  1.0000
  H   H2        1.0  0.12284907036004003  0.2529408399083408  0.7072436177293683  1.0000
  H   H3        1.0  0.9856682898396302  0.11124113635089118  0.7128498246397684  1.0000
  H   H4        1.0  0.2184619854160275  0.3963535327667672  0.6281748435285905  1.0000
  H   H5        1.0  0.622454735475273  0.34739963519088224  0.7933446015346918  1.0000
  H   H6        1.0  0.741769424753521  0.09934848183899453  0.9445295710557247  1.0000
  H   H7        1.0  0.8876306427357579  0.1049059125139351  0.9443708080114277  1.0000
  H   H8        1.0  0.5037214302726698  0.5003595468715147  0.7859209750000248  1.0000
  H   H9        1.0  0.44272848626074085  0.071302904020186  0.585824394690917  1.0000
  H   H10       1.0  0.4067893727606205  0.0640312297661865  0.5035869027844911  1.0000
  H   H11       1.0  0.1727196978125463  0.10215962032446407  0.3962539162717889  1.0000
  H   H12       1.0  0.2026150653932676  0.18905327786089998  0.45284040599634073  1.0000
  H   H13       1.0  0.7170866491126375  0.18248975268060263  0.48613563748384075  1.0000
  H   H14       1.0  0.7786824579819228  0.2624189637518555  0.5585937528071342  1.0000
  H   H15       1.0  0.7200547299093857  0.14647005239975638  0.5750336852613955  1.0000
  H   H16       1.0  0.23350374256528994  0.7550718677916847  0.6601276489477783  1.0000
  H   H17       1.0  0.877163338539944  0.7529269835840536  0.7927588347958974  1.0000
  H   H18       1.0  0.014343819884715003  0.611232779065233  0.7871350638689523  1.0000
  H   H19       1.0  0.781553590899499  0.8963445954466351  0.8718235288830131  1.0000
  H   H20       1.0  0.37755242950185425  0.8474113013780382  0.7066575642326853  1.0000
  H   H21       1.0  0.2582542652763565  0.5993498639576204  0.5554678675115383  1.0000
  H   H22       1.0  0.11239206074272096  0.6049048810905331  0.5556249839208931  1.0000
  H   H23       1.0  0.49629312326613473  0.00036870131599899995  0.7140821651591198  1.0000
  H   H24       1.0  0.5572271606426115  0.5712905384978698  0.9141618513618042  1.0000
  H   H25       1.0  0.5931855139540333  0.5640148000735364  0.9964105402083235  1.0000
  H   H26       1.0  0.8272621453113305  0.6021451315018423  0.10374422237848792  1.0000
  H   H27       1.0  0.7973558085007895  0.6890314866398344  0.047158453442499075  1.0000
  H   H28       1.0  0.2828813741847682  0.6824572377038577  0.013858762823282697  1.0000
  H   H29       1.0  0.22130494161550732  0.7623762464003717  0.9414068779129466  1.0000
  H   H30       1.0  0.2799188088079134  0.646428517839013  0.9249570281876629  1.0000
  H   H31       1.0  0.23350493392181454  0.7449255825675889  0.1601300756181061  1.0000
  H   H32       1.0  0.8771731604440591  0.7470769101201215  0.292756341515485  1.0000
  H   H33       1.0  0.014357780935895903  0.8887708863358981  0.2871463225969393  1.0000
  H   H34       1.0  0.7815602484017676  0.6036405920658934  0.37184025060876996  1.0000
  H   H35       1.0  0.3775799792643326  0.6526216944158846  0.2066638444459556  1.0000
  H   H36       1.0  0.258257605909492  0.9006635408432543  0.055465101286650095  1.0000
  H   H37       1.0  0.11240023041536772  0.895114701173334  0.0556330996746155  1.0000
  H   H38       1.0  0.49629984116070613  0.4996553395030077  0.21408306860446663  1.0000
  H   H39       1.0  0.5573043074029301  0.9287076868419034  0.4141802164525501  1.0000
  H   H40       1.0  0.5932491838168091  0.9359714860308443  0.49642712526079447  1.0000
  H   H41       1.0  0.8273150170290791  0.8978617092833898  0.6037550516024268  1.0000
  H   H42       1.0  0.7974302128045424  0.8109666199138275  0.5471758232493826  1.0000
  H   H43       1.0  0.28297014837898626  0.8175165426424938  0.5138660243792117  1.0000
  H   H44       1.0  0.2213685796764011  0.7375866156771167  0.44141414895347714  1.0000
  H   H45       1.0  0.280007830492643  0.8535297996902428  0.4249773935047544  1.0000
  H   H46       1.0  0.7665050450362685  0.24493872308963915  0.3398684298138477  1.0000
  H   H47       1.0  0.122853132589924  0.24706570940811898  0.2072478862185392  1.0000
  H   H48       1.0  0.9856822513139535  0.3887728003820996  0.21286317093631624  1.0000
  H   H49       1.0  0.21845711733340076  0.10364881345081052  0.1281737752232601  1.0000
  H   H50       1.0  0.6224371549064642  0.1526150396882073  0.2933403520705866  1.0000
  H   H51       1.0  0.7417727671292269  0.400658579163192  0.4445356770182869  1.0000
  H   H52       1.0  0.8876330512825348  0.3951006983689424  0.44437837903367244  1.0000
  H   H53       1.0  0.5037185445898161  0.9996504805499383  0.2859126202884923  1.0000
  H   H54       1.0  0.4426827261452716  0.42870430235510065  0.0858201793484952  1.0000
  H   H55       1.0  0.4067435780807217  0.4359585632883948  0.0035800908265671135  1.0000
  H   H56       1.0  0.1726909523573568  0.39783682282823907  0.8962528534715873  1.0000
  H   H57       1.0  0.20258096671764042  0.3109404448971773  0.9528412541790771  1.0000
  H   H58       1.0  0.7169958672680821  0.31748534133853906  0.9861259219336844  1.0000
  H   H59       1.0  0.7786164694667407  0.2375606052624377  0.05858563626657801  1.0000
  H   H60       1.0  0.7199670726927181  0.3534968791898478  0.07501960144074361  1.0000
  C   C1        1.0  0.8450960966164232  0.2579792736089033  0.8100965004680206  1.0000
  C   C2        1.0  0.9147332475000738  0.342205961378454  0.808255496961543  1.0000
  C   C3        1.0  0.0191307857164489  0.3418808074809902  0.7716720017415142  1.0000
  C   C4        1.0  0.0440791403839427  0.2578042400374301  0.736827238276419  1.0000
  C   C5        1.0  0.96777668193851  0.17732885567757248  0.7397773154722742  1.0000
  C   C6        1.0  0.8769039059236761  0.4276549674131688  0.8468580050635311  1.0000
  C   C7        1.0  0.11001028315182991  0.42514670727661025  0.7717528297417431  1.0000
  C   C8        1.0  0.3086025637812853  0.38238594684411  0.6636054389132582  1.0000
  C   C9        1.0  0.3674417508458063  0.29315767217794797  0.6654809575125  1.0000
  C   C10       1.0  0.48283335181711357  0.27768521576665967  0.7123558106846417  1.0000
  C   C11       1.0  0.5337501124354703  0.35385725512924177  0.75543147588332  1.0000
  C   C12       1.0  0.4684005670248369  0.4405748185279847  0.7516503026329104  1.0000
  C   C13       1.0  0.5525473248021058  0.1830488931585066  0.7133228238133071  1.0000
  C   C14       1.0  0.29831723098003954  0.21404038303587208  0.6226460277308945  1.0000
  C   C15       1.0  0.771891538577734  0.18807965247192726  0.5401188150952053  1.0000
  C   C16       1.0  0.9031394313117576  0.1460530389369694  0.5422033142263132  1.0000
  C   C17       1.0  0.15490860543638263  0.7579836810816117  0.689896884401314  1.0000
  C   C18       1.0  0.08526721906606131  0.8422091592684209  0.6917387175933243  1.0000
  C   C19       1.0  0.9808706430906541  0.84187853413421  0.7283249124873238  1.0000
  C   C20       1.0  0.9559265227049211  0.7577993248308557  0.7631662370612986  1.0000
  C   C21       1.0  0.03222935746580901  0.6773217630999183  0.7602107985211219  1.0000
  C   C22       1.0  0.1230817565729438  0.9276607518412733  0.6531323894382624  1.0000
  C   C23       1.0  0.8899926764432138  0.9251447136408474  0.7282485885533276  1.0000
  C   C24       1.0  0.6914121175100548  0.8823835831513094  0.8363912523204962  1.0000
  C   C25       1.0  0.6325675874557461  0.7931533342501281  0.834513987318637  1.0000
  C   C26       1.0  0.5171789392936077  0.7776860498349831  0.7876378134498836  1.0000
  C   C27       1.0  0.4662560620785143  0.853865226103409  0.7445706105216345  1.0000
  C   C28       1.0  0.5316023209124411  0.940586899366508  0.7483547962306858  1.0000
  C   C29       1.0  0.44745388689928944  0.683049222114029  0.7866653682704127  1.0000
  C   C30       1.0  0.7016713536389222  0.7140274193128775  0.8773446922148908  1.0000
  C   C31       1.0  0.2280827653399484  0.6880369910441926  0.9598725846638346  1.0000
  C   C32       1.0  0.0968283490809085  0.6460272393565135  0.9577915508226553  1.0000
  C   C33       1.0  0.1549059688513452  0.7420155671212639  0.1898947676266047  1.0000
  C   C34       1.0  0.0852688190797295  0.6577931748595135  0.1917415119661072  1.0000
  C   C35       1.0  0.9808645590671077  0.6581326470812244  0.22832228412001143  1.0000
  C   C36       1.0  0.9559382883237293  0.7422163736494626  0.2631665262099361  1.0000
  C   C37       1.0  0.032251309428069405  0.8226831670088116  0.2602200571242861  1.0000
  C   C38       1.0  0.12306647388544432  0.5723341460393598  0.1531339203310367  1.0000
  C   C39       1.0  0.8899860246849016  0.5748653154827535  0.2282561599247117  1.0000
  C   C40       1.0  0.6914311909138109  0.6176153371176553  0.3364034381568572  1.0000
  C   C41       1.0  0.6325948856405433  0.7068493391207866  0.3345344546445618  1.0000
  C   C42       1.0  0.5172138460670938  0.7223289546700614  0.2876569468737813  1.0000
  C   C43       1.0  0.4662788421799036  0.6461569153363484  0.2445816443084823  1.0000
  C   C44       1.0  0.531613985117609  0.5594300450535882  0.2483635433294893  1.0000
  C   C45       1.0  0.44748835239875023  0.8169624136471612  0.2866971946032849  1.0000
  C   C46       1.0  0.7017309269222026  0.7859616168257663  0.3773657768159921  1.0000
  C   C47       1.0  0.2281489365421551  0.811926642882881  0.45988600044178446  1.0000
  C   C48       1.0  0.09689912271205263  0.853951108664887  0.457797666481099  1.0000
  C   C49       1.0  0.8451021030673049  0.24202476205462628  0.31010198539895845  1.0000
  C   C50       1.0  0.9147444504539451  0.15779642021129803  0.3082644181393093  1.0000
  C   C51       1.0  0.0191477479947224  0.15812418167472933  0.2716799025344372  1.0000
  C   C52       1.0  0.044089947789387914  0.2422033909784957  0.2368373526006096  1.0000
  C   C53       1.0  0.9677928735674897  0.3226852481910497  0.23979020450136798  1.0000
  C   C54       1.0  0.8769212717070405  0.0723484072353742  0.3468725386881034  1.0000
  C   C55       1.0  0.11002379385043783  0.07485657033438288  0.271753957320179  1.0000
  C   C56       1.0  0.30859570952519283  0.11761197349142803  0.1636026480671973  1.0000
  C   C57       1.0  0.3674152740295469  0.206845802000629  0.1654749431589835  1.0000
  C   C58       1.0  0.48280104147387  0.22232812065409746  0.21235032278838162  1.0000
  C   C59       1.0  0.5337325617332739  0.14615896721186059  0.255425127419116  1.0000
  C   C60       1.0  0.46840262680964184  0.0594337143534389  0.2516456164364484  1.0000
  C   C61       1.0  0.5525241724576873  0.3169663801987356  0.21331736746074634  1.0000
  C   C62       1.0  0.29826734081590445  0.28595668278124714  0.12264945616094988  1.0000
  C   C63       1.0  0.7718213601217627  0.3118977128711151  0.04010733559438509  1.0000
  C   C64       1.0  0.903067137246083  0.3539267943300359  0.04220112160811598  1.0000
  N   N1        1.0  0.8697700727179125  0.17750806200844235  0.7764804074255522  1.0000
  N   N2        1.0  0.3569115541885993  0.4541135844374936  0.7069715528993683  1.0000
  N   N3        1.0  0.13024172668887252  0.6775062420748483  0.7235066859271058  1.0000
  N   N4        1.0  0.6430989508254896  0.9541133369824377  0.7930290772663328  1.0000
  N   N5        1.0  0.1302521560778658  0.8224960855947356  0.22350911393595402  1.0000
  N   N6        1.0  0.6431058775176552  0.5458898472974026  0.29303734648519253  1.0000
  N   N7        1.0  0.8697718612833328  0.3224979055497101  0.2764867153992299  1.0000
  N   N8        1.0  0.3569136777676007  0.0458915265680773  0.206968408422803  1.0000
  O   O1        1.0  0.7766671779662178  0.42371263229127715  0.875577817347974  1.0000
  O   O2        1.0  0.9480778377865351  0.5018609921557841  0.8523658569729022  1.0000
  O   O3        1.0  0.19923996498614127  0.4355532327024675  0.8238002216495133  1.0000
  O   O4        1.0  0.09574719015001423  0.47543827691021795  0.7150355562944739  1.0000
  O   O5        1.0  0.2713535806644601  0.13956447102959402  0.6561686250864867  1.0000
  O   O6        1.0  0.2634057138532526  0.22374382424183634  0.5564148233525259  1.0000
  O   O7        1.0  0.6100183629517987  0.1576117231724226  0.7754311924611557  1.0000
  O   O8        1.0  0.5536491634881032  0.1387163922374839  0.6564883741644678  1.0000
  O   O9        1.0  0.9143394802267014  0.0628356068879725  0.5145893630429512  1.0000
  O   O10       1.0  0.0037483479534615  0.1893201511479816  0.571190204751062  1.0000
  O   O11       1.0  0.8088675932959293  0.07510311759438788  0.9203178989204376  1.0000
  O   O12       1.0  0.3848224025161713  0.03801639937294961  0.5471335097149324  1.0000
  O   O13       1.0  0.15919343193751703  0.12755829224511933  0.4443019375579809  1.0000
  O   O14       1.0  0.2233223437851493  0.9237201361247358  0.6244129333245496  1.0000
  O   O15       1.0  0.05190405939764991  0.001861932582095  0.6476201079732959  1.0000
  O   O16       1.0  0.8007715899763712  0.9355634681121643  0.6762145575942782  1.0000
  O   O17       1.0  0.9042766596323305  0.9754357593201561  0.7849768204851131  1.0000
  O   O18       1.0  0.7286439937530746  0.6395605916618338  0.8438170393251171  1.0000
  O   O19       1.0  0.7365617025844886  0.7237124146665721  0.9435817448513646  1.0000
  O   O20       1.0  0.3899800880469472  0.6576134027169829  0.7245598136132472  1.0000
  O   O21       1.0  0.4463464960385652  0.6387169610168967  0.8435049355811018  1.0000
  O   O22       1.0  0.08562965196280461  0.5628149681081069  0.9854127520478926  1.0000
  O   O23       1.0  0.9962163492033299  0.6892900277431195  0.9288055082862599  1.0000
  O   O24       1.0  0.1911562098138191  0.5750997957649772  0.5796763653774306  1.0000
  O   O25       1.0  0.61512091887235  0.5379997208856934  0.9528561942505931  1.0000
  O   O26       1.0  0.8407681275496373  0.627532823163058  0.05569173004584369  1.0000
  O   O27       1.0  0.2233080035463928  0.5762671742546742  0.12441821522512701  1.0000
  O   O28       1.0  0.05185028906588941  0.4981517465341271  0.1475996324193076  1.0000
  O   O29       1.0  0.8007400211160915  0.5644480513554413  0.17621505304277463  1.0000
  O   O30       1.0  0.9042808030611483  0.5245701662158099  0.2849712103831123  1.0000
  O   O31       1.0  0.728674411837659  0.8604418243409027  0.3438344883342311  1.0000
  O   O32       1.0  0.7366731690976779  0.7762674824742747  0.443594145536956  1.0000
  O   O33       1.0  0.389997150909288  0.8423952881720778  0.22459057269299623  1.0000
  O   O34       1.0  0.44638651423623094  0.8612891872457809  0.3435342537148856  1.0000
  O   O35       1.0  0.08571923590939431  0.9371742679939813  0.485403608205381  1.0000
  O   O36       1.0  0.9962815663403506  0.8106961670588217  0.428820396761175  1.0000
  O   O37       1.0  0.1911728811934381  0.9249110528296641  0.0796837852621337  1.0000
  O   O38       1.0  0.6152113525970364  0.9619805890972868  0.45287745492565534  1.0000
  O   O39       1.0  0.8408518450361698  0.8724616055165839  0.5557080289649505  1.0000
  O   O40       1.0  0.7766816443172431  0.07627327279476498  0.3755899979999811  1.0000
  O   O41       1.0  0.9481258549880992  0.9981586811216658  0.3523910154363108  1.0000
  O   O42       1.0  0.19925352255054923  0.06444569093262939  0.3237914148312839  1.0000
  O   O43       1.0  0.09574365288536062  0.024556217757385902  0.21503339503552613  1.0000
  O   O44       1.0  0.2713244646237243  0.36043926052209224  0.1561694855705724  1.0000
  O   O45       1.0  0.2633203424596999  0.27624233496921846  0.05641696308089191  1.0000
  O   O46       1.0  0.610016214916783  0.3423885971665967  0.2754241251531866  1.0000
  O   O47       1.0  0.553620041494483  0.3613036527286296  0.15647932018596583  1.0000
  O   O48       1.0  0.9142379907705092  0.4371483725452876  0.014587725457936096  1.0000
  O   O49       1.0  0.0036848980505439005  0.31067689242111374  0.0711866650869624  1.0000
  O   O50       1.0  0.8088689016077667  0.4249022041081005  0.420323866212577  1.0000
  O   O51       1.0  0.3847688040056597  0.46197292660014705  0.04712445182002512  1.0000
  O   O52       1.0  0.15915904421015634  0.37243624470666953  0.9442992413060907  1.0000
