data_image0
_chemical_formula_structural       Ag4H48C48N12O8
_chemical_formula_sum              "Ag4 H48 C48 N12 O8"
_cell_length_a       10.69081961763514
_cell_length_b       11.038879857543618
_cell_length_c       12.475
_cell_angle_alpha    114.96270491646315
_cell_angle_beta     109.48954524892132
_cell_angle_gamma    91.81098256595386

_space_group_name_H-M_alt    "P 1"
_space_group_IT_number       1

loop_
  _space_group_symop_operation_xyz
  'x, y, z'

loop_
  _atom_site_type_symbol
  _atom_site_label
  _atom_site_symmetry_multiplicity
  _atom_site_fract_x
  _atom_site_fract_y
  _atom_site_fract_z
  _atom_site_occupancy
  Ag  Ag1       1.0  0.3384156096405846  0.6390752785251266  0.2137517508160015  1.0000
  Ag  Ag2       1.0  0.6615834601558462  0.3609254804083974  0.7862481864809963  1.0000
  Ag  Ag3       1.0  0.6093894687718234  0.467657711846833  0.3127939484229856  1.0000
  Ag  Ag4       1.0  0.3906105932592681  0.5323430470866839  0.6872062725719912  1.0000
  H   H1        1.0  0.9565945764161159  0.3800003292030993  0.2571402794920274  1.0000
  H   H2        1.0  0.04340428901578262  0.6199994095213626  0.7428592183820512  1.0000
  H   H3        1.0  0.0652380236625802  0.6025864812853854  0.13823118472527085  1.0000
  H   H4        1.0  0.9347622427330363  0.3974152978571937  0.8617694756926253  1.0000
  H   H5        1.0  0.9299782809509409  0.4762754177766054  0.10658499157298701  1.0000
  H   H6        1.0  0.0700209932100222  0.5237263613659806  0.8934153851469231  1.0000
  H   H7        1.0  0.06966035363744538  0.4274410707018745  0.06194825463918352  1.0000
  H   H8        1.0  0.9303395040291136  0.5725586680225874  0.938050725329674  1.0000
  H   H9        1.0  0.1172865570445936  0.41959464282146536  0.5787859515089336  1.0000
  H   H10       1.0  0.8827137093510302  0.5804071363211207  0.42121631211537647  1.0000
  H   H11       1.0  0.1453190734784471  0.2715735305160081  0.4662663885665025  1.0000
  H   H12       1.0  0.8546799963179907  0.7284272284175088  0.5337343503336951  1.0000
  H   H13       1.0  0.9838465741244774  0.3164800727097585  0.42620883397505327  1.0000
  H   H14       1.0  0.016153487906613896  0.6835206862237584  0.5737921886231374  1.0000
  H   H15       1.0  0.662287242196591  0.0069415024441994  0.967402365804361  1.0000
  H   H16       1.0  0.3377126154699681  0.9930582362802625  0.032599018974117655  1.0000
  H   H17       1.0  0.5714008220232358  0.0724062774058822  0.6965162400230226  1.0000
  H   H18       1.0  0.42860002787798385  0.9275934613185726  0.3034854284534346  1.0000
  H   H19       1.0  0.6430418506657745  0.9582599254529286  0.7560276301287628  1.0000
  H   H20       1.0  0.3569589992354452  0.0417398132715263  0.2439740383476945  1.0000
  H   H21       1.0  0.748730179655425  0.0905659986737746  0.7614015876132924  1.0000
  H   H22       1.0  0.2512696780111341  0.9094337400506802  0.23859979716517896  1.0000
  H   H23       1.0  0.7397885903538111  0.23946551097988328  0.303541696479229  1.0000
  H   H24       1.0  0.2602106838071521  0.7605362681626957  0.6964594818438883  1.0000
  H   H25       1.0  0.6916442252878383  0.0635865700822364  0.18610175024211623  1.0000
  H   H26       1.0  0.3083560411077855  0.9364152090603426  0.8138989101757799  1.0000
  H   H27       1.0  0.5669040341145147  0.1624234036053878  0.21658479458290705  1.0000
  H   H28       1.0  0.4330950356819159  0.8375773553281362  0.7834159443172977  1.0000
  H   H29       1.0  0.6857364367713714  0.0625561589316419  0.5413280048858623  1.0000
  H   H30       1.0  0.31426321653065514  0.9374425595837579  0.4586721388664968  1.0000
  H   H31       1.0  0.9104961753636757  0.22074467472899778  0.6473925838461909  1.0000
  H   H32       1.0  0.08950347793835081  0.779254043786402  0.3526083615093682  1.0000
  H   H33       1.0  0.8467139921174863  0.7402738960221598  0.32100384233321216  1.0000
  H   H34       1.0  0.15328904661757997  0.2597268629113643  0.6789964281525086  1.0000
  H   H35       1.0  0.1972955482639946  0.1816023137242126  0.23683798234912956  1.0000
  H   H36       1.0  0.8027050972726926  0.8183964047911871  0.7631608418947947  1.0000
  H   H37       1.0  0.0321258205112969  0.0162580515800599  0.23746124522431694  1.0000
  H   H38       1.0  0.9678736284262045  0.9837396467262777  0.7625376575019159  1.0000
  H   H39       1.0  0.1649219783635303  0.1788089813179496  0.8834516600178688  1.0000
  H   H40       1.0  0.8350749025990608  0.8211907574065122  0.116546468857038  1.0000
  H   H41       1.0  0.4773124405361457  0.7211266123841966  0.4731782431100128  1.0000
  H   H42       1.0  0.5226874171304203  0.2788731263402653  0.5268215384620518  1.0000
  H   H43       1.0  0.5014851527274189  0.663835752411174  0.591107536668538  1.0000
  H   H44       1.0  0.49851450057460783  0.3361629661042258  0.4088910038774074  1.0000
  H   H45       1.0  0.6686964357928886  0.5462974666092819  0.01442187538466301  1.0000
  H   H46       1.0  0.3313034218736703  0.45370227211518  0.9855779061874016  1.0000
  H   H47       1.0  0.657722212332864  0.5758386401504652  0.1606920827589845  1.0000
  H   H48       1.0  0.3422778496982204  0.42416211878305177  0.8393081382359924  1.0000
  C   C1        1.0  0.3188294110027882  0.5822679976465466  0.43889725785771094  1.0000
  C   C2        1.0  0.6811694544291171  0.41773174107791533  0.5611030416195744  1.0000
  C   C3        1.0  0.11691552629982033  0.5079773941068524  0.2608514424182857  1.0000
  C   C4        1.0  0.883083339132078  0.4920223446176095  0.7391488570590069  1.0000
  C   C5        1.0  0.060431645561152394  0.43747686722503687  0.30904298194297997  1.0000
  C   C6        1.0  0.9395674242352783  0.5625238917084872  0.6909577569572248  1.0000
  C   C7        1.0  0.1424095802363397  0.4386235822084714  0.42296952139134447  1.0000
  C   C8        1.0  0.8575882929609051  0.5613761565159905  0.577029692784748  1.0000
  C   C9        1.0  0.0395605684897689  0.5036415056018767  0.13515832255249888  1.0000
  C   C10       1.0  0.9604385013066689  0.49635925333164016  0.8648432179509056  1.0000
  C   C11       1.0  0.0931102390535941  0.3574771737856182  0.47590333431221404  1.0000
  C   C12       1.0  0.9068886263783112  0.6425225649388437  0.5240961635618644  1.0000
  C   C13       1.0  0.6666485746736868  0.3795636797254218  0.04878738773948755  1.0000
  C   C14       1.0  0.3333522752275329  0.6204360589990401  0.9512134791337701  1.0000
  C   C15       1.0  0.6605044896102896  0.159272998028122  0.9016140577777348  1.0000
  C   C16       1.0  0.3394953680562693  0.8407267406963328  0.09838732700074354  1.0000
  C   C17       1.0  0.6618185074969459  0.11337685304617652  0.9903338682598599  1.0000
  C   C18       1.0  0.3381803579349593  0.8866228856782782  0.009667232820632306  1.0000
  C   C19       1.0  0.6646380828364471  0.2071269241961957  0.10924546614572242  1.0000
  C   C20       1.0  0.3353619791946443  0.7928738347373212  0.8907555564524613  1.0000
  C   C21       1.0  0.654856666396732  0.0640548460407757  0.7719010766890618  1.0000
  C   C22       1.0  0.3451431912698268  0.9359448926836862  0.22809950648620259  1.0000
  C   C23       1.0  0.66645345436865  0.1646994900182293  0.20889657860392663  1.0000
  C   C24       1.0  0.3335466076624414  0.8353012689152876  0.791105245597464  1.0000
  C   C25       1.0  0.6251575438394781  0.7937185678390009  0.37784468575048175  1.0000
  C   C26       1.0  0.3748433060617415  0.2062811708854611  0.6221553795195618  1.0000
  C   C27       1.0  0.7551589059734879  0.8912536146015952  0.4272267405816874  1.0000
  C   C28       1.0  0.2448405429640133  0.1087440837047495  0.5727713605413385  1.0000
  C   C29       1.0  0.7724515648839727  0.028783158209606096  0.5186056962890717  1.0000
  C   C30       1.0  0.22755147385108646  0.9712176007239108  0.4813937725934422  1.0000
  C   C31       1.0  0.8966583588065973  0.1152132293541683  0.5770824845359357  1.0000
  C   C32       1.0  0.1033458765276549  0.8847885497884107  0.4229177074674836  1.0000
  C   C33       1.0  0.9907243646460699  0.931251931007715  0.4521023206671586  1.0000
  C   C34       1.0  0.0092761061140862  0.0687508683439262  0.5478971759672361  1.0000
  C   C35       1.0  0.8614582563256333  0.8455900772853298  0.3922999368072623  1.0000
  C   C36       1.0  0.1385416013409255  0.1544096614391322  0.6076982415583884  1.0000
  C   C37       1.0  0.31742577816928025  0.30302045458126503  0.13939566633217737  1.0000
  C   C38       1.0  0.6825715115223687  0.6969813245613209  0.8606017381821471  1.0000
  C   C39       1.0  0.19332563849263096  0.1903302022324596  0.06791620172816687  1.0000
  C   C40       1.0  0.8066730225747422  0.8096685162829402  0.9320820551197925  1.0000
  C   C41       1.0  0.1454152949901086  0.1380710133433283  0.133295045277869  1.0000
  C   C42       1.0  0.8545853505465785  0.8619277051720716  0.8667045805692621  1.0000
  C   C43       1.0  0.03234608455966989  0.028983119185369298  0.06843985513572189  1.0000
  C   C44       1.0  0.9676555532116708  0.9710155993300305  0.9315592528061882  1.0000
  C   C45       1.0  0.9822939057353608  0.9728825819098219  0.13355526580411947  1.0000
  C   C46       1.0  0.017706535436794003  0.0271151163965158  0.8664431190168853  1.0000
  C   C47       1.0  0.12664329360227097  0.1351093464421709  0.9329468199011685  1.0000
  C   C48       1.0  0.873355367465102  0.864889372073229  0.0670522385499908  1.0000
  N   N1        1.0  0.4430779450970305  0.6592325691324845  0.5051393188093625  1.0000
  N   N2        1.0  0.5569221169340608  0.3407681898010324  0.49486010058241436  1.0000
  N   N3        1.0  0.24553778207613416  0.5788094889331674  0.32405870065858267  1.0000
  N   N4        1.0  0.754461083355764  0.4211902497912945  0.6759407972154959  1.0000
  N   N5        1.0  0.2702806097420805  0.5110798498582909  0.4883464845128883  1.0000
  N   N6        1.0  0.729719452289011  0.488920909075226  0.5116545380852954  1.0000
  N   N7        1.0  0.6742291688285178  0.5121245439357267  0.08033628612844264  1.0000
  N   N8        1.0  0.3257718854372271  0.4878762149977902  0.9196650201677271  1.0000
  N   N9        1.0  0.6651213552062814  0.292428644120406  0.9311412973064817  1.0000
  N   N10       1.0  0.3348775102256241  0.7075710946040559  0.0688590021708037  1.0000
  N   N11       1.0  0.6649127231742965  0.3391521786500036  0.13771345466677323  1.0000
  N   N12       1.0  0.3350873388567948  0.6608485802835133  0.8622875679314176  1.0000
  O   O1        1.0  0.6062911794598733  0.6735950722790776  0.2866595374080773  1.0000
  O   O2        1.0  0.3937108670405323  0.3264056866544394  0.7133412509828715  1.0000
  O   O3        1.0  0.5413917126389904  0.8344330710052361  0.4306333791192427  1.0000
  O   O4        1.0  0.4586123183307294  0.1655676879282879  0.5693695798740845  1.0000
  O   O5        1.0  0.3366085077861242  0.3744320281536559  0.08690332084928085  1.0000
  O   O6        1.0  0.6633848129668961  0.6255697509889231  0.9130937504763209  1.0000
  O   O7        1.0  0.39621092633558413  0.3184041869969079  0.24894450132453722  1.0000
  O   O8        1.0  0.6037891356955072  0.681596571936609  0.7510525132576119  1.0000
