data_image0
_chemical_formula_structural       Cu2H24C16N12Cl4
_chemical_formula_sum              "Cu2 H24 C16 N12 Cl4"
_cell_length_a       7.5098444873525345
_cell_length_b       8.95964673428425
_cell_length_c       9.390015737017034
_cell_angle_alpha    90.00020679474346
_cell_angle_beta     89.99990578111218
_cell_angle_gamma    96.86204014413151

_space_group_name_H-M_alt    "P 1"
_space_group_IT_number       1

loop_
  _space_group_symop_operation_xyz
  'x, y, z'

loop_
  _atom_site_type_symbol
  _atom_site_label
  _atom_site_symmetry_multiplicity
  _atom_site_fract_x
  _atom_site_fract_y
  _atom_site_fract_z
  _atom_site_occupancy
  Cu  Cu1       1.0  3.2891367993176265e-06  0.9999986605785335  0.4999970321091424  1.0000
  Cu  Cu2       1.0  2.4257395096653444e-06  0.5000000960063459  0.9999976672548879  1.0000
  H   H1        1.0  0.3907402566566774  0.9488716773036288  0.3637931034471293  1.0000
  H   H2        1.0  0.6092615862424466  0.5511279089064303  0.8637935668351489  1.0000
  H   H3        1.0  0.6092571504152957  0.05113077095101199  0.6362062916609758  1.0000
  H   H4        1.0  0.39074247957356084  0.4488745451088221  0.13620689322955565  1.0000
  H   H5        1.0  0.8685430932285528  0.7971460276574833  0.22026028889369803  1.0000
  H   H6        1.0  0.1314591315165714  0.7028541628632752  0.7202597698416893  1.0000
  H   H7        1.0  0.13145266433328126  0.20285417111219317  0.7797401711725412  1.0000
  H   H8        1.0  0.8685457894103764  0.2971449197952012  0.2797374953338192  1.0000
  H   H9        1.0  0.4361132935975718  0.6914152837433178  0.05832562318590109  1.0000
  H   H10       1.0  0.5638876920659115  0.8085831949615283  0.5583291636269789  1.0000
  H   H11       1.0  0.5638848097018611  0.3085826689946813  0.9416748368749381  1.0000
  H   H12       1.0  0.43611190186266674  0.19141588309577884  0.44167129643481917  1.0000
  H   H13       1.0  0.5619319106562273  0.8213396770216975  0.1757845671031575  1.0000
  H   H14       1.0  0.43806889254660325  0.678659227100013  0.6757867589138158  1.0000
  H   H15       1.0  0.43806619264155705  0.1786582757201529  0.8242180228795631  1.0000
  H   H16       1.0  0.5619321920102893  0.3213409762785418  0.3242147661098968  1.0000
  H   H17       1.0  0.3708483054463301  0.9015169160735256  0.9007101328223113  1.0000
  H   H18       1.0  0.6291509754880451  0.5984839257082016  0.40071027953818117  1.0000
  H   H19       1.0  0.6291529379907317  0.0984844114726044  0.09929139220323437  1.0000
  H   H20       1.0  0.37084611382276483  0.4015162742132077  0.5992901805271982  1.0000
  H   H21       1.0  0.6025230357986829  0.8879782865894655  0.9183755302347618  1.0000
  H   H22       1.0  0.3974763765740193  0.612023743341993  0.4183760263229813  1.0000
  H   H23       1.0  0.3974782076375548  0.1120230409585972  0.08162705975172457  1.0000
  H   H24       1.0  0.6025207127367906  0.3879764565794233  0.581624433742391  1.0000
  C   C1        1.0  0.2761597650945902  0.9004706476372631  0.3017580550361814  1.0000
  C   C2        1.0  0.7238423330504559  0.5995298380584301  0.8017585356405377  1.0000
  C   C3        1.0  0.7238388148461893  0.0995306776015425  0.6982413400692167  1.0000
  C   C4        1.0  0.2761602421372373  0.40047149063558146  0.19824085946225264  1.0000
  C   C5        1.0  0.012968140928741382  0.821603494470331  0.22552712182271506  1.0000
  C   C6        1.0  0.9870327438859763  0.6783967139741448  0.7255264655859789  1.0000
  C   C7        1.0  0.9870302801310372  0.17839670660282536  0.7744733382417905  1.0000
  C   C8        1.0  0.012968181794057886  0.32160236522911834  0.2744707995921303  1.0000
  C   C9        1.0  0.45116736491188913  0.8068258100639981  0.09884012144931378  1.0000
  C   C10       1.0  0.5488335578188172  0.69317281537203  0.598840088676205  1.0000
  C   C11       1.0  0.548830897266889  0.19317326684350183  0.9011614035742924  1.0000
  C   C12       1.0  0.4511660361105925  0.30682626268335167  0.4011593064246596  1.0000
  C   C13       1.0  0.4840005098579639  0.9181044323400936  0.9758771606806036  1.0000
  C   C14       1.0  0.5159986543104227  0.5818966816878444  0.4758784629876515  1.0000
  C   C15       1.0  0.5160007335790981  0.08189689520604299  0.0241243643449423  1.0000
  C   C16       1.0  0.48399859387972555  0.4181046424030797  0.5241230620404949  1.0000
  N   N1        1.0  0.10208936720965057  0.8998952818173575  0.3342905945960837  1.0000
  N   N2        1.0  0.897911189770106  0.6001041963867665  0.8342908497619488  1.0000
  N   N3        1.0  0.8979078809829775  0.10010604226778239  0.6657077355492403  1.0000
  N   N4        1.0  0.1020912265382421  0.3998960081377376  0.1657074803780674  1.0000
  N   N5        1.0  0.28879992219987827  0.8263448224419674  0.17884012709725278  1.0000
  N   N6        1.0  0.7112008762575428  0.6736540927439377  0.6788408798411394  1.0000
  N   N7        1.0  0.7111958353627801  0.17365537632578307  0.8211592680080455  1.0000
  N   N8        1.0  0.2888013811698116  0.3263449876149238  0.32115851525798417  1.0000
  N   N9        1.0  0.12219543892966558  0.7749459947920982  0.1285100932098473  1.0000
  N   N10       1.0  0.8778055965918768  0.7250538622712739  0.6285097405782522  1.0000
  N   N11       1.0  0.8778029821301133  0.22505420628105097  0.8714903668546583  1.0000
  N   N12       1.0  0.12219666083795742  0.2749452180817968  0.3714864596380494  1.0000
  Cl  Cl1       1.0  0.7328679054489771  0.008266652784712402  0.3762172223539082  1.0000
  Cl  Cl2       1.0  0.2671317301739151  0.49173278870381393  0.8762164572993781  1.0000
  Cl  Cl3       1.0  0.26713035673063257  0.9917324241208617  0.623783237708757  1.0000
  Cl  Cl4       1.0  0.7328680226348325  0.5082674135210753  0.1237840027642605  1.0000
