data_image0
_chemical_formula_structural       ZnSiH24C48N8O8F6
_chemical_formula_sum              "Zn1 Si1 H24 C48 N8 O8 F6"
_cell_length_a       7.796245152010721
_cell_length_b       19.812461775340378
_cell_length_c       19.812555594314865
_cell_angle_alpha    90.00132001322692
_cell_angle_beta     90.00002330211866
_cell_angle_gamma    89.99981316480998

_space_group_name_H-M_alt    "P 1"
_space_group_IT_number       1

loop_
  _space_group_symop_operation_xyz
  'x, y, z'

loop_
  _atom_site_type_symbol
  _atom_site_label
  _atom_site_symmetry_multiplicity
  _atom_site_fract_x
  _atom_site_fract_y
  _atom_site_fract_z
  _atom_site_occupancy
  Zn  Zn1       1.0  0.9999990827665995  0.9999992628381877  0.999999991108176  1.0000
  Si  Si1       1.0  0.4999999267612479  0.9999994969484338  0.9999991638325059  1.0000
  H   H1        1.0  8.628339642999998e-07  0.4360669002253702  0.16997249584014903  1.0000
  H   H2        1.0  1.6180877099999186e-08  0.5639327776676526  0.8300287271685536  1.0000
  H   H3        1.0  6.651971843999988e-07  0.8300250472692529  0.4360668867392405  1.0000
  H   H4        1.0  2.138119583999998e-07  0.16997564005455965  0.5639313078984216  1.0000
  H   H5        1.0  0.9999996771856062  0.5639337548478668  0.16997404929560395  1.0000
  H   H6        1.0  0.9999999191602242  0.4360659230401753  0.8300266689825551  1.0000
  H   H7        1.0  0.9999988654842227  0.16997315768742993  0.436065925329416  1.0000
  H   H8        1.0  7.308543601000004e-07  0.8300280343758644  0.5639327740444031  1.0000
  H   H9        1.0  0.7334667178770289  0.11427255306576004  2.3848609416000003e-06  1.0000
  H   H10       1.0  0.7234247002804395  0.24036987400760523  0.9999985070193773  1.0000
  H   H11       1.0  0.7334763781970396  0.8857269121312188  1.674928923999997e-07  1.0000
  H   H12       1.0  0.7234323167922695  0.7596305239515078  2.2472411061000033e-06  1.0000
  H   H13       1.0  0.7334762242661911  3.3659297569999985e-07  0.1142740601707786  1.0000
  H   H14       1.0  0.72343145367023  0.9999986776729207  0.2403692628251335  1.0000
  H   H15       1.0  0.7334763640724801  0.999998029403031  0.8857251814927452  1.0000
  H   H16       1.0  0.7234319767348156  4.243922958800004e-06  0.7596294725431606  1.0000
  H   H17       1.0  0.2665259515471377  0.8857267098056458  1.298989503000063e-07  1.0000
  H   H18       1.0  0.27657233072375936  0.7596308133477622  2.2112701998000026e-06  1.0000
  H   H19       1.0  0.26651629123100656  0.11427134126870442  1.8425249237000003e-06  1.0000
  H   H20       1.0  0.2765647142243566  0.2403671350068564  0.9999984710135833  1.0000
  H   H21       1.0  0.266527080285293  1.3427238340000044e-07  0.11427452730738712  1.0000
  H   H22       1.0  0.2765701849353023  0.9999984623429871  0.2403697315787525  1.0000
  H   H23       1.0  0.2665272200933941  0.9999973223437951  0.8857251438930902  1.0000
  H   H24       1.0  0.2765719906704546  3.523853543200002e-06  0.7596294365606228  1.0000
  C   C1        1.0  0.9999979180577087  0.35419534225069793  0.0635774838199339  1.0000
  C   C2        1.0  2.1191030584e-06  0.42903725623791206  0.06239012998323551  1.0000
  C   C3        1.0  7.217575444000003e-07  0.46454641273113156  0.1228819781242407  1.0000
  C   C4        1.0  3.956274098999998e-07  0.6458028214803664  0.9364267675537905  1.0000
  C   C5        1.0  1.9860881365999997e-06  0.570960545616437  0.9376115172300531  1.0000
  C   C6        1.0  8.180933050999988e-07  0.535451893840268  0.8771181549033217  1.0000
  C   C7        1.0  1.8647447319999946e-07  0.9364167384776753  0.35419578683405467  1.0000
  C   C8        1.0  2.2001641039999864e-07  0.9376092748004017  0.4290362214872872  1.0000
  C   C9        1.0  4.865533682999995e-07  0.8771134157009616  0.46454583506482555  1.0000
  C   C10       1.0  7.069364469999985e-08  0.06358459645668554  0.645801317845617  1.0000
  C   C11       1.0  3.714963979999993e-08  0.06239256486679072  0.5709608831982038  1.0000
  C   C12       1.0  0.9999997706131935  0.12288842397786232  0.5354522790815467  1.0000
  C   C13       1.0  2.5126854055e-06  0.6458038711798154  0.0635837908573933  1.0000
  C   C14       1.0  2.8192506177999986e-06  0.57096308213675  0.0623917648854189  1.0000
  C   C15       1.0  1.7133956546999998e-06  0.5354538051147915  0.1228868327793862  1.0000
  C   C16       1.0  3.0983134280000034e-07  0.3541954448854981  0.936418865834128  1.0000
  C   C17       1.0  1.2859341041000004e-06  0.4290362339102884  0.9376093776148694  1.0000
  C   C18       1.0  1.1091223868000014e-06  0.4645450062002396  0.8771143097149834  1.0000
  C   C19       1.0  0.9999999209714474  0.06357467587839952  0.35419582681519307  1.0000
  C   C20       1.0  0.9999999642671257  0.062390930025138444  0.42903724355593914  1.0000
  C   C21       1.0  0.9999997342168924  0.12288356933098754  0.46454572719763126  1.0000
  C   C22       1.0  0.9999983926960568  0.9364270209127457  0.6458023678338877  1.0000
  C   C23       1.0  0.9999996320675777  0.9376112715096385  0.5709619605599487  1.0000
  C   C24       1.0  5.229501879999996e-07  0.8771182703594608  0.5354533964096362  1.0000
  C   C25       1.0  0.999992416334358  0.24926106850185906  0.9999971175143261  1.0000
  C   C26       1.0  3.7397510937e-06  0.4640139285923937  0.9999995108375049  1.0000
  C   C27       1.0  2.0493390807e-06  0.7507381046683012  4.610218489600004e-06  1.0000
  C   C28       1.0  2.9307775904000005e-06  0.5359838732602926  2.1363759899000018e-06  1.0000
  C   C29       1.0  1.1542949210000009e-06  0.9999962202232738  0.24926205026695675  1.0000
  C   C30       1.0  6.037428760999994e-07  0.9999995605662664  0.46401433579566737  1.0000
  C   C31       1.0  1.6682031827000002e-06  7.133658208100004e-06  0.7507365686275166  1.0000
  C   C32       1.0  2.752618684000001e-07  2.136217396800002e-06  0.5359833541231751  1.0000
  C   C33       1.0  0.8511719769242562  0.14379783346253566  2.107983974000008e-07  1.0000
  C   C34       1.0  0.8459209564298931  0.21402072174745262  0.9999977086236811  1.0000
  C   C35       1.0  0.8511818796185793  0.8562004698000154  1.3510327861000011e-06  1.0000
  C   C36       1.0  0.845927073981251  0.7859790128231269  3.570082491000003e-06  1.0000
  C   C37       1.0  0.8511826459310045  0.9999989967362244  0.14379970181201432  1.0000
  C   C38       1.0  0.8459275881459974  0.9999972853640389  0.2140208292529948  1.0000
  C   C39       1.0  0.8511832682020142  1.2357323200000032e-06  0.856199558824848  1.0000
  C   C40       1.0  0.845928138260021  6.4870409773000044e-06  0.7859784305785241  1.0000
  C   C41       1.0  0.1488194098327114  0.8562009246652454  1.294494680300005e-06  1.0000
  C   C42       1.0  0.1540760745784482  0.7859789561422518  3.0096542716000013e-06  1.0000
  C   C43       1.0  0.1488107898094668  0.14379778359990786  6.589850301000006e-07  1.0000
  C   C44       1.0  0.1540699570314956  0.2140196556067196  0.9999976529142744  1.0000
  C   C45       1.0  0.1488201761472112  0.999998946868616  0.14379964526809633  1.0000
  C   C46       1.0  0.1540753060747093  0.9999972286898076  0.21402077355512006  1.0000
  C   C47       1.0  0.14882079842029577  6.81131879800003e-07  0.8561995022751178  1.0000
  C   C48       1.0  0.15407585619080072  5.925633907100002e-06  0.7859783748748299  1.0000
  N   N1        1.0  0.9999950427447216  0.10925281239379103  8.343018720000004e-07  1.0000
  N   N2        1.0  0.9999972481409571  0.32207736040138724  0.999996442124278  1.0000
  N   N3        1.0  1.9201822710000002e-07  0.8907459457256766  1.6626107420000392e-07  1.0000
  N   N4        1.0  2.348207203799999e-06  0.6779218127596284  4.780878505500003e-06  1.0000
  N   N5        1.0  1.0823756042999998e-06  0.9999996547801834  0.1092543674521096  1.0000
  N   N6        1.0  1.1916924762999983e-06  0.9999960495364281  0.3220779973662147  1.0000
  N   N7        1.0  1.4837344294999988e-06  0.9999995717097722  0.8907451714679271  1.0000
  N   N8        1.0  1.6308076951e-06  6.799612215500004e-06  0.6779206215224391  1.0000
  O   O1        1.0  0.9999980812623903  0.3209744293247  0.11586212792664703  1.0000
  O   O2        1.0  0.999998288922896  0.6790235915012419  0.8841406897584463  1.0000
  O   O3        1.0  0.9999997231818014  0.8841314432524998  0.3209739071562012  1.0000
  O   O4        1.0  1.1558229360000002e-06  0.11587025353117043  0.6790237827626413  1.0000
  O   O5        1.0  4.596772100999998e-07  0.6790268552317543  0.11586827140219921  1.0000
  O   O6        1.0  0.9999984758383178  0.32097267976777044  0.8841325273787606  1.0000
  O   O7        1.0  0.9999977458041088  0.11586144363284491  0.3209756564763708  1.0000
  O   O8        1.0  0.9999973416893795  0.8841416244699545  0.6790226186927485  1.0000
  F   F1        1.0  0.273612483747769  1.8417455649e-06  1.031509143e-06  1.0000
  F   F2        1.0  0.7263858299269899  0.9999983408703274  0.9999991820442773  1.0000
  F   F3        1.0  0.4999994518275557  0.06064251067058282  0.0606425875873953  1.0000
  F   F4        1.0  0.5000001445175073  0.939357167200015  0.939356616499417  1.0000
  F   F5        1.0  0.4999996932282187  0.939356635050068  0.06064059632718251  1.0000
  F   F6        1.0  0.49999990312072384  0.06064203334904762  0.9393581030175611  1.0000
