data_image0
_chemical_formula_structural       Zn2H32C52S2N4O8
_chemical_formula_sum              "Zn2 H32 C52 S2 N4 O8"
_cell_length_a       8.211406478427916
_cell_length_b       10.293996412958485
_cell_length_c       14.251601540293352
_cell_angle_alpha    70.85644245222763
_cell_angle_beta     89.24224432035142
_cell_angle_gamma    74.12996474299122

_space_group_name_H-M_alt    "P 1"
_space_group_IT_number       1

loop_
  _space_group_symop_operation_xyz
  'x, y, z'

loop_
  _atom_site_type_symbol
  _atom_site_label
  _atom_site_symmetry_multiplicity
  _atom_site_fract_x
  _atom_site_fract_y
  _atom_site_fract_z
  _atom_site_occupancy
  Zn  Zn1       1.0  0.1632453836400173  0.5634315553343257  0.23072777318079563  1.0000
  Zn  Zn2       1.0  0.8367582634134153  0.43656994380343395  0.7692713118637896  1.0000
  H   H1        1.0  0.3190925631280521  0.23905501120097472  0.29043524226686657  1.0000
  H   H2        1.0  0.680898609652651  0.7609504626194975  0.7095580989792578  1.0000
  H   H3        1.0  0.3254752632515406  0.02489814605462469  0.4372600888345273  1.0000
  H   H4        1.0  0.6745097338687457  0.9751038038439359  0.5627279116338711  1.0000
  H   H5        1.0  0.9565135066526268  0.30625226053609106  0.5573314088172479  1.0000
  H   H6        1.0  0.043481176313193357  0.6937468189220436  0.4426642008592552  1.0000
  H   H7        1.0  0.9609213557863898  0.5047998355004069  0.4044771519770832  1.0000
  H   H8        1.0  0.03908595513906485  0.49520182819581016  0.5955253499217079  1.0000
  H   H9        1.0  0.3752942766406023  0.8759554869588155  0.5893457050297143  1.0000
  H   H10       1.0  0.6247031866366016  0.12403947701991308  0.41065581874604357  1.0000
  H   H11       1.0  0.3570977071581541  0.6757845288846124  0.735149924021229  1.0000
  H   H12       1.0  0.6428936573020819  0.32421019063259837  0.26484683318872015  1.0000
  H   H13       1.0  0.8922754760335607  0.13808519411075076  0.6380138655041634  1.0000
  H   H14       1.0  0.10771793552554955  0.8619106553432231  0.36198327967822747  1.0000
  H   H15       1.0  0.7736891929155689  0.6445994470081969  0.0034374553913565763  1.0000
  H   H16       1.0  0.22631807553025152  0.35539907133926346  0.9965686491559251  1.0000
  H   H17       1.0  0.500599014458423  0.8296250820997952  0.9867520868147394  1.0000
  H   H18       1.0  0.49940704224222526  0.17037341864808295  0.013254039020147011  1.0000
  H   H19       1.0  0.6642382025128201  0.12613486341567884  0.7382189993548492  1.0000
  H   H20       1.0  0.33576208355540155  0.8738591304324002  0.26178483587167983  1.0000
  H   H21       1.0  0.25211157488560354  0.9412256544795947  0.9088394788933696  1.0000
  H   H22       1.0  0.7478911886071913  0.05877156462029379  0.09116210339627166  1.0000
  H   H23       1.0  0.9726812366333988  0.12862220141122546  0.873636217325547  1.0000
  H   H24       1.0  0.02732283596871803  0.871375415271217  0.12637717811431773  1.0000
  H   H25       1.0  0.19923294771742667  0.45535889808419927  0.7565189278762288  1.0000
  H   H26       1.0  0.8007673693758193  0.5446381964087691  0.2434799124150047  1.0000
  H   H27       1.0  0.4861773746774531  0.28457872941454804  0.7882012794697599  1.0000
  H   H28       1.0  0.5138250181511737  0.7154196067748655  0.21180142951092057  1.0000
  H   H29       1.0  0.37042935017426254  0.6430521887734456  0.4937111452678236  1.0000
  H   H30       1.0  0.6295859794260394  0.35697079379925606  0.5062746296824939  1.0000
  H   H31       1.0  0.4570192899064338  0.6548112602009507  0.9267267190311371  1.0000
  H   H32       1.0  0.5429843089400634  0.34518707123611136  0.0732752725185435  1.0000
  C   C1        1.0  0.2403685185552433  0.2481749173226078  0.35147573687049755  1.0000
  C   C2        1.0  0.7596206185812023  0.7518294712649832  0.6485186086899899  1.0000
  C   C3        1.0  0.24435367659798873  0.12944009882561858  0.43482677948821175  1.0000
  C   C4        1.0  0.7556328776339074  0.8705576732900651  0.5651657640802411  1.0000
  C   C5        1.0  0.14126784251869404  0.14433078636874794  0.5125439538735888  1.0000
  C   C6        1.0  0.8587207702666788  0.8556681603875728  0.48745036995411073  1.0000
  C   C7        1.0  0.03834051272936279  0.28405059112942144  0.5002454509336898  1.0000
  C   C8        1.0  0.9616540991203096  0.7159452312202602  0.4997502806742913  1.0000
  C   C9        1.0  0.0401791304907917  0.39641078314642186  0.4146456638817212  1.0000
  C   C10       1.0  0.9598184635640978  0.6035906503453461  0.585354223744261  1.0000
  C   C11       1.0  0.1348374152764578  0.02291693912624739  0.6017110403294337  1.0000
  C   C12       1.0  0.8651524207086825  0.9770820699335444  0.39828465449746614  1.0000
  C   C13       1.0  0.26415199668912936  0.8905958007079704  0.6316083959533144  1.0000
  C   C14       1.0  0.7358426437970566  0.10940013340140808  0.3683908163716793  1.0000
  C   C15       1.0  0.2553764016821278  0.7760576206026427  0.7152031388032539  1.0000
  C   C16       1.0  0.7446194505492231  0.2239383311063249  0.28479605223414234  1.0000
  C   C17       1.0  0.1124160264319869  0.7927906919137299  0.7695140064788359  1.0000
  C   C18       1.0  0.8875859074344207  0.20720543720093323  0.2304878626941687  1.0000
  C   C19       1.0  0.9810571518019345  0.9241005335632622  0.7413558404051911  1.0000
  C   C20       1.0  0.018943647162757305  0.07589885741220569  0.258646624267321  1.0000
  C   C21       1.0  0.9943249296102434  0.037908874484330085  0.6583513612939454  1.0000
  C   C22       1.0  0.005672140093580038  0.9620871171761676  0.3416485045992487  1.0000
  C   C23       1.0  0.8421369173105406  0.9172459386655303  0.8045353864481938  1.0000
  C   C24       1.0  0.1578667158997717  0.0827525268831693  0.19547078196188744  1.0000
  C   C25       1.0  0.8721605665999804  0.7806515265241599  0.8794257405576429  1.0000
  C   C26       1.0  0.1278426730369517  0.21934796670630155  0.1205787699698817  1.0000
  C   C27       1.0  0.7507698732792535  0.7494836352000859  0.9461383888896573  1.0000
  C   C28       1.0  0.24923460101206266  0.2505159650377209  0.05386888492387239  1.0000
  C   C29       1.0  0.5969095479128798  0.8537438498019296  0.9357064318526441  1.0000
  C   C30       1.0  0.40309370317866217  0.14625568813241327  0.06429947096167869  1.0000
  C   C31       1.0  0.5624927022462672  0.9897796574406568  0.8604399115707222  1.0000
  C   C32       1.0  0.4375120715930693  0.010215568599178899  0.13956635748324683  1.0000
  C   C33       1.0  0.6876017137308496  0.02152492781241479  0.7963128182133301  1.0000
  C   C34       1.0  0.3123978849432732  0.978474490267345  0.20369106003359153  1.0000
  C   C35       1.0  0.3949729277592766  0.09573883326629576  0.8467977750177764  1.0000
  C   C36       1.0  0.6050302235795969  0.9042573357998972  0.1532047690110262  1.0000
  C   C37       1.0  0.24680368479717874  0.053813100029046275  0.8735468795773397  1.0000
  C   C38       1.0  0.7532007011960786  0.9461831760444922  0.12645842773746815  1.0000
  C   C39       1.0  0.09049540401477431  0.15697318899407256  0.8547089382727575  1.0000
  C   C40       1.0  0.9095061935512805  0.8430241913217454  0.1452982344516869  1.0000
  C   C41       1.0  0.21600045620936478  0.34029005820811153  0.7887453718455146  1.0000
  C   C42       1.0  0.7840014547478231  0.6597059814987956  0.21125371275388014  1.0000
  C   C43       1.0  0.37630141632342173  0.2437813337017828  0.8050888278729003  1.0000
  C   C44       1.0  0.6237005175429857  0.7562147954128873  0.19491304130010428  1.0000
  C   C45       1.0  0.3874193257881871  0.5536006475508372  0.3699802646012883  1.0000
  C   C46       1.0  0.6125873254294022  0.4464125075551948  0.6300081135868891  1.0000
  C   C47       1.0  0.43915194938413993  0.5545977517363523  0.4691310567939339  1.0000
  C   C48       1.0  0.5608597564352634  0.44542522274146273  0.5308561743059883  1.0000
  C   C49       1.0  0.33472582652545674  0.6028359826424887  0.06774428924303784  1.0000
  C   C50       1.0  0.6652785193766776  0.3971601369674714  0.9322561450679598  1.0000
  C   C51       1.0  0.44984222704264454  0.5664839856318479  0.9930199409752585  1.0000
  C   C52       1.0  0.5501597664853007  0.43351535588739387  0.0069804139794556325  1.0000
  S   S1        1.0  0.06672944875206345  0.6632943595872902  0.8724401590422415  1.0000
  S   S2        1.0  0.9332712619145622  0.3367017072239093  0.1275603391315556  1.0000
  N   N1        1.0  0.13874071736304933  0.38046343376137753  0.34040759353233335  1.0000
  N   N2        1.0  0.8612564831184674  0.619539027412152  0.6595906362110852  1.0000
  N   N3        1.0  0.07396416073769531  0.2984683857037068  0.8116763758739295  1.0000
  N   N4        1.0  0.926037413919147  0.7015289052043555  0.18832801227691218  1.0000
  O   O1        1.0  0.47758323736692193  0.4682670152984654  0.3318542035433296  1.0000
  O   O2        1.0  0.5224120950003553  0.5317439531520377  0.6681390955727832  1.0000
  O   O3        1.0  0.2398921911554055  0.6430720637119619  0.3294292951716358  1.0000
  O   O4        1.0  0.7601076714626203  0.3569432822790545  0.6705628351234264  1.0000
  O   O5        1.0  0.29123734227091813  0.7291654091658728  0.06914172554213847  1.0000
  O   O6        1.0  0.7087730313320364  0.2708276977971522  0.9308635972661603  1.0000
  O   O7        1.0  0.28823601588447906  0.49782841878147355  0.12994430572344132  1.0000
  O   O8        1.0  0.7117667304264049  0.502168733262607  0.8700551881359926  1.0000
