data_image0
_chemical_formula_structural       Mn8H48C40O40
_chemical_formula_sum              "Mn8 H48 C40 O40"
_cell_length_a       7.412229096
_cell_length_b       11.401788727
_cell_length_c       14.6486
_cell_angle_alpha    90.0
_cell_angle_beta     90.0
_cell_angle_gamma    90.0

_space_group_name_H-M_alt    "P 1"
_space_group_IT_number       1

loop_
  _space_group_symop_operation_xyz
  'x, y, z'

loop_
  _atom_site_type_symbol
  _atom_site_label
  _atom_site_symmetry_multiplicity
  _atom_site_fract_x
  _atom_site_fract_y
  _atom_site_fract_z
  _atom_site_occupancy
  Mn  Mn1       1.0  0.9437916596203377  0.6993262365156951  0.5591885914012238  1.0000
  Mn  Mn2       1.0  0.556211896125127  0.1993283733295428  0.4408100432805853  1.0000
  Mn  Mn3       1.0  0.056208462340272485  0.3006729980780847  0.0591926873557895  1.0000
  Mn  Mn4       1.0  0.4437895749573073  0.8006734924303416  0.9408120912578681  1.0000
  Mn  Mn5       1.0  0.05620711321845558  0.3006756292441892  0.4408086779624014  1.0000
  Mn  Mn6       1.0  0.4437841784700254  0.8006708612642441  0.5591879087421319  1.0000
  Mn  Mn7       1.0  0.9437943578639787  0.6993253594603317  0.9408073126442105  1.0000
  Mn  Mn8       1.0  0.5562078487596693  0.1993274962741722  0.0591879087421319  1.0000
  H   H1        1.0  0.07045923611317308  0.502783391032743  0.6262366369482422  1.0000
  H   H2        1.0  0.42954689591531536  0.0027793884590181996  0.3737660936881326  1.0000
  H   H3        1.0  0.9295435840910784  0.4972167206164002  0.1262366369482422  1.0000
  H   H4        1.0  0.5704532260452948  0.9972216002454957  0.8737647283699488  1.0000
  H   H5        1.0  0.9295395367256203  0.4972158435610368  0.3737647283699488  1.0000
  H   H6        1.0  0.5704532260452948  0.9972198461347614  0.6262318583345845  1.0000
  H   H7        1.0  0.07046058523499  0.5027842680881136  0.8737626803926659  1.0000
  H   H8        1.0  0.4295455467934984  0.0027767572929207  0.1262318583345845  1.0000
  H   H9        1.0  0.23033961550397206  0.5975185265332073  0.6417644006935816  1.0000
  H   H10       1.0  0.2696665165245165  0.0975171551255869  0.3582355993064184  1.0000
  H   H11       1.0  0.7696645538220961  0.40247983100520196  0.1417684966481403  1.0000
  H   H12       1.0  0.7303322563142771  0.9024820794682  0.8582355993064184  1.0000
  H   H13       1.0  0.7696551099693634  0.40248158511593596  0.3582376472837012  1.0000
  H   H14       1.0  0.730333605436094  0.9024820794682  0.6417623527162988  1.0000
  H   H15       1.0  0.23034366286943  0.5975202806439412  0.8582355993064184  1.0000
  H   H16       1.0  0.2696665165245165  0.0975154010148529  0.14176167005720694  1.0000
  H   H17       1.0  0.13892177193439176  0.5155594565684183  0.25  1.0000
  H   H18       1.0  0.361077614485005  0.015559839271524796  0.7499986346818162  1.0000
  H   H19       1.0  0.8610823973916764  0.48443802391463453  0.75  1.0000
  H   H20       1.0  0.6389225074756126  0.9844393953222549  0.2499979520227171  1.0000
  H   H21       1.0  0.048602113525390685  0.6574599985569449  0.24999863468181624  1.0000
  H   H22       1.0  0.451394574650365  0.157459504204688  0.7499979520227171  1.0000
  H   H23       1.0  0.9513966593134027  0.3425374819261009  0.7500013653181838  1.0000
  H   H24       1.0  0.5486028490666042  0.8425397303890918  0.24999863468181624  1.0000
  H   H25       1.0  0.33894796928980486  0.730602907969498  0.3250720205343853  1.0000
  H   H26       1.0  0.16104871888595795  0.2306015365618705  0.6749266141474237  1.0000
  H   H27       1.0  0.6610508035489884  0.2693989577903864  0.8250747511707601  1.0000
  H   H28       1.0  0.8389487048310185  0.7693976980319092  0.1749286621247066  1.0000
  H   H29       1.0  0.6610481053053547  0.2693989577903864  0.6749286621247066  1.0000
  H   H30       1.0  0.8389500539528354  0.7693994521426433  0.3250699725571025  1.0000
  H   H31       1.0  0.3389506675334388  0.7306011538587569  0.17492797946561472  1.0000
  H   H32       1.0  0.1610500680077749  0.23060329067260446  0.8250679245798268  1.0000
  H   H33       1.0  0.5451787778902712  0.5973396072382755  0.3943858116133967  1.0000
  H   H34       1.0  0.95481263575882  0.0973391128860186  0.6056162363638862  1.0000
  H   H35       1.0  0.4548172967048813  0.4026631355769723  0.8943830809770219  1.0000
  H   H36       1.0  0.045184787958149286  0.902658367597027  0.1056162363638862  1.0000
  H   H37       1.0  0.4548186458267053  0.4026622585216089  0.6056155537047943  1.0000
  H   H38       1.0  0.045182089714515386  0.902658367597027  0.3943837636361138  1.0000
  H   H39       1.0  0.5451855234993701  0.5973369760721781  0.105618284341169  1.0000
  H   H40       1.0  0.9548166831242781  0.0973443752182206  0.894383763636114  1.0000
  H   H41       1.0  0.6328217786106052  0.657145135680075  0.2500027306363748  1.0000
  H   H42       1.0  0.8671736824039442  0.1571455183831887  0.7499993173409081  1.0000
  H   H43       1.0  0.3671769942281884  0.3428576071351728  0.7499993173409081  1.0000
  H   H44       1.0  0.13282374131302524  0.8428528391552277  0.2500006826590919  1.0000
  H   H45       1.0  0.6729554544788454  0.505626804533577  0.2500027306363748  1.0000
  H   H46       1.0  0.8270413556575278  0.0056271872366906  0.75  1.0000
  H   H47       1.0  0.3270460166035889  0.49437769239240476  0.7499993173409081  1.0000
  H   H48       1.0  0.1729560680594489  0.9943711703017257  0.25  1.0000
  C   C1        1.0  0.17612650433382973  0.6087807945048951  0.2499993173409081  1.0000
  C   C2        1.0  0.3238769294510249  0.10878293131873559  0.7499986346818162  1.0000
  C   C3        1.0  0.8238749667485974  0.39122019419961857  0.7500013653181838  1.0000
  C   C4        1.0  0.6761218433877685  0.8912206885518826  0.24999863468181624  1.0000
  C   C5        1.0  0.2868313934262119  0.6403758370570287  0.3339199650478548  1.0000
  C   C6        1.0  0.21316529474954385  0.1403753427047718  0.6660807176112371  1.0000
  C   C7        1.0  0.7131673794125817  0.3596251516474851  0.8339213303660387  1.0000
  C   C8        1.0  0.7868361763328833  0.8596238918890151  0.1660814002703361  1.0000
  C   C9        1.0  0.7131687285343986  0.35962339753675104  0.6660807176112371  1.0000
  C   C10       1.0  0.7868375254547073  0.8596247689443786  0.33391723441148  1.0000
  C   C11       1.0  0.2868367899134866  0.6403740829462947  0.1660800349521452  1.0000
  C   C12       1.0  0.21316394562772695  0.1403770968155058  0.83391723441148  1.0000
  C   C13       1.0  0.4566912269113174  0.5627160925028107  0.3398884535040878  1.0000
  C   C14       1.0  0.0433027630208045  0.0627191063720218  0.6601115464959122  1.0000
  C   C15       1.0  0.543308895049293  0.43728577325707346  0.8398884535040878  1.0000
  C   C16       1.0  0.9566960098179889  0.9372818823324991  0.1601122291550041  1.0000
  C   C17       1.0  0.543308895049293  0.4372848962017102  0.660112911814096  1.0000
  C   C18       1.0  0.9566960098179889  0.9372845134985964  0.339887088185904  1.0000
  C   C19       1.0  0.4566979725204091  0.5627143383920696  0.1601149597913789  1.0000
  C   C20       1.0  0.043304112142621386  0.0627191063720218  0.839887088185904  1.0000
  C   C21       1.0  0.5655100437008966  0.5713735060335665  0.2500034132954667  1.0000
  C   C22       1.0  0.9344881155572933  0.0713756428474142  0.75  1.0000
  C   C23       1.0  0.4344927765033545  0.42862835972631785  0.75  1.0000
  C   C24       1.0  0.06551200640331697  0.9286262229124702  0.25  1.0000
  C   C25       1.0  0.17348492381245245  0.6517249335100743  0.4192448425105439  1.0000
  C   C26       1.0  0.32652255733786  0.151725316213188  0.5807537921712651  1.0000
  C   C27       1.0  0.8265151981481578  0.3482778093051735  0.9192489384651098  1.0000
  C   C28       1.0  0.6734735172572996  0.8482712872144943  0.080755840148548  1.0000
  C   C29       1.0  0.8265124999045241  0.3482743010837055  0.5807565228076399  1.0000
  C   C30       1.0  0.6734694698918415  0.8482704101591237  0.4192421118741692  1.0000
  C   C31       1.0  0.1734876220560864  0.6517249335100743  0.080754474830357  1.0000
  C   C32       1.0  0.32652390645967694  0.1517297014900194  0.9192414292150772  1.0000
  C   C33       1.0  0.4150451854841037  0.43731120786272726  0.3715133186789217  1.0000
  C   C34       1.0  0.0849528518134761  0.9373003004952095  0.6284853160028945  1.0000
  C   C35       1.0  0.5849495399892319  0.5626941661186251  0.8715119533607307  1.0000
  C   C36       1.0  0.9150418736598664  0.0626980570432067  0.1284839506847106  1.0000
  C   C37       1.0  0.5849562855983237  0.5626897808417866  0.6284880466392693  1.0000
  C   C38       1.0  0.9150391754162255  0.0626989340985702  0.3715153666561974  1.0000
  C   C39       1.0  0.4150559784586533  0.4373033143644207  0.128491459934736  1.0000
  C   C40       1.0  0.08495555005710997  0.9373038087166774  0.8715133186789217  1.0000
  O   O1        1.0  0.005963118439481698  0.6247712679617692  0.4196032385347408  1.0000
  O   O2        1.0  0.49402007851809054  0.12477691299708478  0.5803933481697925  1.0000
  O   O3        1.0  0.9940343052774948  0.3752288436873812  0.9196052865120237  1.0000
  O   O4        1.0  0.5059827416861609  0.8752214445413316  0.0803933481697925  1.0000
  O   O5        1.0  0.9940370035211357  0.3752279666320106  0.5803974441243511  1.0000
  O   O6        1.0  0.5059800434425199  0.8752196904305974  0.4196046038529246  1.0000
  O   O7        1.0  0.005968514926756498  0.6247712679617692  0.08039471348797632  1.0000
  O   O8        1.0  0.4940241258835484  0.12477954416318228  0.9196032385347408  1.0000
  O   O9        1.0  0.24026645384734013  0.7016530644051784  0.4895348360935543  1.0000
  O   O10       1.0  0.2597234887193237  0.20165695532975997  0.5104624332700709  1.0000
  O   O11       1.0  0.7597269225041783  0.298354063686908  0.9895368840708301  1.0000
  O   O12       1.0  0.7402806806067446  0.7983422792640197  0.0104631159291699  1.0000
  O   O13       1.0  0.7597296207478124  0.2983461701886014  0.5104651639064457  1.0000
  O   O14       1.0  0.7402752841194695  0.7983431563193902  0.4895348360935543  1.0000
  O   O15       1.0  0.24027589770007293  0.7016495561837104  0.0104644812473538  1.0000
  O   O16       1.0  0.2597221395975069  0.2016578323851306  0.9895348360935543  1.0000
  O   O17       1.0  0.2629114635773533  0.41952452501359255  0.4078703766912852  1.0000
  O   O18       1.0  0.23706768601476105  0.9195215111443815  0.5921371325587401  1.0000
  O   O19       1.0  0.7370846110177993  0.5804773407462918  0.9078676460549104  1.0000
  O   O20       1.0  0.7629283885803984  0.0804742152279303  0.0921364498996482  1.0000
  O   O21       1.0  0.7370873092614401  0.5804755866355578  0.5921282579905238  1.0000
  O   O22       1.0  0.7629310868240322  0.0804750922833009  0.4078655980776347  1.0000
  O   O23       1.0  0.262920907430086  0.4195210167921246  0.09213440192236533  1.0000
  O   O24       1.0  0.23706903513657804  0.9195258964212201  0.9078649154185356  1.0000
  O   O25       1.0  0.5396918994528617  0.3601662948091189  0.3643098999221763  1.0000
  O   O26       1.0  0.9603008633180534  0.8601720514935848  0.6356921480551065  1.0000
  O   O27       1.0  0.4603041751422978  0.6398355709507584  0.8643064866267096  1.0000
  O   O28       1.0  0.039695211277098984  0.1398263060448315  0.1356921480551065  1.0000
  O   O29       1.0  0.4603055242641148  0.6398364480061289  0.6356928307141985  1.0000
  O   O30       1.0  0.039699258642556884  0.1398280601555655  0.3643051213085187  1.0000
  O   O31       1.0  0.5396945976964955  0.3601662948091189  0.135698291986948  1.0000
  O   O32       1.0  0.9602995141962365  0.8601729285489483  0.8643071692858015  1.0000
  O   O33       1.0  0.09794219668571458  0.5852634318857284  0.6439850907253941  1.0000
  O   O34       1.0  0.402063935342781  0.0852620604781009  0.3560162745927968  1.0000
  O   O35       1.0  0.9020660200058117  0.414736679763422  0.143986456043578  1.0000
  O   O36       1.0  0.5979402339832942  0.9147354200049449  0.8560155919336978  1.0000
  O   O37       1.0  0.9020579252748959  0.4147375568187925  0.3560162745927968  1.0000
  O   O38       1.0  0.5979415831051113  0.9147336658942108  0.6439823600890193  1.0000
  O   O39       1.0  0.09793949844207357  0.5852625548303578  0.856014909274606  1.0000
  O   O40       1.0  0.4020531423682242  0.0852655686995689  0.1439816774299274  1.0000
