data_image0
_chemical_formula_structural       Zn2H22C20N2O14
_chemical_formula_sum              "Zn2 H22 C20 N2 O14"
_cell_length_a       6.270140012230315
_cell_length_b       9.938330174281313
_cell_length_c       10.445384507130965
_cell_angle_alpha    90.00073304889462
_cell_angle_beta     110.96906818291384
_cell_angle_gamma    89.99933239970811

_space_group_name_H-M_alt    "P 1"
_space_group_IT_number       1

loop_
  _space_group_symop_operation_xyz
  'x, y, z'

loop_
  _atom_site_type_symbol
  _atom_site_label
  _atom_site_symmetry_multiplicity
  _atom_site_fract_x
  _atom_site_fract_y
  _atom_site_fract_z
  _atom_site_occupancy
  Zn  Zn1       1.0  0.7796841278683644  0.7349288986958411  0.6407267555039697  1.0000
  Zn  Zn2       1.0  0.22029965432497534  0.23493198071927424  0.3592661644312187  1.0000
  H   H1        1.0  0.0352359000850555  0.1841092997557823  0.0027424178632387028  1.0000
  H   H2        1.0  0.9647445687840062  0.6841268619802817  0.997260740543581  1.0000
  H   H3        1.0  0.5584920062418917  0.0327147880627763  0.7306393085224272  1.0000
  H   H4        1.0  0.4415047498114717  0.5327250336908804  0.2693546624113949  1.0000
  H   H5        1.0  0.12870417286772806  0.264620434320797  0.713735908941139  1.0000
  H   H6        1.0  0.8713230774797225  0.7646307041537597  0.28628925260025545  1.0000
  H   H7        1.0  0.2296431077691992  0.30389021397947147  0.892537634642153  1.0000
  H   H8        1.0  0.7703479888662913  0.803902287903675  0.10748976908994488  1.0000
  H   H9        1.0  0.0466128632386713  0.41775910632105  0.7687759308276442  1.0000
  H   H10       1.0  0.9533874652114064  0.9177648111865436  0.23125057976596256  1.0000
  H   H11       1.0  0.8047616983162484  0.178580424442643  0.1446459375428405  1.0000
  H   H12       1.0  0.19524455980790387  0.6786156532829749  0.8553632580577926  1.0000
  H   H13       1.0  0.17556608481348954  0.954343448456086  0.991851301668774  1.0000
  H   H14       1.0  0.8244291107804926  0.4543527203400544  0.008131805372883662  1.0000
  H   H15       1.0  0.43211281727902656  0.815322711854186  0.43893643906331903  1.0000
  H   H16       1.0  0.5679064476647327  0.3153005864979264  0.5610590334254655  1.0000
  H   H17       1.0  0.40929936571247083  0.8687989292578062  0.577254175412044  1.0000
  H   H18       1.0  0.5906900132903415  0.368801092803558  0.4227408351530642  1.0000
  H   H19       1.0  0.8823382787252501  0.5465229657464405  0.4860192305900953  1.0000
  H   H20       1.0  0.1176648135005394  0.046518072171664905  0.5139730103948211  1.0000
  H   H21       1.0  0.1084826089205393  0.6174453482365293  0.5932801922894413  1.0000
  H   H22       1.0  0.8915173930586987  0.11743340043486222  0.40671478931093935  1.0000
  C   C1        1.0  0.17090968756987485  0.9156152952812492  0.7351173479651152  1.0000
  C   C2        1.0  0.8290865688176937  0.41561313134904737  0.2648691062272022  1.0000
  C   C3        1.0  0.3525926189912881  0.983600775258033  0.8514200381899429  1.0000
  C   C4        1.0  0.6474039689984393  0.4836112599606963  0.14856888770112422  1.0000
  C   C5        1.0  0.5408540047598578  0.0407993963152151  0.8299705431383942  1.0000
  C   C6        1.0  0.4591528673647787  0.5408111500224775  0.17002630771981594  1.0000
  C   C7        1.0  0.7032285446657555  0.11152870899185528  0.9363182003157392  1.0000
  C   C8        1.0  0.29675811303336264  0.611544233538723  0.0636770870336676  1.0000
  C   C9        1.0  0.8716128223034901  0.24563778035670944  0.8012159175512182  1.0000
  C   C10       1.0  0.12839019845279856  0.7456502400410585  0.19879218478089908  1.0000
  C   C11       1.0  0.083638250829722  0.31144678689154387  0.7959850489460081  1.0000
  C   C12       1.0  0.9163577941566318  0.811461936461427  0.20404327020057889  1.0000
  C   C13       1.0  0.6798105127384275  0.12124096457498719  0.06388924694963556  1.0000
  C   C14       1.0  0.32018928438405675  0.6212688446816231  0.9361037525426285  1.0000
  C   C15       1.0  0.4897169328619526  0.06646228149399039  0.0847052471692749  1.0000
  C   C16       1.0  0.5102845269861191  0.5664758009481472  0.9152951590936027  1.0000
  C   C17       1.0  0.32614075573366824  0.996631389718438  0.9784520765992327  1.0000
  C   C18       1.0  0.6738366992975813  0.4966504173276292  0.02153206168370051  1.0000
  C   C19       1.0  0.4542290155781997  0.10057903294286058  0.2153994093836431  1.0000
  C   C20       1.0  0.5457781399271369  0.6006039142872196  0.7845961283762436  1.0000
  N   N1        1.0  0.8888765508696963  0.17783352867776608  0.9176793447689918  1.0000
  N   N2        1.0  0.1111306076180867  0.6778602848527555  0.08234440094618381  1.0000
  O   O1        1.0  0.006231444594945401  0.8632837244072318  0.7633807246443923  1.0000
  O   O2        1.0  0.9937665951200998  0.3632832570783791  0.2366160168243213  1.0000
  O   O3        1.0  0.18484725895280726  0.9125211562465406  0.6167116597278124  1.0000
  O   O4        1.0  0.8151457718498419  0.4125241391564458  0.38327610100857623  1.0000
  O   O5        1.0  0.6844138269396042  0.2518009201182706  0.7040786126864235  1.0000
  O   O6        1.0  0.3155982348529989  0.7518282073727818  0.2959139718976616  1.0000
  O   O7        1.0  0.2446528579446934  0.1306430508678176  0.20052478102420682  1.0000
  O   O8        1.0  0.7553434878097108  0.6306254429201985  0.7994703531651126  1.0000
  O   O9        1.0  0.5250053683339644  0.8504887971701149  0.533662565587136  1.0000
  O   O10       1.0  0.4750016750131749  0.3504762979704736  0.466338897633932  1.0000
  O   O11       1.0  0.6166374858998721  0.10808253465226866  0.3277649275251804  1.0000
  O   O12       1.0  0.38336284722520725  0.6080999142972275  0.6722320988643204  1.0000
  O   O13       1.0  0.9399310611976264  0.6292699721115155  0.5419475404257881  1.0000
  O   O14       1.0  0.0600664928204253  0.12926164324839107  0.4580392179852382  1.0000
