data_image0
_chemical_formula_structural       Ag4H20C24N16O4
_chemical_formula_sum              "Ag4 H20 C24 N16 O4"
_cell_length_a       5.133708416495119
_cell_length_b       10.078101167923235
_cell_length_c       13.52435186453488
_cell_angle_alpha    89.99910158166111
_cell_angle_beta     97.79789082681268
_cell_angle_gamma    90.0007785771868

_space_group_name_H-M_alt    "P 1"
_space_group_IT_number       1

loop_
  _space_group_symop_operation_xyz
  'x, y, z'

loop_
  _atom_site_type_symbol
  _atom_site_label
  _atom_site_symmetry_multiplicity
  _atom_site_fract_x
  _atom_site_fract_y
  _atom_site_fract_z
  _atom_site_occupancy
  Ag  Ag1       1.0  0.17873409671106794  0.9488142557986945  0.9273330036532598  1.0000
  Ag  Ag2       1.0  0.8212694038319481  0.4488269212312374  0.5726649327267523  1.0000
  Ag  Ag3       1.0  0.8212826306266974  0.051184743655476005  0.0726725207872718  1.0000
  Ag  Ag4       1.0  0.17874660785190596  0.5511839854186746  0.4273250295862141  1.0000
  H   H1        1.0  0.19272656240987368  0.1215141255409122  0.721191091765867  1.0000
  H   H2        1.0  0.8073016900682004  0.6215067124713585  0.7788287892657165  1.0000
  H   H3        1.0  0.8072823358641726  0.8784858661551028  0.2788148200352367  1.0000
  H   H4        1.0  0.19267324410476053  0.37848831812024036  0.2211637625559746  1.0000
  H   H5        1.0  0.7242447669183107  0.5454103486826015  0.1039930771030697  1.0000
  H   H6        1.0  0.2757322152587491  0.04543438385915271  0.39602584162315685  1.0000
  H   H7        1.0  0.27575985870547726  0.4545836896021028  0.8960052473598381  1.0000
  H   H8        1.0  0.7242588886560098  0.9545685846165315  0.6039770512154945  1.0000
  H   H9        1.0  0.8180539866884329  0.6517860328649618  0.9565023159213553  1.0000
  H   H10       1.0  0.18195355343964784  0.1517839097168121  0.5435052555421933  1.0000
  H   H11       1.0  0.1819623316609409  0.3482179279503015  0.0434943158815813  1.0000
  H   H12       1.0  0.8180311078040176  0.8482269969079397  0.4564855151759204  1.0000
  H   H13       1.0  0.5062501063807899  0.6719939812401918  0.8815889902947589  1.0000
  H   H14       1.0  0.49374289547433386  0.17198139016637978  0.6184229135760262  1.0000
  H   H15       1.0  0.493742861099136  0.3280109717634403  0.11841176780362869  1.0000
  H   H16       1.0  0.5062264826781089  0.8280324930925005  0.3815767834274624  1.0000
  H   H17       1.0  0.6890141655805238  0.8136987946791694  0.9256025064365757  1.0000
  H   H18       1.0  0.31099363172845057  0.31368710735150535  0.574414644388618  1.0000
  H   H19       1.0  0.31099469892786397  0.18631508853165  0.07440266426216618  1.0000
  H   H20       1.0  0.6889814049305938  0.6863168534665149  0.4255801305553248  1.0000
  C   C1        1.0  0.04321375292870751  0.16473897463137632  0.7604889437911241  1.0000
  C   C2        1.0  0.9568104632293383  0.6647376337758147  0.7395266509404124  1.0000
  C   C3        1.0  0.9568028037854361  0.8352530791153755  0.2395128754166649  1.0000
  C   C4        1.0  0.0431707774795598  0.335259381207159  0.2604750587590701  1.0000
  C   C5        1.0  0.44929290636773794  0.6119880490584182  0.19972887506533243  1.0000
  C   C6        1.0  0.5506498546124021  0.11201371156465713  0.3002878772947142  1.0000
  C   C7        1.0  0.5507238205503384  0.38799308988839704  0.8002766494404412  1.0000
  C   C8        1.0  0.44933945392134667  0.8879872723649027  0.6997186323874373  1.0000
  C   C9        1.0  0.5705141234728827  0.6176569303621734  0.1111642424103465  1.0000
  C   C10       1.0  0.42946567421527254  0.11767236107713332  0.38884155071402654  1.0000
  C   C11       1.0  0.4294831503996406  0.3823390922875589  0.8888448441322226  1.0000
  C   C12       1.0  0.5705605412688327  0.8823306074688945  0.611157005305067  1.0000
  C   C13       1.0  0.5037725136716844  0.7108489818597192  0.03645659282792481  1.0000
  C   C14       1.0  0.4962451500860609  0.21085371155043486  0.4635515048496188  1.0000
  C   C15       1.0  0.4962401116161175  0.2891500176401536  0.9635450495107776  1.0000
  C   C16       1.0  0.5037574756741847  0.7891413189938918  0.5364459901361869  1.0000
  C   C17       1.0  0.8055368645028763  0.197715362218716  0.8764986938810111  1.0000
  C   C18       1.0  0.19448225385651338  0.6977081930431623  0.6235000915805813  1.0000
  C   C19       1.0  0.19447579478374166  0.8022796682704365  0.1235036895238082  1.0000
  C   C20       1.0  0.8055202016531736  0.3022957678002811  0.37649369811449424  1.0000
  C   C21       1.0  0.638634386974708  0.7118569219984822  0.9453834083571308  1.0000
  C   C22       1.0  0.36137024920732586  0.21185073100623694  0.5546271643006122  1.0000
  C   C23       1.0  0.3613607507825378  0.2881450541992692  0.0546218844837227  1.0000
  C   C24       1.0  0.638616445968644  0.7881581910993845  0.4453651769498562  1.0000
  N   N1        1.0  0.9994289319494668  0.1192743994426664  0.8515271821178275  1.0000
  N   N2        1.0  0.000586943316776005  0.6192713893549707  0.6484818100048386  1.0000
  N   N3        1.0  0.0005957266349909993  0.8807196387407644  0.14848017813149988  1.0000
  N   N4        1.0  0.9994035126852336  0.3807246335405168  0.35150700287834274  1.0000
  N   N5        1.0  0.8944329242740281  0.26651692473330973  0.7256913793691239  1.0000
  N   N6        1.0  0.105605699368553  0.7665129092929774  0.7743194676916757  1.0000
  N   N7        1.0  0.10556604270325919  0.7334810824898098  0.2743118671750722  1.0000
  N   N8        1.0  0.8943931995877888  0.23349204370117602  0.22568229672391024  1.0000
  N   N9        1.0  0.7433793110158502  0.28755660528616295  0.8002468124130075  1.0000
  N   N10       1.0  0.2566777890249341  0.7875535763705059  0.6997602304379242  1.0000
  N   N11       1.0  0.25663938204674247  0.7124394174166541  0.199758800460252  1.0000
  N   N12       1.0  0.7433169395107554  0.2124434386842537  0.30023616980157897  1.0000
  N   N13       1.0  0.3136748588244912  0.8044626957717469  0.0412175862803963  1.0000
  N   N14       1.0  0.6863332391498317  0.3044627660348311  0.4587847623104864  1.0000
  N   N15       1.0  0.6863360734518124  0.19553828815637084  0.9587898960421839  1.0000
  N   N16       1.0  0.31366589838112446  0.6955392101444886  0.541222189477331  1.0000
  O   O1        1.0  0.491948187311003  0.5327044045135024  0.2707994948905181  1.0000
  O   O2        1.0  0.5079464751484578  0.032729787620446905  0.22919143664702799  1.0000
  O   O3        1.0  0.508032473622677  0.4672836803702862  0.7291896169639926  1.0000
  O   O4        1.0  0.49202642527873036  0.9672751654935471  0.7707995446133181  1.0000
