data_image0
_chemical_formula_structural       Zn2H11C24N2Cl3O12
_chemical_formula_sum              "Zn2 H11 C24 N2 Cl3 O12"
_cell_length_a       9.845484459169404
_cell_length_b       10.972732909332594
_cell_length_c       14.00027234732796
_cell_angle_alpha    95.85027238332921
_cell_angle_beta     99.28777758252966
_cell_angle_gamma    94.16959782069306

_space_group_name_H-M_alt    "P 1"
_space_group_IT_number       1

loop_
  _space_group_symop_operation_xyz
  'x, y, z'

loop_
  _atom_site_type_symbol
  _atom_site_label
  _atom_site_symmetry_multiplicity
  _atom_site_fract_x
  _atom_site_fract_y
  _atom_site_fract_z
  _atom_site_occupancy
  Zn  Zn1       1.0  0.3605909513130073  0.4801346322626826  0.4934731397853793  1.0000
  Zn  Zn2       1.0  0.6542740451031364  0.5080103379351328  0.5108467399696791  1.0000
  H   H1        1.0  0.3642863729019084  0.43821168632975105  0.9677305835386958  1.0000
  H   H2        1.0  0.723844213938129  0.7959710349018106  0.4581883466264428  1.0000
  H   H3        1.0  0.1462867231656446  0.09549303235861122  0.4455098572792622  1.0000
  H   H4        1.0  0.1756666742869797  0.4556425203900005  0.6406079744681534  1.0000
  H   H5        1.0  0.09527456734659978  0.5953549953598197  0.29237655458821615  1.0000
  H   H6        1.0  0.059556073322767106  0.4311762668537255  0.2645095541132818  1.0000
  H   H7        1.0  0.6570281624228116  0.5720961077511291  0.032355838071573786  1.0000
  H   H8        1.0  0.2532208003125048  0.8670328205041568  0.6140206063317847  1.0000
  H   H9        1.0  0.2807989610379664  0.09705006837391043  0.6392574273557727  1.0000
  H   H10       1.0  0.7070373413486237  0.42577172756087117  0.28945302921265886  1.0000
  H   H11       1.0  0.8138534921898711  0.062299487312017704  0.4614082909323755  1.0000
  C   C1        1.0  0.5162770651447204  0.26485436437258864  0.5090421215364458  1.0000
  C   C2        1.0  0.26650256681133305  0.06075622531132301  0.5617020586749888  1.0000
  C   C3        1.0  0.9203468204065217  0.5125781364708928  0.4257299992809536  1.0000
  C   C4        1.0  0.4671731678669459  0.46268507971110745  0.3078804340091849  1.0000
  C   C5        1.0  0.9621973514422493  0.48210514675908905  0.5835005204874333  1.0000
  C   C6        1.0  0.1020341256639767  0.4711085904853504  0.5770605642120258  1.0000
  C   C7        1.0  0.057648717192165605  0.4999925705903791  0.4181424839932006  1.0000
  C   C8        1.0  0.040634071294896004  0.5127556821091944  0.3109029610332428  1.0000
  C   C9        1.0  0.8818106169116647  0.5224816257416903  0.3157740489137026  1.0000
  C   C10       1.0  0.5080103440218052  0.7279311014563133  0.492719980510003  1.0000
  C   C11       1.0  0.5274785494239183  0.5343058713051789  0.6894723213153995  1.0000
  C   C12       1.0  0.4579021881265462  0.46215505270222934  0.20414395696915474  1.0000
  C   C13       1.0  0.5464936467846045  0.5425281267634572  0.7944059435703392  1.0000
  C   C14       1.0  0.5638015455121277  0.5324136480244235  0.9823193624009079  1.0000
  C   C15       1.0  0.4571923244437102  0.477352983083449  0.018389247124929394  1.0000
  C   C16       1.0  0.45887607740032615  0.4692937704117385  0.11779164247091957  1.0000
  C   C17       1.0  0.5567278866288133  0.5394570395318892  0.8821900498710986  1.0000
  C   C18       1.0  0.40259625913585506  0.05520745690289892  0.5225508166870226  1.0000
  C   C19       1.0  0.518755237885209  0.1294827087311461  0.5081209591288882  1.0000
  C   C20       1.0  0.6324732070053186  0.0666517104265338  0.48859995609402057  1.0000
  C   C21       1.0  0.6266422819271115  0.9353211988092834  0.4824005439838288  1.0000
  C   C22       1.0  0.5096258258419867  0.8626994118746579  0.49723450315364903  1.0000
  C   C23       1.0  0.39811892313889535  0.9282549712486059  0.5173872752740252  1.0000
  C   C24       1.0  0.25976658356380966  0.9132345457363941  0.5488530837176738  1.0000
  N   N1        1.0  0.8672473306737487  0.5046679234181609  0.5069861564867253  1.0000
  N   N2        1.0  0.15145732161599307  0.4801269062644947  0.4933510605314453  1.0000
  Cl  Cl1       1.0  0.8283400481681937  0.6751540586702945  0.292545305016489  1.0000
  Cl  Cl2       1.0  0.11847756190295662  0.8418973418885969  0.45748261469029927  1.0000
  Cl  Cl3       1.0  0.9115890390254933  0.4658018940660184  0.6922941025988648  1.0000
  O   O1        1.0  0.39821598949777853  0.3022576383936837  0.4814305905770765  1.0000
  O   O2        1.0  0.7507096196455052  0.1258478275515316  0.4721514158194963  1.0000
  O   O3        1.0  0.7421755786969725  0.8879751783697426  0.4605075685037646  1.0000
  O   O4        1.0  0.155467314861383  0.11881650691350387  0.5154762854642099  1.0000
  O   O5        1.0  0.6293373355858733  0.3326559510009304  0.5365114604819395  1.0000
  O   O6        1.0  0.35978446673162523  0.48179689646724455  0.3441672429484938  1.0000
  O   O7        1.0  0.5858309301683278  0.44500137117466204  0.3557712121226046  1.0000
  O   O8        1.0  0.40083588034821827  0.6677036081168949  0.5081110348672125  1.0000
  O   O9        1.0  0.6184866175132768  0.679198104092187  0.4735597374544723  1.0000
  O   O10       1.0  0.40862847454633316  0.4888008078615086  0.6443797320826333  1.0000
  O   O11       1.0  0.6296929992206658  0.5710210997394397  0.6511443365758182  1.0000
  O   O12       1.0  0.7960045000061059  0.42942214702505027  0.2617131689276632  1.0000
