data_image0
_chemical_formula_structural       Zn2H14C26N4O8
_chemical_formula_sum              "Zn2 H14 C26 N4 O8"
_cell_length_a       11.94381237223493
_cell_length_b       11.809872887908634
_cell_length_c       13.137815016949304
_cell_angle_alpha    85.85579282466779
_cell_angle_beta     89.67296175082166
_cell_angle_gamma    85.45389458731663

_space_group_name_H-M_alt    "P 1"
_space_group_IT_number       1

loop_
  _space_group_symop_operation_xyz
  'x, y, z'

loop_
  _atom_site_type_symbol
  _atom_site_label
  _atom_site_symmetry_multiplicity
  _atom_site_fract_x
  _atom_site_fract_y
  _atom_site_fract_z
  _atom_site_occupancy
  Zn  Zn1       1.0  0.4892537680729846  0.6180265255499007  0.501891605873368  1.0000
  Zn  Zn2       1.0  0.5070671715076857  0.3825100630776745  0.4975572283069951  1.0000
  H   H1        1.0  0.48170557089832766  0.35934831061964456  0.1790670371905279  1.0000
  H   H2        1.0  0.517995535397354  0.22916412747824202  0.0949706153812073  1.0000
  H   H3        1.0  0.5520251813271175  0.8191117008677364  0.022809561231802913  1.0000
  H   H4        1.0  0.5725376446578923  0.7575967369993534  0.9117446725286554  1.0000
  H   H5        1.0  0.6010895640079639  0.8124530225368858  0.4082335821181715  1.0000
  H   H6        1.0  0.394002360213115  0.18815186860209818  0.5904429209311388  1.0000
  H   H7        1.0  0.5194387493240386  0.6422775436661468  0.8205309889086079  1.0000
  H   H8        1.0  0.5090061864006474  0.7175216947409238  0.17908377094817496  1.0000
  H   H9        1.0  0.5108832093609408  0.28136659862356334  0.8208106190041418  1.0000
  H   H10       1.0  0.3500843566158879  0.7780107085033091  0.624124108269193  1.0000
  H   H11       1.0  0.6475836469395091  0.22227141115877197  0.37716180454430054  1.0000
  H   H12       1.0  0.6683583307720369  0.011583661138359999  0.35387380881807207  1.0000
  H   H13       1.0  0.32853288654769136  0.9887083881496607  0.6465403875474464  1.0000
  H   H14       1.0  0.513634441929874  0.17176866350103379  0.9807180076128859  1.0000
  C   C1        1.0  0.5145470474199811  0.47389154827535396  0.6978744330771534  1.0000
  C   C2        1.0  0.5373746938722377  0.9754434335111808  0.465114499340018  1.0000
  C   C3        1.0  0.2782413071197283  0.495913712992511  0.5146280303396792  1.0000
  C   C4        1.0  0.7187357608708  0.5026210706038156  0.4854360639416625  1.0000
  C   C5        1.0  0.1570968102599011  0.4966850091900524  0.5122091006011757  1.0000
  C   C6        1.0  0.8399190269241644  0.50046003610786  0.4889860637210076  1.0000
  C   C7        1.0  0.05489565742195171  0.4974286477278583  0.5050720419698749  1.0000
  C   C8        1.0  0.9421465823049573  0.49886701244901116  0.49669579550089776  1.0000
  C   C9        1.0  0.4942366476145993  0.536474586672007  0.1875810074296567  1.0000
  C   C10       1.0  0.5149845798983606  0.46386355631391735  0.8120165205677524  1.0000
  C   C11       1.0  0.5034049016512868  0.34550861173071457  0.9706195944387445  1.0000
  C   C12       1.0  0.4868214564096363  0.5274796130854114  0.3015200583739315  1.0000
  C   C13       1.0  0.5176478047316593  0.6528521411130866  0.029550606271904194  1.0000
  C   C14       1.0  0.510469146108882  0.3561981610382715  0.8648936783066147  1.0000
  C   C15       1.0  0.5069121102265657  0.6429858167622484  0.1349441334672505  1.0000
  C   C16       1.0  0.5173776032865051  0.5610727917497866  0.8650041400359355  1.0000
  C   C17       1.0  0.4927397872341431  0.43912791830763337  0.1346592285265018  1.0000
  C   C18       1.0  0.5132367879537797  0.5537861814013708  0.9725594401489486  1.0000
  C   C19       1.0  0.5029119079669898  0.4452742970492237  0.027442901979796402  1.0000
  C   C20       1.0  0.6068288928513328  0.0472044100178763  0.4068235329583699  1.0000
  C   C21       1.0  0.3894736119470395  0.9532493767947086  0.5930130973885354  1.0000
  C   C22       1.0  0.5961105731867493  0.16227122895713816  0.41873210825905716  1.0000
  C   C23       1.0  0.40054139058239724  0.8380852976188676  0.5814172911447739  1.0000
  C   C24       1.0  0.4536038924284043  0.14468927930079187  0.5400745462348339  1.0000
  C   C25       1.0  0.5419901552718402  0.8559061314553984  0.4590567139026973  1.0000
  C   C26       1.0  0.4583684989707992  0.0250855708612789  0.5341898814648687  1.0000
  N   N1        1.0  0.47601112253718003  0.7911478731190511  0.51485960237612  1.0000
  N   N2        1.0  0.520024982434471  0.209352061951364  0.4846920877334354  1.0000
  N   N3        1.0  0.4919984704635781  0.23983038405521737  0.021405261141737197  1.0000
  N   N4        1.0  0.528583453076955  0.7586625529136767  0.9780288492497105  1.0000
  O   O1        1.0  0.504861589372162  0.5742366811353249  0.6540303042370964  1.0000
  O   O2        1.0  0.48527497218452004  0.42779741427015944  0.34591165010269975  1.0000
  O   O3        1.0  0.5226403549570052  0.3819656187470812  0.6518994637912028  1.0000
  O   O4        1.0  0.4840478152665284  0.6196792172213604  0.3469580881550839  1.0000
  O   O5        1.0  0.3184603742326503  0.5927886884637485  0.5121650703419361  1.0000
  O   O6        1.0  0.6775718447239998  0.40696341385777396  0.4799054734948028  1.0000
  O   O7        1.0  0.33274984460780405  0.3986144428729401  0.5176480480154524  1.0000
  O   O8        1.0  0.6651205819467237  0.5997178271475647  0.489484012961384  1.0000
