data_image0
_chemical_formula_structural       Cd4H56C32N8O24
_chemical_formula_sum              "Cd4 H56 C32 N8 O24"
_cell_length_a       8.084964161000128
_cell_length_b       10.503390039040905
_cell_length_c       15.077297977059239
_cell_angle_alpha    89.99967980992105
_cell_angle_beta     89.99999550427152
_cell_angle_gamma    90.00001994269496

_space_group_name_H-M_alt    "P 1"
_space_group_IT_number       1

loop_
  _space_group_symop_operation_xyz
  'x, y, z'

loop_
  _atom_site_type_symbol
  _atom_site_label
  _atom_site_symmetry_multiplicity
  _atom_site_fract_x
  _atom_site_fract_y
  _atom_site_fract_z
  _atom_site_occupancy
  Cd  Cd1       1.0  0.16777441692856596  0.25000015197934994  0.5000002418477008  1.0000
  Cd  Cd2       1.0  0.33222543718326136  0.7499995885320131  0.9999999986468209  1.0000
  Cd  Cd3       1.0  0.8322252180728285  0.7499997630923118  0.500000584759462  1.0000
  Cd  Cd4       1.0  0.667775358243844  0.2500001113759751  0.9999996356383458  1.0000
  H   H1        1.0  0.47951727289540697  0.12316527757830899  0.4194276892919787  1.0000
  H   H2        1.0  0.020487547755941204  0.6231661015644786  0.08057290926230819  1.0000
  H   H3        1.0  0.4795173179322417  0.37683510990324004  0.5805721186246088  1.0000
  H   H4        1.0  0.020486304125569198  0.8768341592205998  0.9194276296324798  1.0000
  H   H5        1.0  0.5204835989699461  0.8768346374988596  0.5805718108175384  1.0000
  H   H6        1.0  0.9795182715648635  0.3768338135133502  0.9194265908471092  1.0000
  H   H7        1.0  0.5204847907971412  0.6231657572449903  0.4194280447318447  1.0000
  H   H8        1.0  0.9795170414676235  0.12316670792512237  0.08057319697277168  1.0000
  H   H9        1.0  0.6972745641667757  0.045132655080081484  0.3573417781155895  1.0000
  H   H10       1.0  0.8027272328115771  0.5451330550832978  0.14265843993379684  1.0000
  H   H11       1.0  0.6972746349983083  0.45486779074161626  0.6426580210485963  1.0000
  H   H12       1.0  0.8027272708228707  0.9548674152746552  0.8573420675200933  1.0000
  H   H13       1.0  0.3027263076985776  0.95486725999708  0.6426577219939273  1.0000
  H   H14       1.0  0.19727487591764256  0.45486685999403403  0.8573410601756917  1.0000
  H   H15       1.0  0.3027262368669952  0.5451321243328805  0.35734214230973277  1.0000
  H   H16       1.0  0.19727483790624936  0.04513249979734009  0.14265875908702694  1.0000
  H   H17       1.0  0.8556859310699139  0.160236555346458  0.3351784292116092  1.0000
  H   H18       1.0  0.6443171548221898  0.6602376866378419  0.16482134212567695  1.0000
  H   H19       1.0  0.8556884201910719  0.33976298084523643  0.6648207003384667  1.0000
  H   H20       1.0  0.6443183810354468  0.8397627412773755  0.8351798349440427  1.0000
  H   H21       1.0  0.14431246706760698  0.8397624076621497  0.6648197444021731  1.0000
  H   H22       1.0  0.3556861907711024  0.3397631805132235  0.8351781579819428  1.0000
  H   H23       1.0  0.14431616226586644  0.6602369342324294  0.3351787997709719  1.0000
  H   H24       1.0  0.3556862014213422  0.16023717379228228  0.16482165491184017  1.0000
  H   H25       1.0  0.7297496827993228  0.10077609317459488  0.24641595835986144  1.0000
  H   H26       1.0  0.7702521393409326  0.6007765439425582  0.2535833804920955  1.0000
  H   H27       1.0  0.7297497115109832  0.3992234092794006  0.7535825130032519  1.0000
  H   H28       1.0  0.7702521691482288  0.8992239177175421  0.7464164650182707  1.0000
  H   H29       1.0  0.2702499522022705  0.899223821907739  0.7535822152520523  1.0000
  H   H30       1.0  0.2297499693885072  0.39922432320833673  0.7464161196155527  1.0000
  H   H31       1.0  0.2702511603542063  0.6007755537268692  0.24641632385929305  1.0000
  H   H32       1.0  0.2297499395808842  0.10077599735445385  0.25358436158884956  1.0000
  H   H33       1.0  0.5386060452541058  0.4135929646812427  0.29655431252560743  1.0000
  H   H34       1.0  0.9613946814774152  0.9135938701208488  0.20344447555263653  1.0000
  H   H35       1.0  0.5386059401760689  0.08640839070453407  0.7034454930141578  1.0000
  H   H36       1.0  0.9613957990285583  0.5864075948226599  0.7965553622731887  1.0000
  H   H37       1.0  0.46139358974760103  0.5864079024693182  0.7034451875820832  1.0000
  H   H38       1.0  0.03860742725213131  0.08640794909827319  0.7965563510507889  1.0000
  H   H39       1.0  0.4613936948253752  0.9135915243697993  0.29655467034419997  1.0000
  H   H40       1.0  0.03860630970039129  0.413591368178437  0.20344480108695953  1.0000
  H   H41       1.0  0.6518161821140892  0.33013169177434776  0.21282925818218953  1.0000
  H   H42       1.0  0.8481845068760093  0.8301309410765895  0.2871705170557774  1.0000
  H   H43       1.0  0.6518161019774026  0.16986969393930446  0.7871712060560865  1.0000
  H   H44       1.0  0.8481856749685476  0.6698704935337075  0.7128299885691617  1.0000
  H   H45       1.0  0.34818468975138467  0.6698691753710475  0.7871715684231047  1.0000
  H   H46       1.0  0.1518176018532102  0.16986897400074236  0.7128289830537111  1.0000
  H   H47       1.0  0.3481847698879079  0.8301302211351922  0.21282895730224272  1.0000
  H   H48       1.0  0.15181643376077858  0.3301303736118583  0.2871708380361112  1.0000
  H   H49       1.0  0.7574171516850042  0.3921903323751009  0.30845303338067953  1.0000
  H   H50       1.0  0.7425835653678731  0.8921893707929126  0.19154583776339246  1.0000
  H   H51       1.0  0.7574170581041811  0.1078110816304942  0.6915474266131408  1.0000
  H   H52       1.0  0.7425859276426863  0.607811083454706  0.8084540088590157  1.0000
  H   H53       1.0  0.24258372018051938  0.6078105347729589  0.6915471299758023  1.0000
  H   H54       1.0  0.2574160696333577  0.10780959220785036  0.8084543255968125  1.0000
  H   H55       1.0  0.24258381376090912  0.8921878813704394  0.30845273674704277  1.0000
  H   H56       1.0  0.25741618108664005  0.3921897836908527  0.19154681774625704  1.0000
  C   C1        1.0  0.4872328534576055  0.21763871419780395  0.3876651833656694  1.0000
  C   C2        1.0  0.012768299323255398  0.717641184677127  0.11233438529149707  1.0000
  C   C3        1.0  0.48723285091810453  0.2823616753535134  0.6123339609919893  1.0000
  C   C4        1.0  0.0127682546911458  0.7823600261135936  0.8876661539116809  1.0000
  C   C5        1.0  0.5127667815438883  0.7823612008791939  0.6123343167438687  1.0000
  C   C6        1.0  0.9872288619507827  0.2823596824757785  0.8876644515674311  1.0000
  C   C7        1.0  0.5127680209474618  0.717639191797218  0.38766553911568014  1.0000
  C   C8        1.0  0.9872289065826864  0.2176408410286399  0.11233533594250387  1.0000
  C   C9        1.0  0.047874239552726294  0.9808691046172128  0.4563265446303574  1.0000
  C   C10       1.0  0.45211961107778353  0.4808751052484224  0.04367399218674708  1.0000
  C   C11       1.0  0.04787536534139039  0.5191302114345575  0.5436733299166505  1.0000
  C   C12       1.0  0.45211943691550965  0.019126226966449198  0.9563258168291993  1.0000
  C   C13       1.0  0.9521204479921365  0.0191260500859656  0.5436742819861492  1.0000
  C   C14       1.0  0.547872602742153  0.5191324264107635  0.9563268344057858  1.0000
  C   C15       1.0  0.9521217959335077  0.4808744640126006  0.4563255069348882  1.0000
  C   C16       1.0  0.547874013765167  0.9808670235947682  0.04367368329339879  1.0000
  C   C17       1.0  0.7309840737074252  0.1280079701404659  0.3168482867865449  1.0000
  C   C18       1.0  0.769017760747097  0.6280089873391929  0.18315160962801255  1.0000
  C   C19       1.0  0.7309853377363211  0.3719924847126349  0.6831515110227144  1.0000
  C   C20       1.0  0.7690177674725475  0.8719914739875273  0.8168488991807832  1.0000
  C   C21       1.0  0.26901556129411824  0.8719919449392038  0.6831505500741881  1.0000
  C   C22       1.0  0.2309843479823357  0.371991879811702  0.8168478904796357  1.0000
  C   C23       1.0  0.2690155341289326  0.6280074303591973  0.3168493155844273  1.0000
  C   C24       1.0  0.23098434125656547  0.12800844108446796  0.18315192742633704  1.0000
  C   C25       1.0  0.6422440915469919  0.3492252388342293  0.28416229450747466  1.0000
  C   C26       1.0  0.8577566060777214  0.8492269688600442  0.21583740662488535  1.0000
  C   C27       1.0  0.6422440136812212  0.1507751922440335  0.7158375068685743  1.0000
  C   C28       1.0  0.8577565177659209  0.6507735162436815  0.7841624353683725  1.0000
  C   C29       1.0  0.35775554345466526  0.650775628313667  0.7158378688490359  1.0000
  C   C30       1.0  0.1422455026515621  0.15077389828284987  0.7841640832291998  1.0000
  C   C31       1.0  0.3577556213204857  0.8492256749065346  0.2841619932391167  1.0000
  C   C32       1.0  0.1422455909630358  0.3492254467574156  0.21583772799177575  1.0000
  N   N1        1.0  0.6131567336568365  0.23065189805504355  0.3316186410627536  1.0000
  N   N2        1.0  0.8868439103488868  0.7306521135997881  0.16838218349668205  1.0000
  N   N3        1.0  0.6131567166645766  0.26934852523033465  0.6683811614824149  1.0000
  N   N4        1.0  0.886843868401499  0.769348379294165  0.8316183205762753  1.0000
  N   N5        1.0  0.38684290134487037  0.7693489690955247  0.6683808590449443  1.0000
  N   N6        1.0  0.11315696151636699  0.26934780147204396  0.8316186431104595  1.0000
  N   N7        1.0  0.3868441552005634  0.7306504377732707  0.3316183386289495  1.0000
  N   N8        1.0  0.1131557665999452  0.23065153578016853  0.16838184278208246  1.0000
  O   O1        1.0  0.1469975410356454  0.06156225009743817  0.423151294354298  1.0000
  O   O2        1.0  0.3529948831197132  0.5615603369103894  0.0768495432828402  1.0000
  O   O3        1.0  0.14699885136246138  0.43843900036859645  0.5768491901743287  1.0000
  O   O4        1.0  0.35299614050546063  0.9384381088138197  0.9231503190021753  1.0000
  O   O5        1.0  0.8529971465100344  0.9384367128973281  0.5768501955036314  1.0000
  O   O6        1.0  0.6469985675623632  0.438439578160441  0.9231512833244506  1.0000
  O   O7        1.0  0.8529983099121167  0.5615647229996693  0.4231509731766819  1.0000
  O   O8        1.0  0.6469985470401552  0.061559902115384105  0.07684918111115727  1.0000
  O   O9        1.0  0.0205679739105165  0.8718530009301445  0.4236511406558775  1.0000
  O   O10       1.0  0.4794283011491487  0.37185017729040476  0.0763465030185486  1.0000
  O   O11       1.0  0.020569144000845096  0.6281472598768119  0.5763493982356279  1.0000
  O   O12       1.0  0.4794281812821382  0.1281492580963857  0.9236526416546552  1.0000
  O   O13       1.0  0.9794304242270683  0.12814691414402546  0.5763490227025014  1.0000
  O   O14       1.0  0.520567623260213  0.6281468815707426  0.9236516705989783  1.0000
  O   O15       1.0  0.9794304910007625  0.37185360726842015  0.4236514283696947  1.0000
  O   O16       1.0  0.5205677431280479  0.8718525611192401  0.07634884819771058  1.0000
  O   O17       1.0  0.3830406968352449  0.30403455027516196  0.4039769591402445  1.0000
  O   O18       1.0  0.1169592581487748  0.8040333716275396  0.09602426397392347  1.0000
  O   O19       1.0  0.38304065772145185  0.1959658113616456  0.5960221894052536  1.0000
  O   O20       1.0  0.11695917195670087  0.6959669150037869  0.9039762710433121  1.0000
  O   O21       1.0  0.6169589381661994  0.6959653647991715  0.5960232042181131  1.0000
  O   O22       1.0  0.8830403768521363  0.19596463929432414  0.9039772258857537  1.0000
  O   O23       1.0  0.6169589772800917  0.8040341037180239  0.4039766474554724  1.0000
  O   O24       1.0  0.8830404630454892  0.30403585629657925  0.09602256581187156  1.0000
