data_image0
_chemical_formula_structural       Cu2Ag4Mo2H12C20N8O12F8
_chemical_formula_sum              "Cu2 Ag4 Mo2 H12 C20 N8 O12 F8"
_cell_length_a       7.256265206562844
_cell_length_b       8.141595096231443
_cell_length_c       13.86888745803207
_cell_angle_alpha    89.99913752940296
_cell_angle_beta     93.61900202321279
_cell_angle_gamma    90.00009399770728

_space_group_name_H-M_alt    "P 1"
_space_group_IT_number       1

loop_
  _space_group_symop_operation_xyz
  'x, y, z'

loop_
  _atom_site_type_symbol
  _atom_site_label
  _atom_site_symmetry_multiplicity
  _atom_site_fract_x
  _atom_site_fract_y
  _atom_site_fract_z
  _atom_site_occupancy
  Cu  Cu1       1.0  0.500029186060793  0.4999414753228137  0.5000087418591265  1.0000
  Cu  Cu2       1.0  0.9999894414450023  0.9999787552027468  0.999994912796133  1.0000
  Ag  Ag1       1.0  0.04703402389221619  0.8093904319321724  0.4903662518596336  1.0000
  Ag  Ag2       1.0  0.4529511880531132  0.30937326938644116  0.009635349161733602  1.0000
  Ag  Ag3       1.0  0.9529194788243629  0.1906816709762751  0.5096339083262933  1.0000
  Ag  Ag4       1.0  0.5470548197948659  0.6906668988398296  0.9903608567213241  1.0000
  Mo  Mo1       1.0  0.49996999654912583  0.9999540591703565  0.4999994378351361  1.0000
  Mo  Mo2       1.0  0.9999987505757771  0.4999843337457079  2.7923289423003093e-06  1.0000
  H   H1        1.0  0.8057072708140183  0.7063224392764197  0.8041422275211119  1.0000
  H   H2        1.0  0.6942794374379203  0.2063246655955595  0.6958578750739547  1.0000
  H   H3        1.0  0.19431388230429283  0.2936796527766957  0.19586243320760846  1.0000
  H   H4        1.0  0.3056920205559948  0.7936847960406797  0.3041421846460608  1.0000
  H   H5        1.0  0.25243869428277316  0.593500973484261  0.8343850428724195  1.0000
  H   H6        1.0  0.24755349976031474  0.0935249386830534  0.665606553285983  1.0000
  H   H7        1.0  0.7475687507662128  0.4065600753009876  0.16560111798902002  1.0000
  H   H8        1.0  0.7524469323432326  0.9066036641802457  0.33439883311999813  1.0000
  H   H9        1.0  0.22080007436817786  0.49737337266768816  0.6598444951215825  1.0000
  H   H10       1.0  0.27921443921481176  0.9973984323240476  0.8401500671857605  1.0000
  H   H11       1.0  0.7792445575014851  0.5025820455021374  0.34016025588925913  1.0000
  H   H12       1.0  0.7207667693399812  0.0026098012489157007  0.1598351875208905  1.0000
  C   C1        1.0  0.6578891471575047  0.6077474501539798  0.6766096664735245  1.0000
  C   C2        1.0  0.8421154615085837  0.10776506611583161  0.8233897634711695  1.0000
  C   C3        1.0  0.34215684546216346  0.39220673970960024  0.3233987367595361  1.0000
  C   C4        1.0  0.1578574095332144  0.8922247434261054  0.17660457682070782  1.0000
  C   C5        1.0  0.6747882871558275  0.6605737249883674  0.7722092004620438  1.0000
  C   C6        1.0  0.8252080539374093  0.1605827086690184  0.7277923606891863  1.0000
  C   C7        1.0  0.3252397863893463  0.33941976928026213  0.22779281521798825  1.0000
  C   C8        1.0  0.1747689074136858  0.8394427203099754  0.27221149429104236  1.0000
  C   C9        1.0  0.36837427553750496  0.5983717082025495  0.7882706415226084  1.0000
  C   C10       1.0  0.1316234289895135  0.09839185350202942  0.7117239860946543  1.0000
  C   C11       1.0  0.6316469339145881  0.40165126440906823  0.2117239264798769  1.0000
  C   C12       1.0  0.8683673571426168  0.901681477679759  0.2882774621106848  1.0000
  C   C13       1.0  0.35087352082768325  0.542801493793192  0.6930656556385913  1.0000
  C   C14       1.0  0.14913380222203895  0.042824141057899105  0.8069319590372573  1.0000
  C   C15       1.0  0.6491641865929267  0.4571662069335076  0.3069424613071092  1.0000
  C   C16       1.0  0.8508501358838174  0.9571951467869936  0.19305915824934772  1.0000
  C   C17       1.0  0.8065643745757709  0.6215234066562446  0.6065131256502099  1.0000
  C   C18       1.0  0.6934402227617724  0.12151934134259083  0.8934897873238655  1.0000
  C   C19       1.0  0.19345817549460517  0.3784516637023714  0.3934886992926323  1.0000
  C   C20       1.0  0.30654366705272196  0.8784655550963266  0.10650998094372711  1.0000
  N   N1        1.0  0.4957342159973876  0.5496989921379268  0.6382835146578858  1.0000
  N   N2        1.0  0.0042841463228314005  0.04971878030876552  0.8617165835016183  1.0000
  N   N3        1.0  0.5043186568127354  0.45023800202503844  0.361729452588783  1.0000
  N   N4        1.0  0.995695657216309  0.9502636597369404  0.1382729490288455  1.0000
  N   N5        1.0  0.529397088371418  0.6573327511768526  0.827513058065641  1.0000
  N   N6        1.0  0.9705978939284703  0.1573507494822337  0.6724841585294925  1.0000
  N   N7        1.0  0.47062135934817917  0.34269636273652543  0.17248141450049562  1.0000
  N   N8        1.0  0.0293887093691012  0.8427250381268578  0.3275243555754912  1.0000
  O   O1        1.0  0.764299031056069  0.5641438162538962  0.521361965887465  1.0000
  O   O2        1.0  0.7357083115006517  0.06414500592905632  0.9786379443589228  1.0000
  O   O3        1.0  0.23573729146924186  0.4358091453365986  0.47864682432108213  1.0000
  O   O4        1.0  0.26428112994670977  0.9358411188369402  0.021356968404688804  1.0000
  O   O5        1.0  0.9564287099705663  0.6913915744245712  0.6317041053877902  1.0000
  O   O6        1.0  0.5435690477532944  0.19138300585122886  0.8682943479556046  1.0000
  O   O7        1.0  0.043588360907911294  0.3086461373213538  0.3682895985333516  1.0000
  O   O8        1.0  0.456417583685095  0.8086215427111085  0.13170912014669514  1.0000
  O   O9        1.0  0.25419666289149484  0.03158211138443081  0.5069909006576055  1.0000
  O   O10       1.0  0.2457982855162726  0.5315282796163104  0.9929955704932356  1.0000
  O   O11       1.0  0.7458148765062446  0.9685649155293133  0.4930040537675354  1.0000
  O   O12       1.0  0.7541773794680751  0.4685278560696915  0.006993097695726607  1.0000
  F   F1        1.0  0.44991804648551437  0.7786306870318855  0.451672534819295  1.0000
  F   F2        1.0  0.0500518114562567  0.27866225863300537  0.0483547651912204  1.0000
  F   F3        1.0  0.550051865653387  0.22128542642407473  0.548357034607875  1.0000
  F   F4        1.0  0.9499389505058816  0.7213177246922199  0.9516510088406562  1.0000
  F   F5        1.0  0.514017146462173  0.9235938788618939  0.6319611969708137  1.0000
  F   F6        1.0  0.9859476106680486  0.42364128381618127  0.8680355037388525  1.0000
  F   F7        1.0  0.48593235036717164  0.07622765920869772  0.36801431052411004  1.0000
  F   F8        1.0  0.014054157984538998  0.5762957103015368  0.13197786114406543  1.0000
