data_image0
_chemical_formula_structural       CuSiH12C24Br4N4F6
_chemical_formula_sum              "Cu1 Si1 H12 C24 Br4 N4 F6"
_cell_length_a       8.028617099322705
_cell_length_b       13.74404612843781
_cell_length_c       13.74377960039625
_cell_angle_alpha    89.84263424907957
_cell_angle_beta     91.24708036119601
_cell_angle_gamma    91.23893059738006

_space_group_name_H-M_alt    "P 1"
_space_group_IT_number       1

loop_
  _space_group_symop_operation_xyz
  'x, y, z'

loop_
  _atom_site_type_symbol
  _atom_site_label
  _atom_site_symmetry_multiplicity
  _atom_site_fract_x
  _atom_site_fract_y
  _atom_site_fract_z
  _atom_site_occupancy
  Cu  Cu1       1.0  0.5000460691277909  0.4999937778795171  0.5000236771458475  1.0000
  Si  Si1       1.0  3.4517893468027084e-06  0.49998969191081943  0.5000118633216317  1.0000
  H   H1        1.0  0.2450308856784744  0.6538495138284047  0.4998057306069086  1.0000
  H   H2        1.0  0.23762607919421438  0.8345320219149739  0.4997774680884532  1.0000
  H   H3        1.0  0.764863496971728  0.6576858267675617  0.499994540352276  1.0000
  H   H4        1.0  0.2351744905889532  0.34232547248647893  0.4999978664948657  1.0000
  H   H5        1.0  0.7550107492647768  0.3461246570100229  0.5002187645553775  1.0000
  H   H6        1.0  0.762371527855457  0.16545128574685455  0.5002816633533911  1.0000
  H   H7        1.0  0.2449951082167559  0.49988458215219805  0.6538562502593522  1.0000
  H   H8        1.0  0.2376692961173603  0.4997764698574371  0.8345390604311121  1.0000
  H   H9        1.0  0.7648309150713432  0.5000306840867806  0.6576823394388285  1.0000
  H   H10       1.0  0.2351787644429137  0.5000102846566391  0.3422989345184179  1.0000
  H   H11       1.0  0.7550067270948163  0.5000267632987415  0.34616734790021303  1.0000
  H   H12       1.0  0.7623905065708739  0.5001032238164881  0.16548494628960242  1.0000
  C   C1        1.0  0.359893753465137  0.6974328987370837  0.4998475992402334  1.0000
  C   C2        1.0  0.3567051658387754  0.7981329807057378  0.4998718555216399  1.0000
  C   C3        1.0  0.5066570242976383  0.8533141394582626  0.5000107286000244  1.0000
  C   C4        1.0  0.6559409727668211  0.8007223529261367  0.5001618930800831  1.0000
  C   C5        1.0  0.6508788359758101  0.6993782531229298  0.500016399563826  1.0000
  C   C6        1.0  0.504335616942434  0.9557907584100603  0.5000126714420432  1.0000
  C   C7        1.0  0.4956601858508307  0.0442035059472161  0.5000056860062614  1.0000
  C   C8        1.0  0.49335400205212926  0.14667947279720286  0.5000230066389619  1.0000
  C   C9        1.0  0.34407239550284174  0.19927638467363806  0.4998587526207814  1.0000
  C   C10       1.0  0.34915301826898576  0.3006206149148411  0.4999934482999038  1.0000
  C   C11       1.0  0.6401320489677005  0.30255353285988207  0.5001840560381225  1.0000
  C   C12       1.0  0.643317062453228  0.20184685967512186  0.5001750663590556  1.0000
  C   C13       1.0  0.3598934393755044  0.499887008510015  0.6974273806000397  1.0000
  C   C14       1.0  0.35670920162745295  0.49987435692223414  0.7981432617903155  1.0000
  C   C15       1.0  0.5066833638112415  0.49998897728258374  0.8533181230368001  1.0000
  C   C16       1.0  0.6559562867514046  0.5001498181223312  0.8007357734790475  1.0000
  C   C17       1.0  0.6508833988790457  0.5000328028197173  0.699378399233268  1.0000
  C   C18       1.0  0.5043828560082559  0.4999781154128371  0.9557939503712165  1.0000
  C   C19       1.0  0.49569140529519007  0.4999664599037743  0.0442060502724857  1.0000
  C   C20       1.0  0.4933712048675716  0.4999671145660968  0.1466831930985322  1.0000
  C   C21       1.0  0.3440901795929038  0.49984989417365705  0.1992552469816999  1.0000
  C   C22       1.0  0.3491484535918233  0.4999806369773621  0.30061687654630737  1.0000
  C   C23       1.0  0.6401349654482474  0.5000543472520674  0.3025883421983124  1.0000
  C   C24       1.0  0.6433276282648421  0.5000503152490764  0.20187326391906876  1.0000
  Br  Br1       1.0  0.8650284915236455  0.8667695550633279  0.5006513710727774  1.0000
  Br  Br2       1.0  0.1349785236027756  0.1332371657153359  0.49935467099876973  1.0000
  Br  Br3       1.0  0.8650527899812844  0.5006212125120797  0.8667894532632587  1.0000
  Br  Br4       1.0  0.1350029505707937  0.4994164054328109  0.1331935719722921  1.0000
  N   N1        1.0  0.5047887048023726  0.6492238307064682  0.49988736042779897  1.0000
  N   N2        1.0  0.49525050352397654  0.35077144917895703  0.5001196281231017  1.0000
  N   N3        1.0  0.5047564466281501  0.4999255937196877  0.6492231712604449  1.0000
  N   N4        1.0  0.4952526419314083  0.5000600406516894  0.350781456364345  1.0000
  F   F1        1.0  0.21674968643370113  0.498613617316593  0.49857630744948983  1.0000
  F   F2        1.0  0.7832496803755619  0.5013588241968989  0.5014544712275679  1.0000
  F   F3        1.0  0.9999070474338154  0.5879919302087158  0.4120918107092422  1.0000
  F   F4        1.0  8.989453247209988e-05  0.4119870485924579  0.5879360334405774  1.0000
  F   F5        1.0  0.008985785538683906  0.5877042285609804  0.5878202949868624  1.0000
  F   F6        1.0  0.9910098826564138  0.412279844272362  0.41220098559029594  1.0000
