data_image0
_chemical_formula_structural       Ni2H52C32N8O8
_chemical_formula_sum              "Ni2 H52 C32 N8 O8"
_cell_length_a       9.255879903123672
_cell_length_b       9.97951253870578
_cell_length_c       10.698981551258335
_cell_angle_alpha    92.38732565577175
_cell_angle_beta     99.69164243771935
_cell_angle_gamma    106.93879023740085

_space_group_name_H-M_alt    "P 1"
_space_group_IT_number       1

loop_
  _space_group_symop_operation_xyz
  'x, y, z'

loop_
  _atom_site_type_symbol
  _atom_site_label
  _atom_site_symmetry_multiplicity
  _atom_site_fract_x
  _atom_site_fract_y
  _atom_site_fract_z
  _atom_site_occupancy
  Ni  Ni1       1.0  0.572305962384057  0.243788788530459  0.23141991709924525  1.0000
  Ni  Ni2       1.0  0.4276981621596647  0.7562132798926626  0.7685808245592367  1.0000
  H   H1        1.0  0.6493044646498944  0.029624914317139393  0.1724837735250233  1.0000
  H   H2        1.0  0.35069102409408254  0.9703775229167276  0.8275147767198233  1.0000
  H   H3        1.0  0.6963534565424254  0.1387575062259643  0.06743324183945276  1.0000
  H   H4        1.0  0.3036429503071999  0.8612385427665002  0.9325640516669791  1.0000
  H   H5        1.0  0.9287938143280529  0.2761206052274757  0.20045400648408668  1.0000
  H   H6        1.0  0.07120990837930204  0.7238744248974313  0.7995368177000015  1.0000
  H   H7        1.0  0.9289165269467076  0.09823350892085611  0.18300070150798575  1.0000
  H   H8        1.0  0.0710772133916819  0.9017553442184434  0.8169919390004238  1.0000
  H   H9        1.0  0.6367352798880007  0.1436475437138256  0.4391451412998605  1.0000
  H   H10       1.0  0.3632722263368605  0.8563459115213091  0.5608545500585433  1.0000
  H   H11       1.0  0.022566099306587303  0.18497491141581426  0.4033689830015489  1.0000
  H   H12       1.0  0.9774331520598877  0.8150051664006668  0.5966247825125207  1.0000
  H   H13       1.0  0.8397601000038009  0.06217869946570431  0.39373307502502536  1.0000
  H   H14       1.0  0.16022990188897507  0.9378177959700192  0.6062586225369413  1.0000
  H   H15       1.0  0.515361337036552  0.3535627593810418  0.030304139271791482  1.0000
  H   H16       1.0  0.48464504088601484  0.646442420377923  0.969697159969783  1.0000
  H   H17       1.0  0.4795836822426481  0.18696927257234822  0.9850210805030029  1.0000
  H   H18       1.0  0.5204272547703751  0.8130334401827497  0.014984460428173916  1.0000
  H   H19       1.0  0.901707701930647  0.2884893386220567  0.541394957011498  1.0000
  H   H20       1.0  0.0982994306137499  0.7115031057602934  0.458603671073142  1.0000
  H   H21       1.0  0.8963676569158493  0.381718423324905  0.40351528818066373  1.0000
  H   H22       1.0  0.10363847294294715  0.6182802094927241  0.5964892465062093  1.0000
  H   H23       1.0  0.5082448359477851  0.4543215465748673  0.3102564850446114  1.0000
  H   H24       1.0  0.4917491073263562  0.5456767273641887  0.6897406020234909  1.0000
  H   H25       1.0  0.6999033687748907  0.4473135209858511  0.4933130165899583  1.0000
  H   H26       1.0  0.3000994148756888  0.5526760541179314  0.5066810186603163  1.0000
  H   H27       1.0  0.6505914575653264  0.3187452990989783  0.6019579302588127  1.0000
  H   H28       1.0  0.34941148956907137  0.6812506231400163  0.398037519409982  1.0000
  H   H29       1.0  0.39428883266797493  0.2091552211052274  0.45278170945711327  1.0000
  H   H30       1.0  0.6057162043614426  0.790837465334391  0.5472128833762537  1.0000
  H   H31       1.0  0.417906529266901  0.38401857717084903  0.5116126875373793  1.0000
  H   H32       1.0  0.5821009600419699  0.615974838103064  0.48838793379378825  1.0000
  H   H33       1.0  0.23141495272248136  0.397464296872485  0.3078798531188056  1.0000
  H   H34       1.0  0.768582231284924  0.6025220504466873  0.6921187313446282  1.0000
  H   H35       1.0  0.2180591798219567  0.21874838978965971  0.26959678984925256  1.0000
  H   H36       1.0  0.7819450252665804  0.7812420751382732  0.7304003263004188  1.0000
  H   H37       1.0  0.33122711196406124  0.45486311698518717  0.10195416310963167  1.0000
  H   H38       1.0  0.668776180638787  0.5451367299262486  0.8980491018651405  1.0000
  H   H39       1.0  0.13965880007781808  0.34669144262202417  0.08354876689497809  1.0000
  H   H40       1.0  0.8603444869050634  0.6533054105473113  0.9164496059931009  1.0000
  H   H41       1.0  0.2336900145361938  0.1324133576764268  0.055897776704639995  1.0000
  H   H42       1.0  0.7663195461668906  0.8675855913960929  0.9440970013221558  1.0000
  H   H43       1.0  0.2452934508049296  0.24491767910409834  0.9318596666601093  1.0000
  H   H44       1.0  0.7547165568625331  0.7550854344081941  0.06813734683608892  1.0000
  H   H45       1.0  0.23385854960955738  0.6693530779561738  0.10296114747002597  1.0000
  H   H46       1.0  0.7661426715429583  0.33065017642173444  0.897063567041975  1.0000
  H   H47       1.0  0.9791050499398821  0.5018528341508812  0.1247922654291713  1.0000
  H   H48       1.0  0.02089800016304367  0.4981524008264132  0.8752347333104565  1.0000
  H   H49       1.0  0.877831043400832  0.8320126395465266  0.3274939082211574  1.0000
  H   H50       1.0  0.1221657846514788  0.1680111005658844  0.6725054319901886  1.0000
  H   H51       1.0  0.13730879166885035  0.9983986490783606  0.3129395472203953  1.0000
  H   H52       1.0  0.8626911756207818  0.0016129246468353094  0.687066870222864  1.0000
  C   C1        1.0  0.8728709321642825  0.16922790391344478  0.22337688839508726  1.0000
  C   C2        1.0  0.12712215663302825  0.830765114810596  0.7766187598753829  1.0000
  C   C3        1.0  0.8990622424168038  0.16759792119276543  0.36814226256577587  1.0000
  C   C4        1.0  0.10093228473445487  0.8323960273166475  0.6318555366313275  1.0000
  C   C5        1.0  0.8517156256157109  0.2788045512699568  0.43928079771756484  1.0000
  C   C6        1.0  0.14829340354304318  0.7211900335566668  0.5607163947036469  1.0000
  C   C7        1.0  0.6310279922810694  0.3385865857181328  0.50075679294504  1.0000
  C   C8        1.0  0.3689749604732881  0.6614123302629622  0.4992435488104545  1.0000
  C   C9        1.0  0.46190776390290716  0.31960303041483223  0.45057619987910147  1.0000
  C   C10       1.0  0.5380983603359367  0.6803926086607034  0.5494234427210712  1.0000
  C   C11       1.0  0.2815913392680471  0.32783960342617036  0.25779479865823857  1.0000
  C   C12       1.0  0.7184099609005727  0.6721519157506749  0.7422047676703867  1.0000
  C   C13       1.0  0.2596028938367496  0.3489310991370544  0.11626775717645896  1.0000
  C   C14       1.0  0.7403970637977864  0.6510656775447359  0.883734792535115  1.0000
  C   C15       1.0  0.29240760305739855  0.2383508909579319  0.0320363239013375  1.0000
  C   C16       1.0  0.7075998339186852  0.7616512139915128  0.967961170906406  1.0000
  C   C17       1.0  0.3556234079912813  0.9420783166830305  0.19590986300492122  1.0000
  C   C18       1.0  0.6443720582167529  0.05792108684751439  0.804084725125996  1.0000
  C   C19       1.0  0.20109675845534264  0.8438325594347446  0.2072734459040717  1.0000
  C   C20       1.0  0.7989059276783265  0.1561775204680842  0.7927407510606341  1.0000
  C   C21       1.0  0.15592042368993475  0.7038765712341898  0.15329613832699343  1.0000
  C   C22       1.0  0.8440787357795899  0.2961270051234379  0.8467226809882147  1.0000
  C   C23       1.0  0.014801680432206825  0.6112097225305532  0.16495547807715374  1.0000
  C   C24       1.0  0.9851945725325847  0.38880371763519145  0.8350598749753073  1.0000
  C   C25       1.0  0.9143454429908289  0.6572821007460874  0.22805999659276915  1.0000
  C   C26       1.0  0.0856437816880486  0.34273303762800106  0.7719460162450601  1.0000
  C   C27       1.0  0.9579445709053048  0.797967893161463  0.2794842599608386  1.0000
  C   C28       1.0  0.04204816352173419  0.2020537087966119  0.720518060499252  1.0000
  C   C29       1.0  0.10062756692996544  0.8898574801392555  0.2704477134482061  1.0000
  C   C30       1.0  0.8993703966294219  0.11014871963222823  0.7295608274083774  1.0000
  C   C31       1.0  0.7614180291373598  0.5566321022987352  0.24160176056735583  1.0000
  C   C32       1.0  0.23856061085074737  0.44338101285228493  0.7583847637639991  1.0000
  N   N1        1.0  0.7093426367664648  0.13201912581002517  0.16412593850171928  1.0000
  N   N2        1.0  0.29065201441667904  0.8679780961700486  0.8358702429727315  1.0000
  N   N3        1.0  0.6834581927613995  0.24547496874033914  0.42044092083413176  1.0000
  N   N4        1.0  0.31654793147744437  0.7545206703351893  0.579558721766041  1.0000
  N   N5        1.0  0.4579396773901364  0.25457068699173396  0.04948587768896568  1.0000
  N   N6        1.0  0.5420674253574164  0.7454334807694777  0.9505135859861936  1.0000
  N   N7        1.0  0.442912097444882  0.3514381796651946  0.31690533568959717  1.0000
  N   N8        1.0  0.5570890432750559  0.6485587956777435  0.6830917918655002  1.0000
  O   O1        1.0  0.40463491945495633  0.05732640190207411  0.26863476516755463  1.0000
  O   O2        1.0  0.5953790014379692  0.9426724626681278  0.7313587836341425  1.0000
  O   O3        1.0  0.7400468745139576  0.42763957518625517  0.2026251021972597  1.0000
  O   O4        1.0  0.25994795139291677  0.5723699814132388  0.7973822778691043  1.0000
  O   O5        1.0  0.4251724700893291  0.9047112572627257  0.11504903611245249  1.0000
  O   O6        1.0  0.5748190055741844  0.09527743832160945  0.8849488688723213  1.0000
  O   O7        1.0  0.6691154638223294  0.6051459414421386  0.28977333276396416  1.0000
  O   O8        1.0  0.33084390334247615  0.3948742089720767  0.7101883851238779  1.0000
