data_image0
_chemical_formula_structural       Hg6H28C28I12N8O4
_chemical_formula_sum              "Hg6 H28 C28 I12 N8 O4"
_cell_length_a       5.009730500214219
_cell_length_b       13.667980045006765
_cell_length_c       19.941463925331057
_cell_angle_alpha    90.00010353291354
_cell_angle_beta     93.23092447742293
_cell_angle_gamma    90.00004270181539

_space_group_name_H-M_alt    "P 1"
_space_group_IT_number       1

loop_
  _space_group_symop_operation_xyz
  'x, y, z'

loop_
  _atom_site_type_symbol
  _atom_site_label
  _atom_site_symmetry_multiplicity
  _atom_site_fract_x
  _atom_site_fract_y
  _atom_site_fract_z
  _atom_site_occupancy
  Hg  Hg1       1.0  0.5209349102374716  0.33462715693559625  0.35013629239615085  1.0000
  Hg  Hg2       1.0  0.4790660646941447  0.8346232267266913  0.1498638697950838  1.0000
  Hg  Hg3       1.0  0.4790655220386029  0.6653757620039613  0.649864081767042  1.0000
  Hg  Hg4       1.0  0.5209343675735029  0.1653723758428001  0.8501365043634694  1.0000
  Hg  Hg5       1.0  1.9037182140414284e-07  0.5000013906219963  0.4999996329319175  1.0000
  Hg  Hg6       1.0  0.9999983959969683  0.9999985291158778  0.9999993470851652  1.0000
  H   H1        1.0  0.1427853528801393  0.441071831018597  0.039650689228885504  1.0000
  H   H2        1.0  0.8572158484918121  0.9410724835986385  0.4603491062518545  1.0000
  H   H3        1.0  0.8572170600657288  0.5589274297355615  0.9603492068815386  1.0000
  H   H4        1.0  0.1427865644548945  0.05892750879253579  0.5396507898590244  1.0000
  H   H5        1.0  0.7802197466101433  0.19076014654433493  0.2440874752751938  1.0000
  H   H6        1.0  0.21977286333713417  0.6907586200764443  0.2559114064130981  1.0000
  H   H7        1.0  0.2197746509746352  0.8092405774819439  0.7559118244951436  1.0000
  H   H8        1.0  0.7802215157117731  0.3092399090381548  0.744087391647284  1.0000
  H   H9        1.0  0.09780119408831212  0.18427031048148726  0.15186250932404022  1.0000
  H   H10       1.0  0.902191400923968  0.6842692156504951  0.3481363641339926  1.0000
  H   H11       1.0  0.9021932034964735  0.8157304135447986  0.8481367904462972  1.0000
  H   H12       1.0  0.09780299665997921  0.3157307767387819  0.6518629356358832  1.0000
  H   H13       1.0  0.1942337781708829  0.4971980839142204  0.17297767737878902  1.0000
  H   H14       1.0  0.8057695886410344  0.9971976383706078  0.32702321635687787  1.0000
  H   H15       1.0  0.805768671842529  0.5028019084782754  0.8270232221492224  1.0000
  H   H16       1.0  0.19423280577231594  0.0028023540198916005  0.6729761780454382  1.0000
  H   H17       1.0  0.8733273248370282  0.4907408700664958  0.2644516747816112  1.0000
  H   H18       1.0  0.126678081920538  0.9907392641513723  0.2355507395479678  1.0000
  H   H19       1.0  0.1266771799846325  0.509259853965311  0.7355507535306673  1.0000
  H   H20       1.0  0.8733283665067336  0.0092599966047331  0.7644502072958093  1.0000
  H   H21       1.0  0.5771295200996321  0.34362014696689874  0.12324302349199463  1.0000
  H   H22       1.0  0.42287145700054657  0.8436211906755346  0.3767566483989101  1.0000
  H   H23       1.0  0.4228728743120413  0.6563783821495972  0.8767563709093978  1.0000
  H   H24       1.0  0.577126976066488  0.15638026498969992  0.6232437021052422  1.0000
  H   H25       1.0  0.35850179251976044  0.2673907927245693  0.07444907355954912  1.0000
  H   H26       1.0  0.6414930115259027  0.7673912939419338  0.42555043068114884  1.0000
  H   H27       1.0  0.6414946228048849  0.7326091996656743  0.9255507515769923  1.0000
  H   H28       1.0  0.35850538447442665  0.23261016172197194  0.5744489164058779  1.0000
  C   C1        1.0  0.8787839945286893  0.2567896457812253  0.22705736330836868  1.0000
  C   C2        1.0  0.12121278432487513  0.7567881371738424  0.2729421511445977  1.0000
  C   C3        1.0  0.12121440147164722  0.7432118098826805  0.7729419837786582  1.0000
  C   C4        1.0  0.8787836124655829  0.2432111235787389  0.7270571722829261  1.0000
  C   C5        1.0  0.05516777228418591  0.2538877921384071  0.17569029758469412  1.0000
  C   C6        1.0  0.9448310361656099  0.7538866460856469  0.32431024026355004  1.0000
  C   C7        1.0  0.944830660782003  0.7461129318898257  0.8243100529189891  1.0000
  C   C8        1.0  0.05516737836639151  0.2461133463049094  0.6756896085311086  1.0000
  C   C9        1.0  0.17515682770986982  0.340367275661201  0.1551615915152453  1.0000
  C   C10       1.0  0.8248421612285953  0.8403668824490469  0.34483855429984805  1.0000
  C   C11       1.0  0.8248436045636752  0.6596334483673303  0.844838782646555  1.0000
  C   C12       1.0  0.17515623477089554  0.1596338415778504  0.6551607927867098  1.0000
  C   C13       1.0  0.10905176660589432  0.4273984576466603  0.18744908026859264  1.0000
  C   C14       1.0  0.8909514395705147  0.9273972656829556  0.3125517249453935  1.0000
  C   C15       1.0  0.8909526826157119  0.57260226638315  0.8125518429179979  1.0000
  C   C16       1.0  0.1090489371021306  0.07260272670657741  0.6874471440902497  1.0000
  C   C17       1.0  0.9306291953413037  0.4244559939430772  0.2383161025070208  1.0000
  C   C18       1.0  0.0693720233889934  0.9244544413095638  0.2616851770254912  1.0000
  C   C19       1.0  0.06937327320629551  0.5755447300870954  0.7616852987300222  1.0000
  C   C20       1.0  0.9306283718170079  0.07554555108062999  0.738314193718715  1.0000
  C   C21       1.0  0.3716317559387079  0.3382154865467725  0.10087049485842671  1.0000
  C   C22       1.0  0.6283672280494842  0.8382166459674137  0.3991296482287084  1.0000
  C   C23       1.0  0.6283686763331602  0.6617837742077484  0.8991298793024498  1.0000
  C   C24       1.0  0.37163318569155024  0.16178480969746542  0.600870224224991  1.0000
  C   C25       1.0  0.5403259298421192  0.4579799963166593  0.024019705217696707  1.0000
  C   C26       1.0  0.45967730964901693  0.9579805807243532  0.47598013536438105  1.0000
  C   C27       1.0  0.4596764645695544  0.5420185327998368  0.9759796891837028  1.0000
  C   C28       1.0  0.5403251218318843  0.04202014330449091  0.5240202624555368  1.0000
  I   I1        1.0  0.4520710010436418  0.5286419489247577  0.3742209372441253  1.0000
  I   I2        1.0  0.5479413390790883  0.028636514058092602  0.1257809856727974  1.0000
  I   I3        1.0  0.5479374465960305  0.4713617016536915  0.6257800332605471  1.0000
  I   I4        1.0  0.4520711440318976  0.971358356878227  0.874221035559657  1.0000
  I   I5        1.0  0.3653227156385555  0.14701052877064308  0.34808708418251655  1.0000
  I   I6        1.0  0.634677827520676  0.6470088417412257  0.15191284007114803  1.0000
  I   I7        1.0  0.6346777166366807  0.8529916585319055  0.6519132899802146  1.0000
  I   I8        1.0  0.36532258621615205  0.352988955738617  0.8480870323802281  1.0000
  I   I9        1.0  0.9259895120264688  0.3091510518603259  0.47981645968970116  1.0000
  I   I10       1.0  0.07401142281143791  0.8091495939695365  0.020184171902379006  1.0000
  I   I11       1.0  0.07401092024959871  0.6908518670792246  0.520183914473492  1.0000
  I   I12       1.0  0.9259890094587392  0.1908482035109742  0.979816202257567  1.0000
  N   N1        1.0  0.8175642719722589  0.34058918568965163  0.2577602846367668  1.0000
  N   N2        1.0  0.18243271826902696  0.8405883444460043  0.24223983780135683  1.0000
  N   N3        1.0  0.18243414255973536  0.6594108067009046  0.7422395641578918  1.0000
  N   N4        1.0  0.8175636785222693  0.15941164794357832  0.757759485626629  1.0000
  N   N5        1.0  0.3336066578538563  0.4183040639716609  0.053782566890511405  1.0000
  N   N6        1.0  0.6663944911218138  0.918305358294866  0.44621719971612356  1.0000
  N   N7        1.0  0.6663937558838171  0.5816944651451904  0.9462173055613334  1.0000
  N   N8        1.0  0.333607903292382  0.0816953657326422  0.5537821946866615  1.0000
  O   O1        1.0  0.7770207823758712  0.4312152966825167  0.03365647537361841  1.0000
  O   O2        1.0  0.22298043337992374  0.9312165220798078  0.46634431102437185  1.0000
  O   O3        1.0  0.2229796684285006  0.5687832324356634  0.9663444004953519  1.0000
  O   O4        1.0  0.7770219981009776  0.06878420194903608  0.5336560867955458  1.0000
