data_image0
_chemical_formula_structural       Fe6H12C42N18Cl6O12
_chemical_formula_sum              "Fe6 H12 C42 N18 Cl6 O12"
_cell_length_a       7.940902073435171
_cell_length_b       22.18419047093002
_cell_length_c       22.18424308204438
_cell_angle_alpha    118.60237434880072
_cell_angle_beta     96.85305375276961
_cell_angle_gamma    96.85310814625144

_space_group_name_H-M_alt    "P 1"
_space_group_IT_number       1

loop_
  _space_group_symop_operation_xyz
  'x, y, z'

loop_
  _atom_site_type_symbol
  _atom_site_label
  _atom_site_symmetry_multiplicity
  _atom_site_fract_x
  _atom_site_fract_y
  _atom_site_fract_z
  _atom_site_occupancy
  Fe  Fe1       1.0  0.19886730427718652  0.39773466421648623  0.6988708906526143  1.0000
  Fe  Fe2       1.0  0.8011332595865355  0.3011301225155736  0.6022667244862135  1.0000
  Fe  Fe3       1.0  0.5000007752154261  0.30114608773016743  0.698854243649322  1.0000
  Fe  Fe4       1.0  0.8011335987459987  0.6022663346610315  0.30112986056585106  1.0000
  Fe  Fe5       1.0  0.19886712040307938  0.6988698277718229  0.39773305167874184  1.0000
  Fe  Fe6       1.0  0.49999960221882833  0.6988538626095677  0.3011464339718587  1.0000
  H   H1        1.0  0.24121155407068068  0.4863404291992382  0.6080691359764431  1.0000
  H   H2        1.0  0.7587867243977511  0.39193040940187285  0.5136592485078566  1.0000
  H   H3        1.0  0.6331996328234055  0.39191618582985654  0.8782877562496978  1.0000
  H   H4        1.0  0.7548538695795983  0.12172675275787982  0.5136168005854316  1.0000
  H   H5        1.0  0.24514418884616163  0.48638391523129343  0.8782740992207679  1.0000
  H   H6        1.0  0.3668006430863855  0.12171199875164267  0.6080832676813233  1.0000
  H   H7        1.0  0.7587857610406983  0.5136584725908692  0.391931358775139  1.0000
  H   H8        1.0  0.24121059199130462  0.6080684923620582  0.4863407955156164  1.0000
  H   H9        1.0  0.36680048373291635  0.6080832402017294  0.12171220848067335  1.0000
  H   H10       1.0  0.24514677256563996  0.8782737218114891  0.48638323774221703  1.0000
  H   H11       1.0  0.7548541799984179  0.5136170835820267  0.12172564126914413  1.0000
  H   H12       1.0  0.6332022749148721  0.8782879515214294  0.39191616702783005  1.0000
  C   C1        1.0  0.4272999426736489  0.4200236811837783  0.6063323537524496  1.0000
  C   C2        1.0  0.5726985945405049  0.3936676050578854  0.5799762947400355  1.0000
  C   C3        1.0  0.8210213965312008  0.39364606691539455  0.813704842668301  1.0000
  C   C4        1.0  0.007265159198709633  0.1862902661889693  0.579950043245063  1.0000
  C   C5        1.0  0.9927343814854553  0.4200500576686965  0.8137105283427035  1.0000
  C   C6        1.0  0.1789791889090537  0.18629584196224871  0.6063535685275383  1.0000
  C   C7        1.0  0.5726989042380095  0.5799757448680581  0.39366800706987704  1.0000
  C   C8        1.0  0.42730051452677736  0.6063323452759306  0.42002432824499186  1.0000
  C   C9        1.0  0.17897898218073752  0.606353883398164  0.18629538422476344  1.0000
  C   C10       1.0  0.9927354829465289  0.8137102083803999  0.42004999508258606  1.0000
  C   C11       1.0  0.007264992292803574  0.5799504168947537  0.18628945534878485  1.0000
  C   C12       1.0  0.8210227228808479  0.8137046325868696  0.39364607370815474  1.0000
  C   C13       1.0  0.35274085785248127  0.46529183744782904  0.5887954061460264  1.0000
  C   C14       1.0  0.6472565230308974  0.4112039389027233  0.5347075023054374  1.0000
  C   C15       1.0  0.7640144476896394  0.4111590322444628  0.8765062372582122  1.0000
  C   C16       1.0  0.887412992043984  0.1234861267178644  0.5346562536717201  1.0000
  C   C17       1.0  0.11258701652689507  0.4653436749227782  0.8765146043742504  1.0000
  C   C18       1.0  0.23598567075890026  0.1234941509675309  0.5888401692203828  1.0000
  C   C19       1.0  0.6472564585365743  0.5347070643161019  0.41120463787744654  1.0000
  C   C20       1.0  0.35274105551378193  0.5887954871431874  0.4652928038807291  1.0000
  C   C21       1.0  0.23598593229997522  0.5888409180429264  0.1234935389067432  1.0000
  C   C22       1.0  0.11258765137893066  0.876514347825335  0.4653433339278125  1.0000
  C   C23       1.0  0.8874126194069875  0.5346573239226445  0.1234856414799382  1.0000
  C   C24       1.0  0.7640165057419779  0.8765068478112287  0.41115883372177126  1.0000
  C   C25       1.0  0.42719362017497536  0.4823500895297813  0.544374268061013  1.0000
  C   C26       1.0  0.5728042769823104  0.455625433349809  0.5176499304135476  1.0000
  C   C27       1.0  0.8829087408179389  0.4556038559135733  0.9379779346909063  1.0000
  C   C28       1.0  0.9447982777200253  0.06200666344602014  0.5176178637722729  1.0000
  C   C29       1.0  0.05520228670914656  0.4823815774813696  0.9379937132891669  1.0000
  C   C30       1.0  0.1170907832949837  0.06202215043825283  0.544395523408916  1.0000
  C   C31       1.0  0.5728049645810529  0.5176488122400756  0.4556258305986136  1.0000
  C   C32       1.0  0.4271935624403084  0.5443745170042434  0.4823510886634353  1.0000
  C   C33       1.0  0.11709010737139638  0.5443955701120872  0.062021975403304605  1.0000
  C   C34       1.0  0.05520236442522026  0.9379938111233489  0.4823821745553831  1.0000
  C   C35       1.0  0.9447983541584147  0.5176188971141684  0.06200677576659791  1.0000
  C   C36       1.0  0.8829111284949176  0.9379783241108726  0.4556041188267771  1.0000
  C   C37       1.0  0.24481817597148148  0.4896491602943629  0.7448536472980865  1.0000
  C   C38       1.0  0.7551816874654663  0.25514339504745465  0.510349678882676  1.0000
  C   C39       1.0  0.49999985545711223  0.25519997041215003  0.7447990660389581  1.0000
  C   C40       1.0  0.7551803765948576  0.5103471198621606  0.25514158935927617  1.0000
  C   C41       1.0  0.2448158563341566  0.7448534094374613  0.48964666675745866  1.0000
  C   C42       1.0  0.4999997855874838  0.7448010283285812  0.25519937690276623  1.0000
  N   N1        1.0  0.38618374201849553  0.39279351024443815  0.6476764313059462  1.0000
  N   N2        1.0  0.6138166473930298  0.3523245958556204  0.6072075824101832  1.0000
  N   N3        1.0  0.7385377270043351  0.3523181959841681  0.7451213204531656  1.0000
  N   N4        1.0  0.9933880002944234  0.2548737716166444  0.6071895378340174  1.0000
  N   N5        1.0  0.006612344160970504  0.39281197672536194  0.7451273390786569  1.0000
  N   N6        1.0  0.2614627861821432  0.25487925329610317  0.647681863386083  1.0000
  N   N7        1.0  0.6138153670487797  0.6072064400893712  0.35232419167908113  1.0000
  N   N8        1.0  0.38618373004122475  0.6476753544841146  0.39279309521099753  1.0000
  N   N9        1.0  0.26146265170760336  0.6476817543293978  0.25487890643990607  1.0000
  N   N10       1.0  0.006612640573138231  0.7451267029788939  0.3928109512217476  1.0000
  N   N11       1.0  0.9933872917729117  0.6071890221200604  0.2548729067755318  1.0000
  N   N12       1.0  0.7385378559630951  0.745121221273266  0.35231817494157286  1.0000
  N   N13       1.0  0.5000005467146165  0.352975702720677  0.6470252226725464  1.0000
  N   N14       1.0  0.8529862305192706  0.3529825120365403  0.7059526912991885  1.0000
  N   N15       1.0  0.14701371124672138  0.2940484659000404  0.647019564528982  1.0000
  N   N16       1.0  0.49999983071964504  0.6470242476190581  0.35297545494864135  1.0000
  N   N17       1.0  0.14701467378159092  0.6470184868148082  0.2940476091911607  1.0000
  N   N18       1.0  0.8529856586985004  0.7059520087419247  0.3529817713468547  1.0000
  Cl  Cl1       1.0  0.3890979242640569  0.38908981371997  0.7781600622647604  1.0000
  Cl  Cl2       1.0  0.6109027838555363  0.2218407183298084  0.6109110884756532  1.0000
  Cl  Cl3       1.0  4.196351142027078e-07  0.3890724424981685  0.610929132575322  1.0000
  Cl  Cl4       1.0  0.6109029774814444  0.6109111851837172  0.22184113968182848  1.0000
  Cl  Cl5       1.0  0.38909759357872536  0.7781592320099268  0.38908958914553454  1.0000
  Cl  Cl6       1.0  0.9999986894321606  0.6109275078356406  0.3890714904097053  1.0000
  O   O1        1.0  0.3544827199452244  0.5265057377385036  0.5265062979605661  1.0000
  O   O2        1.0  0.6455148573217782  0.4734936883335764  0.47349445895371645  1.0000
  O   O3        1.0  0.8279708480588963  0.47345650397195277  0.9999829488962817  1.0000
  O   O4        1.0  0.8279726234925421  0.9999831546711565  0.47345637216459135  1.0000
  O   O5        1.0  0.17202826356373896  0.5265434463095178  1.6772632506043802e-05  1.0000
  O   O6        1.0  0.17202902614173607  1.6795595989499998e-05  0.5265430079084084  1.0000
  O   O7        1.0  0.2753123692301216  0.55070284714445  0.7754194038050386  1.0000
  O   O8        1.0  0.7246936784938002  0.22457978356955272  0.44930168700012274  1.0000
  O   O9        1.0  0.5000003017734258  0.22467529594440092  0.7753236314187576  1.0000
  O   O10       1.0  0.7246931805487902  0.4493023457390139  0.2245790467061611  1.0000
  O   O11       1.0  0.27530669638510125  0.7754201668225281  0.5506998920772974  1.0000
  O   O12       1.0  0.5000002915722844  0.7753225573518706  0.22467740437214453  1.0000
