data_image0
_chemical_formula_structural       Zn2H56C62S4N4O24
_chemical_formula_sum              "Zn2 H56 C62 S4 N4 O24"
_cell_length_a       16.83638294432823
_cell_length_b       18.302850503437767
_cell_length_c       19.391451207362145
_cell_angle_alpha    89.89230434308075
_cell_angle_beta     88.49431731271332
_cell_angle_gamma    86.70133538952402

_space_group_name_H-M_alt    "P 1"
_space_group_IT_number       1

loop_
  _space_group_symop_operation_xyz
  'x, y, z'

loop_
  _atom_site_type_symbol
  _atom_site_label
  _atom_site_symmetry_multiplicity
  _atom_site_fract_x
  _atom_site_fract_y
  _atom_site_fract_z
  _atom_site_occupancy
  Zn  Zn1       1.0  0.5027177588516806  0.5711310507813181  0.4866094120326991  1.0000
  Zn  Zn2       1.0  0.49467204400310993  0.4147305171569471  0.48514059223320777  1.0000
  H   H1        1.0  0.7485130421210968  0.5838697490958606  0.4373218522698965  1.0000
  H   H2        1.0  0.5901700584988204  0.15661043975563158  0.4119519500483621  1.0000
  H   H3        1.0  0.5966866152001346  0.6796306650459342  0.5577179296906254  1.0000
  H   H4        1.0  0.586159237535597  0.29394345139797207  0.414047617677781  1.0000
  H   H5        1.0  0.5036023797803396  0.06211672315367879  0.6035701653117089  1.0000
  H   H6        1.0  0.492924857781361  0.9235231596576056  0.38523822260109614  1.0000
  H   H7        1.0  0.10091477763247521  0.6326365973873108  0.5038566399673385  1.0000
  H   H8        1.0  0.8767978088459856  0.39746567696381874  0.5893932712898861  1.0000
  H   H9        1.0  0.4743809397287818  0.38554025312895845  0.26674084946105137  1.0000
  H   H10       1.0  0.5339669289382128  0.6077630784319297  0.7012310419200605  1.0000
  H   H11       1.0  0.48342054290152714  0.3921954180258708  0.13783939576858736  1.0000
  H   H12       1.0  0.25441730228485687  0.4131883717299799  0.5864732670124726  1.0000
  H   H13       1.0  0.5243086399040351  0.6067110295253144  0.8305031802394113  1.0000
  H   H14       1.0  0.450761180751293  0.6192682617246561  0.2767946123794475  1.0000
  H   H15       1.0  0.5354538761600905  0.3741151903232093  0.6996709305400729  1.0000
  H   H16       1.0  0.3748938839443028  0.5651173860673637  0.03036807164350111  1.0000
  H   H17       1.0  0.6254804046641739  0.4366886908920478  0.941724770020706  1.0000
  H   H18       1.0  0.4573834873227229  0.8558445529006916  0.6910299605269756  1.0000
  H   H19       1.0  0.41163196703500676  0.8576805342319387  0.6092062552574548  1.0000
  H   H20       1.0  0.40302871288560743  0.9837981084693938  0.7139479343302428  1.0000
  H   H21       1.0  0.3588134669657351  0.9870332246932277  0.6321019721355868  1.0000
  H   H22       1.0  0.2729928026625217  0.8833116929534908  0.667002229635479  1.0000
  H   H23       1.0  0.40132787822608407  0.5537083454144777  0.9045710210550554  1.0000
  H   H24       1.0  0.2576869279633911  0.9585467620434968  0.7242511303458203  1.0000
  H   H25       1.0  0.3167772126638795  0.88017199361186  0.7493658238258761  1.0000
  H   H26       1.0  0.43348746581219183  0.13658630095327598  0.30580570239472854  1.0000
  H   H27       1.0  0.39745289552643465  0.13774797135481975  0.3929987457503402  1.0000
  H   H28       1.0  0.3756304579480343  0.015622332424932493  0.2879215508157529  1.0000
  H   H29       1.0  0.34186804030986906  0.0145433418821668  0.37515362594122353  1.0000
  H   H30       1.0  0.2529341909877516  0.1282773204446599  0.3548147615389326  1.0000
  H   H31       1.0  0.23043508963090178  0.05694911766597241  0.2980298858996165  1.0000
  H   H32       1.0  0.286501537172242  0.12990284824761733  0.2672832076153712  1.0000
  H   H33       1.0  0.9721118224944973  0.623722135467581  0.5420233218509836  1.0000
  H   H34       1.0  0.5996027092399601  0.4489049020486462  0.06760681996175322  1.0000
  H   H35       1.0  0.0638658325369477  0.4264176718312597  0.719024649746764  1.0000
  H   H36       1.0  0.2374335057664254  0.725094154307584  0.4216196498864947  1.0000
  H   H37       1.0  0.15907786779642663  0.6640117839840867  0.41743690725247984  1.0000
  H   H38       1.0  0.3275112538892699  0.6298097935974453  0.3574070664490848  1.0000
  H   H39       1.0  0.24546725216658424  0.5756213394829504  0.3486413356052226  1.0000
  H   H40       1.0  0.1737116168336925  0.6754870289779474  0.2797985095231965  1.0000
  H   H41       1.0  0.2676721055402068  0.6502552592236055  0.24096359381285035  1.0000
  H   H42       1.0  0.2542848330438403  0.7323701891585869  0.2900329965977591  1.0000
  H   H43       1.0  0.756894865500712  0.3697587113342706  0.6624503664224123  1.0000
  H   H44       1.0  0.806483684329045  0.303463532000336  0.6061184028162502  1.0000
  H   H45       1.0  0.41160010220302473  0.6926308885502833  0.42152923640771445  1.0000
  H   H46       1.0  0.6268141647109999  0.3113585256934995  0.6360825475322687  1.0000
  H   H47       1.0  0.6822249101771974  0.24178486806641786  0.5903400015249006  1.0000
  H   H48       1.0  0.7585178407711197  0.20896704115424564  0.7003795994779056  1.0000
  H   H49       1.0  0.6559158878901599  0.19672515428371898  0.7095263834388563  1.0000
  H   H50       1.0  0.6979520928438562  0.27550021955485693  0.7459204238691373  1.0000
  H   H51       1.0  0.40213901185328643  0.7358652085345696  0.20638380347398314  1.0000
  H   H52       1.0  0.5762363038418601  0.2605048055122198  0.7682884980376772  1.0000
  H   H53       1.0  0.40749211814546266  0.30464614425728337  0.564814848756946  1.0000
  H   H54       1.0  0.4048009633320362  0.8298431820194664  0.4237647833539314  1.0000
  H   H55       1.0  0.40568197704685366  0.16801010011014478  0.5715955159851662  1.0000
  H   H56       1.0  0.5977005677666369  0.8163192032824892  0.566864294368685  1.0000
  C   C1        1.0  0.5318431164009852  0.4907513243515495  0.616077719128171  1.0000
  C   C2        1.0  0.536160632341769  0.42451651720431727  0.7290696463335282  1.0000
  C   C3        1.0  0.4618291808516517  0.5021414027102935  0.2793690161375721  1.0000
  C   C4        1.0  0.5357547347989637  0.49072191456416886  0.6931125896793946  1.0000
  C   C5        1.0  0.43010858738712443  0.5375376093794627  0.0112410350104142  1.0000
  C   C6        1.0  0.570594004350923  0.46477586223597456  0.9610194824305655  1.0000
  C   C7        1.0  0.44515305882681133  0.5312667472202504  0.9405633331347975  1.0000
  C   C8        1.0  0.5557129715042066  0.47131448009010757  0.03168532912735601  1.0000
  C   C9        1.0  0.5149930143654302  0.49438596206422153  0.9146305538867313  1.0000
  C   C10       1.0  0.4854991030322537  0.5076009132607596  0.0577294391222622  1.0000
  C   C11       1.0  0.4517779887802434  0.7228351645110463  0.4524323060695254  1.0000
  C   C12       1.0  0.4650323606552789  0.4987845601116445  0.3565193793275797  1.0000
  C   C13       1.0  0.4473636110890028  0.26932271935486796  0.5325933040932115  1.0000
  C   C14       1.0  0.4487638154839076  0.7986625222011766  0.4539170118691019  1.0000
  C   C15       1.0  0.4470086709535934  0.19353873444031677  0.5360431314836376  1.0000
  C   C16       1.0  0.3495869720589226  0.5037222336670124  0.522473842663395  1.0000
  C   C17       1.0  0.649046181191288  0.4820423977638556  0.46794373617888857  1.0000
  C   C18       1.0  0.5012418358990018  0.8346461179711467  0.49554104902878754  1.0000
  C   C19       1.0  0.49784440325931456  0.15081360417472914  0.49166666277891136  1.0000
  C   C20       1.0  0.5555007607547465  0.7912402960340896  0.5340016329859696  1.0000
  C   C21       1.0  0.5491430580058391  0.1873348307509062  0.4468743439033177  1.0000
  C   C22       1.0  0.5553377682331018  0.715575277342367  0.529201209865164  1.0000
  C   C23       1.0  0.4757123347548459  0.4420131919518724  0.16864168676168131  1.0000
  C   C24       1.0  0.5467494730309994  0.2632371216042201  0.4472440827484121  1.0000
  C   C25       1.0  0.5023428957480363  0.9560285192089425  0.5580376843812476  1.0000
  C   C26       1.0  0.4937458129583732  0.029483182414750793  0.4307801420299455  1.0000
  C   C27       1.0  0.5005070122980868  0.0322444395212855  0.5551829161724342  1.0000
  C   C28       1.0  0.49432188323836346  0.9533976701931761  0.43375148333689856  1.0000
  C   C29       1.0  0.497317296428136  0.07022721387572518  0.4923444691823422  1.0000
  C   C30       1.0  0.49949665765959134  0.9152713724615963  0.4964351994414287  1.0000
  C   C31       1.0  0.261519246377972  0.5159495519816987  0.53475387960809  1.0000
  C   C32       1.0  0.7332643798774114  0.4833719501407571  0.49099582501131095  1.0000
  C   C33       1.0  0.2202345662636916  0.4613488250136653  0.5682282208173106  1.0000
  C   C34       1.0  0.5282630678404275  0.5556009887941967  0.8014460929612002  1.0000
  C   C35       1.0  0.7771297300836508  0.5426889558896305  0.4704531498808465  1.0000
  C   C36       1.0  0.13776598541275586  0.46552347646553455  0.5776792310646074  1.0000
  C   C37       1.0  0.8542365436276426  0.5514729962754926  0.4913864461665583  1.0000
  C   C38       1.0  0.09483117637758201  0.5288913484920457  0.552999551518454  1.0000
  C   C39       1.0  0.8903536242937663  0.4968436244141472  0.5347496338937888  1.0000
  C   C40       1.0  0.1361697177998806  0.5850597852152218  0.5220408369047932  1.0000
  C   C41       1.0  0.8459984919722885  0.43815483304518205  0.5571780202929589  1.0000
  C   C42       1.0  0.21859777180771542  0.5790221109915092  0.5104956753207476  1.0000
  C   C43       1.0  0.7675966896377417  0.43109142318376553  0.5372760904023508  1.0000
  C   C44       1.0  0.47039076261799545  0.43802160376345267  0.24012994847080193  1.0000
  C   C45       1.0  0.4720050248998078  0.5093456148510638  0.1335087120415892  1.0000
  C   C46       1.0  0.5336182158943573  0.5564687959399919  0.7297908141442946  1.0000
  C   C47       1.0  0.43707179191267903  0.8919254990351249  0.6488770484395162  1.0000
  C   C48       1.0  0.37566982890646017  0.950266639993778  0.6750091910046196  1.0000
  C   C49       1.0  0.3017710611360656  0.9161658353853  0.7055597927371908  1.0000
  C   C50       1.0  0.41792168690752624  0.10172099704115567  0.3497679833194881  1.0000
  C   C51       1.0  0.3534697239577937  0.05083086161754839  0.3310496531322827  1.0000
  C   C52       1.0  0.2766652001536798  0.09385953447953449  0.31175796437651127  1.0000
  C   C53       1.0  0.22414599213352196  0.6671194597667096  0.41725097270112615  1.0000
  C   C54       1.0  0.2624865397340628  0.6326677434099678  0.3521470244782848  1.0000
  C   C55       1.0  0.23825346615248577  0.6749251475108266  0.28725524492318044  1.0000
  C   C56       1.0  0.5273445018229952  0.4898311171374912  0.8388555806386723  1.0000
  C   C57       1.0  0.7489247926479338  0.33324854516803265  0.6181297233235912  1.0000
  C   C58       1.0  0.6846539933143704  0.28011881108359654  0.6338010866775508  1.0000
  C   C59       1.0  0.6997283097763116  0.23849483608089628  0.7010507877644657  1.0000
  C   C60       1.0  0.4598601482879801  0.573433610376213  0.17392466717905114  1.0000
  C   C61       1.0  0.5336206015856817  0.4237956811264709  0.8009176522256071  1.0000
  C   C62       1.0  0.4556126626437518  0.5697725120530206  0.24577517095720947  1.0000
  S   S1        1.0  0.9007554978787482  0.6298749313412129  0.45728719103672694  1.0000
  S   S2        1.0  0.09868899156840166  0.387430842080839  0.6192872354189449  1.0000
  S   S3        1.0  0.4536191501609964  0.6608311595922559  0.13260008464892084  1.0000
  S   S4        1.0  0.5355650567956545  0.3379320262333251  0.8451093504070288  1.0000
  N   N1        1.0  0.012032383002271297  0.5430053437079181  0.5500756933478999  1.0000
  N   N2        1.0  0.9700981427916631  0.4879731494398811  0.552889683348802  1.0000
  N   N3        1.0  0.504143190375558  0.6819780174812992  0.4894323959024689  1.0000
  N   N4        1.0  0.49595105021974467  0.3035190735020237  0.4886279456947664  1.0000
  O   O1        1.0  0.5452896491932435  0.5501968512241292  0.5849568124895654  1.0000
  O   O2        1.0  0.4922767107126447  0.0626346271227263  0.3668799278694338  1.0000
  O   O3        1.0  0.9675808589769872  0.6045945866427045  0.4134797667256649  1.0000
  O   O4        1.0  0.8399667259234747  0.6795438532794903  0.43055117190137093  1.0000
  O   O5        1.0  0.9328953594490272  0.665700962137059  0.5245183969326064  1.0000
  O   O6        1.0  0.054442765967174  0.34559911791164666  0.5730182527676393  1.0000
  O   O7        1.0  0.1629507881661851  0.35263409147356123  0.6575037570890461  1.0000
  O   O8        1.0  0.03514320042211241  0.4234006165342521  0.6759056031304811  1.0000
  O   O9        1.0  0.25830460396387167  0.6316728579205629  0.47740437589265394  1.0000
  O   O10       1.0  0.7229227713567  0.3764888617770978  0.5601009001936961  1.0000
  O   O11       1.0  0.5245215244948795  0.6697467037535815  0.09174139947923983  1.0000
  O   O12       1.0  0.47587494335545705  0.435527192498462  0.38307486962303733  1.0000
  O   O13       1.0  0.3754731205411019  0.6735145731741596  0.1041220842319106  1.0000
  O   O14       1.0  0.4569680324981746  0.7167876195050124  0.19744454382421142  1.0000
  O   O15       1.0  0.614788622145113  0.32175786558178726  0.8701824915947827  1.0000
  O   O16       1.0  0.46657094701635066  0.33497132513731026  0.8896237918180534  1.0000
  O   O17       1.0  0.5231895023324711  0.28058667341638704  0.7831598825791349  1.0000
  O   O18       1.0  0.5135165254488143  0.43124106158538206  0.588347799136095  1.0000
  O   O19       1.0  0.4585664522295262  0.5593308061336728  0.38917670003285565  1.0000
  O   O20       1.0  0.39119015564381954  0.5588078600178574  0.5284701712375296  1.0000
  O   O21       1.0  0.6161387948086628  0.42141733004126536  0.4683512950184011  1.0000
  O   O22       1.0  0.37435304591114266  0.43869203362617515  0.5068423944653588  1.0000
  O   O23       1.0  0.6159805089468193  0.5439635740118262  0.4515271298568211  1.0000
  O   O24       1.0  0.5091038526922275  0.922429365247886  0.6214974867528158  1.0000
