data_image0
_chemical_formula_structural       Sm4H32C24N4O28
_chemical_formula_sum              "Sm4 H32 C24 N4 O28"
_cell_length_a       6.671235815017871
_cell_length_b       6.869446988472213
_cell_length_c       19.70553232624775
_cell_angle_alpha    93.27786876169952
_cell_angle_beta     89.99999359476082
_cell_angle_gamma    90.00025950211567

_space_group_name_H-M_alt    "P 1"
_space_group_IT_number       1

loop_
  _space_group_symop_operation_xyz
  'x, y, z'

loop_
  _atom_site_type_symbol
  _atom_site_label
  _atom_site_symmetry_multiplicity
  _atom_site_fract_x
  _atom_site_fract_y
  _atom_site_fract_z
  _atom_site_occupancy
  Sm  Sm1       1.0  0.7581340837057411  0.7723143246218881  0.3986985100321193  1.0000
  Sm  Sm2       1.0  0.25813522365723424  0.7276834468368064  0.10130224668969133  1.0000
  Sm  Sm3       1.0  0.24186263968591248  0.2276840057844183  0.601302712417308  1.0000
  Sm  Sm4       1.0  0.7418600007853442  0.2723250588664712  0.8986971296595033  1.0000
  H   H1        1.0  0.7087134091976424  0.30541681400607973  0.2930939998994547  1.0000
  H   H2        1.0  0.2087233517584508  0.19456291681756005  0.2069087926829525  1.0000
  H   H3        1.0  0.2912953059822101  0.6945843934737965  0.7069047371288522  1.0000
  H   H4        1.0  0.7912838644351509  0.8054324896158744  0.7930918694660323  1.0000
  H   H5        1.0  0.509387252884494  0.19106366273699393  0.33418677547269493  1.0000
  H   H6        1.0  0.0094022298841026  0.3089298219736848  0.16582083761741737  1.0000
  H   H7        1.0  0.4906169653744925  0.8089360475220674  0.6658093971134635  1.0000
  H   H8        1.0  0.9906034873602749  0.6910757754066806  0.8341789936720831  1.0000
  H   H9        1.0  0.30522790968431224  0.5051312541230217  0.25792383403351954  1.0000
  H   H10       1.0  0.8052233479775455  0.9948637897023146  0.24207534985841056  1.0000
  H   H11       1.0  0.694773310635398  0.4948714349007091  0.7420764521958533  1.0000
  H   H12       1.0  0.19477787233567764  0.0051359674999247006  0.7579238684498579  1.0000
  H   H13       1.0  0.5621053312479063  0.4937392805718446  0.235650818845116  1.0000
  H   H14       1.0  0.0621024007695183  0.006249973288873901  0.264350626815137  1.0000
  H   H15       1.0  0.4378943900960692  0.5062619268877883  0.764347918182928  1.0000
  H   H16       1.0  0.9379003185227575  0.993752723563219  0.7356501670346349  1.0000
  H   H17       1.0  0.36570971615206094  0.4138855996097631  0.429592257337518  1.0000
  H   H18       1.0  0.8657333336430639  0.08610933285653033  0.0704052238632329  1.0000
  H   H19       1.0  0.6342885061896125  0.5861024615997296  0.57040471976773  1.0000
  H   H20       1.0  0.1342663877239332  0.9139021046783568  0.929595220407194  1.0000
  H   H21       1.0  0.20274898027157923  0.4410838882683379  0.3598875749720919  1.0000
  H   H22       1.0  0.7027589564302019  0.05892198299603281  0.14011061518652215  1.0000
  H   H23       1.0  0.7972522400384818  0.5589143951981655  0.6401106017552609  1.0000
  H   H24       1.0  0.2972437628718083  0.9410851115882864  0.8598917805449066  1.0000
  H   H25       1.0  0.720044110899252  0.9682249416112184  0.5353412417713416  1.0000
  H   H26       1.0  0.22005171361139733  0.5317756600405731  0.9646601471829545  1.0000
  H   H27       1.0  0.27995111351287255  0.0317704960951701  0.46466145085876326  1.0000
  H   H28       1.0  0.7799465087562254  0.4682241284548637  0.035341101606690004  1.0000
  H   H29       1.0  0.9263699415120283  0.8551701524568146  0.541831667106841  1.0000
  H   H30       1.0  0.42637806263793726  0.6448270038595683  0.9581696547075471  1.0000
  H   H31       1.0  0.0736267818763778  0.14482671203874992  0.4581690213820267  1.0000
  H   H32       1.0  0.5736231576714914  0.35517134220684454  0.04183258298273532  1.0000
  C   C1        1.0  0.7570657222752574  0.29330881534568215  0.398017815256985  1.0000
  C   C2        1.0  0.2570727620401883  0.2066871721066477  0.10198526985157491  1.0000
  C   C3        1.0  0.24293399905211288  0.7066851016851742  0.6019807900701439  1.0000
  C   C4        1.0  0.7429269593132871  0.7933184565601791  0.898016591919216  1.0000
  C   C5        1.0  0.613468700839391  0.31515849186291683  0.3387817159530116  1.0000
  C   C6        1.0  0.11347861632750518  0.18483540665722137  0.1612223497875931  1.0000
  C   C7        1.0  0.3865385153646486  0.6848412418778552  0.6612159794943298  1.0000
  C   C8        1.0  0.8865241029712647  0.8151702220163485  0.8387795119832834  1.0000
  C   C9        1.0  0.4553531393737771  0.5595115715597104  0.27275581724529735  1.0000
  C   C10       1.0  0.9553483351055546  0.940476935980378  0.22724831979385848  1.0000
  C   C11       1.0  0.5446495799120115  0.4404881934708912  0.7272439086833844  1.0000
  C   C12       1.0  0.04465288520728449  0.05952286034680301  0.7727534366162419  1.0000
  C   C13       1.0  0.4634585853859504  0.778295715577478  0.2639303184288053  1.0000
  C   C14       1.0  0.9634332926718869  0.7217075579411799  0.23608372726527457  1.0000
  C   C15       1.0  0.5365606226040214  0.2217071221615114  0.7360796125880358  1.0000
  C   C16       1.0  0.0365469420486733  0.27830408299953296  0.7639299151341066  1.0000
  C   C17       1.0  0.33424649549316854  0.5046101633957248  0.3866679343731861  1.0000
  C   C18       1.0  0.8342569747902432  0.9953835373752825  0.11333020960920243  1.0000
  C   C19       1.0  0.6657607206910257  0.4953808140055216  0.6133290954126879  1.0000
  C   C20       1.0  0.1657427465602268  0.004620601905834602  0.8866695953399388  1.0000
  C   C21       1.0  0.2831484730790095  0.7070551134807276  0.41746861390246454  1.0000
  C   C22       1.0  0.7831565411897756  0.7929383415812266  0.08252851189681111  1.0000
  C   C23       1.0  0.7168422544086894  0.2929373923940517  0.5825330108064152  1.0000
  C   C24       1.0  0.2168506750244745  0.20706574294185034  0.9174677397099917  1.0000
  N   N1        1.0  0.5117848270116879  0.50583014987577  0.3415299217425912  1.0000
  N   N2        1.0  0.0117931573021863  0.9941636510882502  0.15847432145636733  1.0000
  N   N3        1.0  0.4882178922708604  0.4941681492440893  0.6584692702255384  1.0000
  N   N4        1.0  0.9882080630240111  0.005841969756957605  0.8415270326940959  1.0000
  O   O1        1.0  0.4262721046365811  0.8076771900284073  0.4450535873077401  1.0000
  O   O2        1.0  0.9262782250310054  0.692314008879215  0.05494450929316491  1.0000
  O   O3        1.0  0.5737336125711748  0.19231237623363745  0.5549464618601051  1.0000
  O   O4        1.0  0.07371999734048978  0.3076871829270686  0.9450532124941023  1.0000
  O   O5        1.0  0.1057526955888761  0.7684031018955652  0.415986688860123  1.0000
  O   O6        1.0  0.6057499903706328  0.7315998393205804  0.08401568730900523  1.0000
  O   O7        1.0  0.8942455267349275  0.23157779408495574  0.5840182784700617  1.0000
  O   O8        1.0  0.3942422361337634  0.26841153559752945  0.9159806959982789  1.0000
  O   O9        1.0  0.5383909686311128  0.8872737053973125  0.31141529452539635  1.0000
  O   O10       1.0  0.0383840559094537  0.6127200588188727  0.18857879779784537  1.0000
  O   O11       1.0  0.4616027567996568  0.11271723284862388  0.6885791971582622  1.0000
  O   O12       1.0  0.9616156654285888  0.38727816204435334  0.8114153179665353  1.0000
  O   O13       1.0  0.40055434830023273  0.839394700826112  0.20826441992958422  1.0000
  O   O14       1.0  0.9005617329710204  0.6605948537871597  0.2917290802670039  1.0000
  O   O15       1.0  0.5994423751092838  0.1606107948091662  0.7917288122948991  1.0000
  O   O16       1.0  0.0994484811688991  0.3394004509281742  0.708264982817312  1.0000
  O   O17       1.0  0.8304490396462612  0.12417997872601211  0.4061336530789817  1.0000
  O   O18       1.0  0.3304553553904981  0.375817828496956  0.09387149307675463  1.0000
  O   O19       1.0  0.1695491827081526  0.875813969601417  0.5938669827295655  1.0000
  O   O20       1.0  0.6695458649323028  0.6241863420874837  0.9061303423538973  1.0000
  O   O21       1.0  0.8049597369737568  0.44515500153253384  0.43382975654371597  1.0000
  O   O22       1.0  0.30496010146680413  0.054844102054858  0.0661723687621176  1.0000
  O   O23       1.0  0.19503099052051454  0.5548404283387428  0.5661724284658974  1.0000
  O   O24       1.0  0.6950351229684982  0.9451615500768045  0.9338310158696433  1.0000
  O   O25       1.0  0.7916647484506782  0.8462853010954421  0.520650369212845  1.0000
  O   O26       1.0  0.29166990414289273  0.6537156151764733  0.9793505162450702  1.0000
  O   O27       1.0  0.2083334739171008  0.15371447175002126  0.47934986433607213  1.0000
  O   O28       1.0  0.7083253202896316  0.34628852409452554  0.020649288703950205  1.0000
