data_image0
_chemical_formula_structural       Zn2H22C40IN6ClO8
_chemical_formula_sum              "Zn2 H22 C40 I1 N6 Cl1 O8"
_cell_length_a       13.594146274279026
_cell_length_b       15.96891387482743
_cell_length_c       17.255546631475887
_cell_angle_alpha    85.53636503667248
_cell_angle_beta     90.05871267705454
_cell_angle_gamma    68.69873987241463

_space_group_name_H-M_alt    "P 1"
_space_group_IT_number       1

loop_
  _space_group_symop_operation_xyz
  'x, y, z'

loop_
  _atom_site_type_symbol
  _atom_site_label
  _atom_site_symmetry_multiplicity
  _atom_site_fract_x
  _atom_site_fract_y
  _atom_site_fract_z
  _atom_site_occupancy
  Zn  Zn1       1.0  0.5114755739466262  0.40811057950769236  0.5044690771963971  1.0000
  Zn  Zn2       1.0  0.488653350225988  0.5913237555872259  0.49735433404670465  1.0000
  H   H1        1.0  0.1549301779030259  0.7103997395261105  0.4315134884176288  1.0000
  H   H2        1.0  0.6163011377565086  0.0674485134606471  0.5842166457252987  1.0000
  H   H3        1.0  0.6382324859370453  0.8078854374677038  0.6036636560463434  1.0000
  H   H4        1.0  0.8126234655359781  0.6982112511310704  0.3882003869968429  1.0000
  H   H5        1.0  0.6063655472386743  0.663883788046661  0.5858855404509384  1.0000
  H   H6        1.0  0.3832458767615989  0.3323667286497312  0.4198452354501043  1.0000
  H   H7        1.0  0.4141654936384003  0.9351205613557455  0.4136579378145413  1.0000
  H   H8        1.0  0.3604436274190874  0.18195480206659206  0.4135994621586363  1.0000
  H   H9        1.0  0.9648046861048271  0.7453252291801892  0.3959965962392502  1.0000
  H   H10       1.0  0.18928361499800425  0.4417502773465074  0.5138355630813649  1.0000
  H   H11       1.0  0.8463927942856203  0.28344250582174624  0.5361231499525871  1.0000
  H   H12       1.0  0.40089444378094885  0.4570774896845152  0.0985050925239008  1.0000
  H   H13       1.0  0.1273046879485165  0.34757671451354355  0.5235978596637737  1.0000
  H   H14       1.0  0.04295975355817209  0.23638024733342183  0.5515742147083245  1.0000
  H   H15       1.0  0.7287362176486027  0.5877259342938076  0.4213586162675753  1.0000
  H   H16       1.0  0.4624434689797567  0.36358574975144375  0.8951515727004136  1.0000
  H   H17       1.0  0.4696995445692307  0.36844121896910326  0.7486927433656376  1.0000
  H   H18       1.0  0.6141051676660182  0.5726526572063408  0.2639256077689893  1.0000
  H   H19       1.0  0.5636208239858648  0.5893246504261924  0.8924011907260834  1.0000
  H   H20       1.0  0.6362540818898028  0.5761319720796365  0.11903046793570127  1.0000
  H   H21       1.0  0.5620988904265259  0.5986989829954228  0.7461921652830767  1.0000
  H   H22       1.0  0.6258983990121934  0.22271388078763726  0.585429619990748  1.0000
  C   C1        1.0  0.5125500321310598  0.4905412614359861  0.6521507883542697  1.0000
  C   C2        1.0  0.8230206650349957  0.41900176162688757  0.4946553443445226  1.0000
  C   C3        1.0  0.5158902646904835  0.48398681297894813  0.7392712804197572  1.0000
  C   C4        1.0  0.7054334152294999  0.44457151488484214  0.49652072608878944  1.0000
  C   C5        1.0  0.5423230337156754  0.546472628615561  0.7795747079016094  1.0000
  C   C6        1.0  0.5426443172597287  0.5419060772050203  0.8601682035251699  1.0000
  C   C7        1.0  0.512926575276765  0.475769223480306  0.9017124881828948  1.0000
  C   C8        1.0  0.4860767467377869  0.4134766789445905  0.8615182691814809  1.0000
  C   C9        1.0  0.4895227841218953  0.41655550907343303  0.7808452523207166  1.0000
  C   C10       1.0  0.4488316848756356  0.4807671578828448  0.1352081907315608  1.0000
  C   C11       1.0  0.4371061103503352  0.47944432017041555  0.21522798010175143  1.0000
  C   C12       1.0  0.9823168029502227  0.45776429993360784  0.48553089979139935  1.0000
  C   C13       1.0  0.5223494587912754  0.5140659154228758  0.10076253594903048  1.0000
  C   C14       1.0  0.49842401323535773  0.5109605338917191  0.2628848137295847  1.0000
  C   C15       1.0  0.5688909408454849  0.5466503637054245  0.22677864901555717  1.0000
  C   C16       1.0  0.49527165957817937  0.5075445408934344  0.3499251873885568  1.0000
  C   C17       1.0  0.5811501664185813  0.5487821083633548  0.14686325404922226  1.0000
  C   C18       1.0  0.44499065546360594  0.7940612659842117  0.4472830914429338  1.0000
  C   C19       1.0  0.45686151469776365  0.8764012982426834  0.4529752094314432  1.0000
  C   C20       1.0  0.5257207017850263  0.8822395223131922  0.5108168784679066  1.0000
  C   C21       1.0  0.58258948557949  0.8052322058089133  0.5593637907953024  1.0000
  C   C22       1.0  0.565165752772046  0.7261400765388544  0.5498527647406206  1.0000
  C   C23       1.0  0.8709628405794518  0.48308211232399156  0.4725982076454258  1.0000
  C   C24       1.0  0.5637523615073692  0.12471241278070982  0.5474146582541763  1.0000
  C   C25       1.0  0.5692305791560344  0.20972506820297815  0.5479942542209101  1.0000
  C   C26       1.0  0.4877479150507256  0.11441478917218013  0.4978321692616632  1.0000
  C   C27       1.0  0.4321011520830569  0.27184440576611024  0.45522530490490004  1.0000
  C   C28       1.0  0.2963479905165017  0.5497472195626899  0.49389928701902613  1.0000
  C   C29       1.0  0.4201832501138654  0.1893132201866408  0.4517407057298329  1.0000
  C   C30       1.0  0.014018558984531613  0.6786361996805184  0.42215210353433713  1.0000
  C   C31       1.0  0.18164784815102325  0.5730494522778143  0.47468377561836667  1.0000
  C   C32       1.0  0.885232731578704  0.33114785687008924  0.5211852763257242  1.0000
  C   C33       1.0  0.9950582034894283  0.3054154391727836  0.5302745885233904  1.0000
  C   C34       1.0  0.030600785141771794  0.5248305614802932  0.4696962071175789  1.0000
  C   C35       1.0  0.042236229607262026  0.3681511440234502  0.5141701542575845  1.0000
  C   C36       1.0  0.9676209971419784  0.6127513449218255  0.43607111323307624  1.0000
  C   C37       1.0  0.8587539501989028  0.6322100193572239  0.41731164931448456  1.0000
  C   C38       1.0  0.8120494021442826  0.5708795737482149  0.43546134307127465  1.0000
  C   C39       1.0  0.13761221118943467  0.5073164315299721  0.48777484649524167  1.0000
  C   C40       1.0  0.11886633522931331  0.6598350595507656  0.4414947352549135  1.0000
  I   I1        1.0  0.34078548847483603  0.7883827801599709  0.3597465054173483  1.0000
  N   N1        1.0  0.5035896162403333  0.4684676759152069  0.983176740536443  1.0000
  N   N2        1.0  0.5388564718107175  0.517865172626948  0.019962161820672005  1.0000
  N   N3        1.0  0.49704739361678224  0.7203317400041842  0.49513385184369696  1.0000
  N   N4        1.0  0.5436449682495452  0.962953219413798  0.5213552868930975  1.0000
  N   N5        1.0  0.4716951585486059  0.0325830179075624  0.49041781704529097  1.0000
  N   N6        1.0  0.5051873402814236  0.28145189757577793  0.5026390549433656  1.0000
  Cl  Cl1       1.0  0.33993772908421954  0.4425427400629405  0.2527881296761123  1.0000
  O   O1        1.0  0.5330060115386248  0.416845865951757  0.6204094274340477  1.0000
  O   O2        1.0  0.4885223421119135  0.5690291166838864  0.6173352271586268  1.0000
  O   O3        1.0  0.6682090634906572  0.3834595261874796  0.485928818672825  1.0000
  O   O4        1.0  0.6513330058856043  0.5249022063173288  0.5117994575227414  1.0000
  O   O5        1.0  0.4801114542258631  0.4410992118980276  0.38587888811699855  1.0000
  O   O6        1.0  0.5119735855478139  0.571148501035758  0.3810230607083581  1.0000
  O   O7        1.0  0.3501693771064965  0.4679889626884446  0.5168760545966221  1.0000
  O   O8        1.0  0.3326584618586139  0.6131563008230146  0.4845069470807317  1.0000
