data_image0
_chemical_formula_structural       Zn2H41C48N7O10
_chemical_formula_sum              "Zn2 H41 C48 N7 O10"
_cell_length_a       10.886487247150091
_cell_length_b       14.627061505775716
_cell_length_c       15.111733707088886
_cell_angle_alpha    97.65749214408325
_cell_angle_beta     92.89273140925714
_cell_angle_gamma    106.74222617569936

_space_group_name_H-M_alt    "P 1"
_space_group_IT_number       1

loop_
  _space_group_symop_operation_xyz
  'x, y, z'

loop_
  _atom_site_type_symbol
  _atom_site_label
  _atom_site_symmetry_multiplicity
  _atom_site_fract_x
  _atom_site_fract_y
  _atom_site_fract_z
  _atom_site_occupancy
  Zn  Zn1       1.0  0.5519350510428751  0.5881233529646723  0.47855498420755554  1.0000
  Zn  Zn2       1.0  0.47801996386667156  0.4001937164174621  0.5187129925165835  1.0000
  H   H1        1.0  0.15102247370948865  0.6116422699820561  0.43734606339739923  1.0000
  H   H2        1.0  0.39508322715174415  0.46802377347582796  0.777256459407717  1.0000
  H   H3        1.0  0.191903762624193  0.6414116609445699  0.5538844203392657  1.0000
  H   H4        1.0  0.22154470786824024  0.20705377168988556  0.08484954644034563  1.0000
  H   H5        1.0  0.23094243251967567  0.9427392808112955  0.6193051987163758  1.0000
  H   H6        1.0  0.46267222914456596  0.7526453809491971  0.5214880877071979  1.0000
  H   H7        1.0  0.7264265889856033  0.6972570214634503  0.3525679060612036  1.0000
  H   H8        1.0  0.7671058572990644  0.0350209375653492  0.3452861452826852  1.0000
  H   H9        1.0  0.27372475460668966  0.28100923362687524  0.6132091557388508  1.0000
  H   H10       1.0  0.5800066421388904  0.2390557139778552  0.4829341024779412  1.0000
  H   H11       1.0  0.3521091654199823  0.8346904072520761  0.5598305080519881  1.0000
  H   H12       1.0  0.8675231234280075  0.3671082844242123  0.5749230456679657  1.0000
  H   H13       1.0  0.659277591484276  0.14645497421322773  0.41721996350388946  1.0000
  H   H14       1.0  0.7916174097198263  0.8674114702614022  0.3172679618411821  1.0000
  H   H15       1.0  0.9506928885266672  0.6339402936821444  0.4699161592195937  1.0000
  H   H16       1.0  0.08759141745197498  0.43781058026794994  0.3598414454666213  1.0000
  H   H17       1.0  0.08388298689270361  0.3741648675022447  0.5838568235659383  1.0000
  H   H18       1.0  0.9098516420967186  0.4769363075861294  0.6494573226861604  1.0000
  H   H19       1.0  0.40175323302295846  0.8359096000401111  0.00980217186120308  1.0000
  H   H20       1.0  0.36643798534949207  0.7998014797158249  0.10919999399435913  1.0000
  H   H21       1.0  0.3398927222587317  0.6094194322732277  0.20491774211390634  1.0000
  H   H22       1.0  0.4429338266118635  0.7169247021322038  0.1972774446449393  1.0000
  H   H23       1.0  0.040753503993727194  0.34515472791569124  0.4263132485084925  1.0000
  H   H24       1.0  0.18088146936288038  0.43138257564856997  0.7906807824862414  1.0000
  H   H25       1.0  0.11206412039253172  0.3211066583252632  0.816877609077274  1.0000
  H   H26       1.0  0.0615155043745688  0.18210688122498916  0.6142388265222822  1.0000
  H   H27       1.0  0.15605493115004518  0.21845838555647387  0.7208302939240172  1.0000
  H   H28       1.0  0.017870940983563285  0.1121473839615561  0.7031410737484907  1.0000
  H   H29       1.0  0.903049625922307  0.7471624683362708  0.5686865975680179  1.0000
  H   H30       1.0  0.07647270948225324  0.7842714163145034  0.583268292265018  1.0000
  H   H31       1.0  0.9854700065004425  0.7722670326494668  0.6790161129572213  1.0000
  H   H32       1.0  0.9462635450788353  0.5328554571759484  0.3308655921376556  1.0000
  H   H33       1.0  0.8531057619376554  0.42632709198027663  0.2848739228221718  1.0000
  H   H34       1.0  0.8344497045532293  0.36234979469756473  0.41443832856972324  1.0000
  H   H35       1.0  0.23968005578738172  0.516627323380874  0.6722289180364599  1.0000
  H   H36       1.0  0.12323287701505586  0.5663028168798689  0.6869995897970329  1.0000
  H   H37       1.0  0.4668690251268258  0.5440824931912119  0.21301737024725043  1.0000
  H   H38       1.0  0.32629541564086395  0.24698242435680126  0.24190873159790277  1.0000
  H   H39       1.0  0.16509414787671517  0.25963170054635754  0.9432433959293791  1.0000
  H   H40       1.0  0.5059370230394222  0.8170938911225605  0.8991363823629686  1.0000
  H   H41       1.0  0.5490306572152618  0.7644395094892431  0.7442573540313904  1.0000
  C   C1        1.0  0.511342580219022  0.5793708327413258  0.6622625134069154  1.0000
  C   C2        1.0  0.3815212178490198  0.5707894387014463  0.8910635675363212  1.0000
  C   C3        1.0  0.42039474782048797  0.6714220791237508  0.9276427664009363  1.0000
  C   C4        1.0  0.26771861454531626  0.4819989743291161  0.497697569935113  1.0000
  C   C5        1.0  0.327364001081385  0.4998227105793803  0.9472166137956182  1.0000
  C   C6        1.0  0.3503392929960967  0.5282286769299703  0.04157972842281771  1.0000
  C   C7        1.0  0.3776344632486753  0.6290536944070552  0.07638785844612533  1.0000
  C   C8        1.0  0.40224999170738585  0.6983739824165556  0.019229663547292778  1.0000
  C   C9        1.0  0.24859345922070727  0.40249064449631083  0.9128441102261748  1.0000
  C   C10       1.0  0.22420312813009952  0.33334411738216113  0.9694671581431893  1.0000
  C   C11       1.0  0.27806763667961587  0.3549859186826013  0.05964627470139312  1.0000
  C   C12       1.0  0.8927700220372755  0.49246239387723273  0.508925797445862  1.0000
  C   C13       1.0  0.3420693498941034  0.4537641592514207  0.09754073968424143  1.0000
  C   C14       1.0  0.2721873085738124  0.2818304950472381  0.11390746840046265  1.0000
  C   C15       1.0  0.3309766822588074  0.30316221079925043  0.20036965482542266  1.0000
  C   C16       1.0  0.4654335801515045  0.427493699627462  0.3289417079507687  1.0000
  C   C17       1.0  0.4059832281453026  0.47220301354573024  0.18423949693708866  1.0000
  C   C18       1.0  0.2807822416727817  0.1323826608082612  0.6032223193838249  1.0000
  C   C19       1.0  0.3231234100528297  0.22835376413025443  0.5910506006620297  1.0000
  C   C20       1.0  0.49599151933922764  0.20421977509523265  0.5156407531193354  1.0000
  C   C21       1.0  0.4601776303144192  0.10511764100136392  0.5233799321743791  1.0000
  C   C22       1.0  0.3510082140495285  0.06833596018176992  0.5705370597589053  1.0000
  C   C23       1.0  0.9070443793141365  0.43329211916905325  0.4184613883218661  1.0000
  C   C24       1.0  0.5283039481040744  0.04051203490375601  0.4844809850451244  1.0000
  C   C25       1.0  0.48987925624329165  0.9428482971989072  0.4987805747277393  1.0000
  C   C26       1.0  0.38271221840078334  0.909833985292032  0.5492229822636149  1.0000
  C   C27       1.0  0.3143038248342264  0.969756384475879  0.5828399853294358  1.0000
  C   C28       1.0  0.7529922049955429  0.49396705626821114  0.5100199092108897  1.0000
  C   C29       1.0  0.6305972718760416  0.07177656959652982  0.4293219788607986  1.0000
  C   C30       1.0  0.6914169508484918  0.0097826894357098  0.38875109201493546  1.0000
  C   C31       1.0  0.6571702200367043  0.9114862502757293  0.4026701008413981  1.0000
  C   C32       1.0  0.5582916228267791  0.8785659130841951  0.459596480530607  1.0000
  C   C33       1.0  0.7176008081087984  0.8448179966367347  0.36256955747473546  1.0000
  C   C34       1.0  0.929856702428026  0.442213080655364  0.5851305232915964  1.0000
  C   C35       1.0  0.6832712197177244  0.751699680359366  0.3815347895323671  1.0000
  C   C36       1.0  0.5326836944739454  0.7825351156792382  0.4759407291607333  1.0000
  C   C37       1.0  0.12243765695478706  0.5899302026037176  0.502009383879731  1.0000
  C   C38       1.0  0.9858805839887239  0.5950704672471262  0.518199299259287  1.0000
  C   C39       1.0  0.04423751450063662  0.4203730768862074  0.42207126936003914  1.0000
  C   C40       1.0  0.07406075107960669  0.4474106849630105  0.5885714160685753  1.0000
  C   C41       1.0  0.1301211320621505  0.48698275562379223  0.5036278730602747  1.0000
  C   C42       1.0  0.09840945021134927  0.15613467867335373  0.6721855491871054  1.0000
  C   C43       1.0  0.9875845817350494  0.741866951080681  0.6088777722752499  1.0000
  C   C44       1.0  0.4757702727788029  0.6122660353827956  0.7527113718621268  1.0000
  C   C45       1.0  0.40133397499274537  0.3995061469744244  0.23576093710239837  1.0000
  C   C46       1.0  0.4766992491544784  0.7402296641923771  0.8721340570883813  1.0000
  C   C47       1.0  0.5029998914536264  0.7116578844776315  0.7861426713177554  1.0000
  C   C48       1.0  0.4137677154902449  0.5440161512895757  0.8042478547022899  1.0000
  N   N1        1.0  0.429913057037531  0.26219404368557525  0.5486029891232463  1.0000
  N   N2        1.0  0.5932508565153467  0.7221789503762892  0.4391047045198065  1.0000
  N   N3        1.0  0.4182816369148836  0.7945782072167163  0.05532669929348799  1.0000
  N   N4        1.0  0.36532416079480606  0.6624403588626109  0.16638620431629655  1.0000
  N   N5        1.0  0.1936504648711406  0.3778444900263481  0.8245141082398393  1.0000
  N   N6        1.0  0.8718198388643259  0.47577868847889004  0.3419729096047065  1.0000
  N   N7        1.0  0.14227789793871878  0.5014520952521265  0.6747541891698319  1.0000
  O   O1        1.0  0.5456811148081543  0.6429982392252784  0.610798263838632  1.0000
  O   O2        1.0  0.9837743156299651  0.6439009614888036  0.6074291430735743  1.0000
  O   O3        1.0  0.5018775615987323  0.48996883998864155  0.6419427592986298  1.0000
  O   O4        1.0  0.34951234611995824  0.5530604814889416  0.4729882348880708  1.0000
  O   O5        1.0  0.28989298531861607  0.4059341290631835  0.5173792722224422  1.0000
  O   O6        1.0  0.5312354421021084  0.5161341615799699  0.35205753664670425  1.0000
  O   O7        1.0  0.4466747040226053  0.36314772882029445  0.38022437937546993  1.0000
  O   O8        1.0  0.7294636525432168  0.5729198149780076  0.5035459337350902  1.0000
  O   O9        1.0  0.6697613542200144  0.4140593285986256  0.5164327358749079  1.0000
  O   O10       1.0  0.1739196419470517  0.09342215873189023  0.6440148848680638  1.0000
