data_image0
_chemical_formula_structural       CuH8C12N2O4
_chemical_formula_sum              "Cu1 H8 C12 N2 O4"
_cell_length_a       5.200974171208161
_cell_length_b       7.745097194430904
_cell_length_c       8.8142181294972
_cell_angle_alpha    74.42040083155062
_cell_angle_beta     83.92201866683807
_cell_angle_gamma    70.03572623969704

_space_group_name_H-M_alt    "P 1"
_space_group_IT_number       1

loop_
  _space_group_symop_operation_xyz
  'x, y, z'

loop_
  _atom_site_type_symbol
  _atom_site_label
  _atom_site_symmetry_multiplicity
  _atom_site_fract_x
  _atom_site_fract_y
  _atom_site_fract_z
  _atom_site_occupancy
  Cu  Cu1       1.0  0.9999994562572566  2.5687971146012454e-06  0.9999967800187264  1.0000
  H   H1        1.0  0.13175927608092738  0.5279695149559276  0.8937259681063593  1.0000
  H   H2        1.0  0.8682347424407906  0.47202802047254266  0.10628009588138812  1.0000
  H   H3        1.0  0.2824335610016604  0.7173207826029183  0.6479222010428174  1.0000
  H   H4        1.0  0.7175533853665071  0.28267971755958143  0.3520779305028299  1.0000
  H   H5        1.0  0.7553437848401927  0.5849956298414014  0.5386674780787358  1.0000
  H   H6        1.0  0.24464442635944275  0.41500622322180203  0.46133568171332223  1.0000
  H   H7        1.0  0.06336322646890839  0.2641776200766017  0.6877011302826473  1.0000
  H   H8        1.0  0.9366308476638207  0.7358285108410599  0.3122950614377515  1.0000
  C   C1        1.0  0.45750388925036845  0.17530910724147475  0.073859834144379  1.0000
  C   C2        1.0  0.5425056621902085  0.8246883249727548  0.9261442281194617  1.0000
  C   C3        1.0  0.5194179472857456  0.29996292340567987  0.9201475681668541  1.0000
  C   C4        1.0  0.4805857960644743  0.7000303313018322  0.07985662861388929  1.0000
  C   C5        1.0  0.3353935812363673  0.47299521328224614  0.8442649394402862  1.0000
  C   C6        1.0  0.6646102641954171  0.5270152156790289  0.15572065173155636  1.0000
  C   C7        1.0  0.42041364537683285  0.5785312049992157  0.7061401556418261  1.0000
  C   C8        1.0  0.5795783770615727  0.42145774993241514  0.2938758884630275  1.0000
  C   C9        1.0  0.6833679817248849  0.5059203767285183  0.6461354110753419  1.0000
  C   C10       1.0  0.3166241892656386  0.49409433122144725  0.35385329407906596  1.0000
  C   C11       1.0  0.8554581305702484  0.33061197188580843  0.7267465901228789  1.0000
  C   C12       1.0  0.14454299171247692  0.6693784097740761  0.2732629394229845  1.0000
  N   N1        1.0  0.7740284123158148  0.23278361594589828  0.86177280772241  1.0000
  N   N2        1.0  0.2259806146855823  0.7672197076883975  0.13821407900572072  1.0000
  O   O1        1.0  0.22136774460772557  0.21265649658272417  0.13094859764254346  1.0000
  O   O2        1.0  0.7786404464107477  0.7873436546929895  0.8690628757394309  1.0000
  O   O3        1.0  0.6663302372364796  0.03191218444127491  0.1358456167890267  1.0000
  O   O4        1.0  0.3336884273749591  0.9680824520174198  0.8641517418834255  1.0000
