data_image0
_chemical_formula_structural       CdH12C12N2Cl2O2
_chemical_formula_sum              "Cd1 H12 C12 N2 Cl2 O2"
_cell_length_a       3.9165877104293845
_cell_length_b       8.024012841486797
_cell_length_c       9.956892182067827
_cell_angle_alpha    84.58811320603705
_cell_angle_beta     82.32256714757165
_cell_angle_gamma    83.97910994210906

_space_group_name_H-M_alt    "P 1"
_space_group_IT_number       1

loop_
  _space_group_symop_operation_xyz
  'x, y, z'

loop_
  _atom_site_type_symbol
  _atom_site_label
  _atom_site_symmetry_multiplicity
  _atom_site_fract_x
  _atom_site_fract_y
  _atom_site_fract_z
  _atom_site_occupancy
  Cd  Cd1       1.0  0.49999667026756345  0.5000012714921099  0.4999997829571186  1.0000
  H   H1        1.0  0.8958542938773775  0.11208153044064059  0.6248643625595065  1.0000
  H   H2        1.0  0.1041446445325676  0.8879184999057869  0.3751330749574606  1.0000
  H   H3        1.0  0.5150124032241621  0.10491264972047533  0.5505390323253466  1.0000
  H   H4        1.0  0.48498117737076285  0.895088635913133  0.4494606149522937  1.0000
  H   H5        1.0  0.30747349307134897  0.9080846313582001  0.7333753360526458  1.0000
  H   H6        1.0  0.692525720572277  0.09191413764971659  0.2666241898940029  1.0000
  H   H7        1.0  0.6896965792980437  0.9169639708427513  0.8113876610402642  1.0000
  H   H8        1.0  0.3103049707503303  0.08303605455352431  0.18861164151408621  1.0000
  H   H9        1.0  0.423322915101373  0.59124975840831  0.8039759755104328  1.0000
  H   H10       1.0  0.5766732419581047  0.4087515262630533  0.1960235297383122  1.0000
  H   H11       1.0  0.8491374313468468  0.20515543516798126  0.030664834523854306  1.0000
  H   H12       1.0  0.15085898335937037  0.7948445901588242  0.9693357556214294  1.0000
  C   C1        1.0  0.6132813605263933  0.11896795877402162  0.6466743659889573  1.0000
  C   C2        1.0  0.38671761305742786  0.8810320675844922  0.3533250785942954  1.0000
  C   C3        1.0  0.483241900836475  0.99223601130921  0.7627643308863626  1.0000
  C   C4        1.0  0.5167596492118987  0.007764014087065599  0.23723497166798782  1.0000
  C   C5        1.0  0.3117270461695796  0.261108713501102  0.8131633138932629  1.0000
  C   C6        1.0  0.6882747791124686  0.7388900505566627  0.1868380770907763  1.0000
  C   C7        1.0  0.148222430616876  0.3857370944934645  0.9059939996565447  1.0000
  C   C8        1.0  0.851781971129732  0.6142616686020548  0.09400724929859187  1.0000
  C   C9        1.0  0.23277460138044856  0.5524916339999707  0.8879493478856942  1.0000
  C   C10       1.0  0.7672269662548672  0.4475083894023514  0.11205095820179879  1.0000
  C   C11       1.0  0.9156557429236825  0.3344671836500339  0.018717933120875305  1.0000
  C   C12       1.0  0.08434582471163313  0.6655328397522948  0.9812823729666249  1.0000
  N   N1        1.0  0.4803282962890946  0.2854860203295431  0.6931894489013928  1.0000
  N   N2        1.0  0.5196758478107738  0.7145140021105406  0.30681071515721203  1.0000
  Cl  Cl1       1.0  0.9185150690429537  0.6741899354912063  0.603293512270689  1.0000
  Cl  Cl2       1.0  0.08148086554366778  0.32581260453681443  0.3967069151478028  1.0000
  O   O1        1.0  0.28880156125185846  0.09829195736842422  0.8641485397262797  1.0000
  O   O2        1.0  0.7111976699787022  0.9017068096455318  0.1358519897535118  1.0000
