data_image0
_chemical_formula_structural       Cd4H44C56N12O18
_chemical_formula_sum              "Cd4 H44 C56 N12 O18"
_cell_length_a       9.659912721
_cell_length_b       12.332312537842107
_cell_length_c       14.075
_cell_angle_alpha    111.53153365745077
_cell_angle_beta     90.0
_cell_angle_gamma    113.05683262675292

_space_group_name_H-M_alt    "P 1"
_space_group_IT_number       1

loop_
  _space_group_symop_operation_xyz
  'x, y, z'

loop_
  _atom_site_type_symbol
  _atom_site_label
  _atom_site_symmetry_multiplicity
  _atom_site_fract_x
  _atom_site_fract_y
  _atom_site_fract_z
  _atom_site_occupancy
  Cd  Cd1       1.0  0.9391814726097395  0.9440430467476162  0.347009165387668  1.0000
  Cd  Cd2       1.0  0.995403889723903  0.0559920554909681  0.1530690496755156  1.0000
  Cd  Cd3       1.0  0.0608171449642896  0.055955536008134694  0.6529898104829998  1.0000
  Cd  Cd4       1.0  0.0045957630561587505  0.9440065272647897  0.8469277947564323  1.0000
  H   H1        1.0  0.37543877282350724  0.8067009601351742  0.16764951780383092  1.0000
  H   H2        1.0  0.5690062458440224  0.19305063559196609  0.3322146166157581  1.0000
  H   H3        1.0  0.6245614346510565  0.1932966615815559  0.8323463071055672  1.0000
  H   H4        1.0  0.4309958836766938  0.8069508302808543  0.6677845759042571  1.0000
  H   H5        1.0  0.2136378674856942  0.589475387948596  0.413967852351881  1.0000
  H   H6        1.0  0.6240660263486646  0.4105308831193355  0.08608830278975428  1.0000
  H   H7        1.0  0.7863633010119458  0.4105241558461755  0.5860293011230411  1.0000
  H   H8        1.0  0.37593906042423697  0.5894744269095753  0.9139142573408778  1.0000
  H   H9        1.0  0.2479772995264256  0.7989271154874373  0.32301965142481504  1.0000
  H   H10       1.0  0.4493754785774442  0.20098401271732766  0.17689294221017351  1.0000
  H   H11       1.0  0.7520208375360582  0.20107050622929276  0.6769761734845829  1.0000
  H   H12       1.0  0.550625615737232  0.7990174531554928  0.8231076712689929  1.0000
  H   H13       1.0  0.9826306028976362  0.7823194001508682  0.4775021703765249  1.0000
  H   H14       1.0  0.2002227717413518  0.217743572219355  0.022659607288140614  1.0000
  H   H15       1.0  0.01736953039396381  0.21768014364391058  0.5224978250166857  1.0000
  H   H16       1.0  0.7997823892145206  0.7822598157315069  0.9773352299608079  1.0000
  H   H17       1.0  0.9283943974649347  0.6547184050638819  0.15195633228877634  1.0000
  H   H18       1.0  0.27399440105990175  0.3455310088765771  0.3482092718265336  1.0000
  H   H19       1.0  0.0716082125673196  0.3452840218479594  0.8480445902333572  1.0000
  H   H20       1.0  0.7259862858658295  0.6544627686840698  0.651783895951823  1.0000
  H   H21       1.0  0.40126404071163085  0.830854753871307  0.48279786716174306  1.0000
  H   H22       1.0  0.5707262293643327  0.1691255691430342  0.017115663180163703  1.0000
  H   H23       1.0  0.598734651045362  0.16914190680640218  0.5171983591842562  1.0000
  H   H24       1.0  0.4292738297443037  0.8308758967297862  0.9828835293398515  1.0000
  H   H25       1.0  0.94062124256115  0.4617859772716031  0.20793248106717505  1.0000
  H   H26       1.0  0.4789123075582182  0.5384115405616683  0.292098495118303  1.0000
  H   H27       1.0  0.05937881654748621  0.5382154886012174  0.7920667114528401  1.0000
  H   H28       1.0  0.5210801729625274  0.46158512011604097  0.707903415064287  1.0000
  H   H29       1.0  0.29456379449128894  0.4078159478826109  0.5211172102069171  1.0000
  H   H30       1.0  0.8866972763215487  0.5920231023955225  0.9789256687929397  1.0000
  H   H31       1.0  0.7054373740063511  0.592183595912168  0.47887994326800526  1.0000
  H   H32       1.0  0.1133131348474947  0.407978363477298  0.021077076124946432  1.0000
  H   H33       1.0  0.334688176095753  0.5470282164315705  0.6349269232690348  1.0000
  H   H34       1.0  0.7876643466134469  0.4528146780026461  0.8650994299133715  1.0000
  H   H35       1.0  0.6653124377073922  0.4529722884022291  0.3650705392488548  1.0000
  H   H36       1.0  0.2123337162660732  0.5471848657921328  0.13490340739814144  1.0000
  H   H37       1.0  0.3855754755700644  0.563264009666689  0.5182658348817455  1.0000
  H   H38       1.0  0.8221948902111436  0.43659522243090265  0.9817984540916103  1.0000
  H   H39       1.0  0.6144251382330738  0.4367364951671107  0.481731627636144  1.0000
  H   H40       1.0  0.17780110225629636  0.5634043213638762  0.018206514658622528  1.0000
  H   H41       1.0  0.17329557392087477  0.9400758776654213  0.19182721929455235  1.0000
  H   H42       1.0  0.23317666364679474  0.0600649388655654  0.3083695375650494  1.0000
  H   H43       1.0  0.8267040788591872  0.059922705090329494  0.8081724670556909  1.0000
  H   H44       1.0  0.7668213992327253  0.9399346049292134  0.691629036869017  1.0000
  C   C1        1.0  0.5904042152992446  0.8399807804227848  0.2439669975025752  1.0000
  C   C2        1.0  0.7507841237995266  0.1599562958355705  0.2558949704880931  1.0000
  C   C3        1.0  0.40959551166378827  0.1600158802549245  0.7560299393229998  1.0000
  C   C4        1.0  0.2492180057211897  0.84004517003725  0.7441056429910733  1.0000
  C   C5        1.0  0.4362425604482141  0.8173781036679202  0.23802792307848372  1.0000
  C   C6        1.0  0.6191609334266274  0.18245614141510197  0.26184360608838386  1.0000
  C   C7        1.0  0.5637571665148116  0.18261855700979618  0.7619683032675156  1.0000
  C   C8        1.0  0.3808401608880486  0.8175453244577183  0.738156296911207  1.0000
  C   C9        1.0  0.1454053703694385  0.5016863953807302  0.5237643929828408  1.0000
  C   C10       1.0  0.6436719131406576  0.49822281074598607  0.9762285772376064  1.0000
  C   C11       1.0  0.8545957981282086  0.4983131484140415  0.47623418145123253  1.0000
  C   C12       1.0  0.3563330994492873  0.5017844213609592  0.0237753114585502  1.0000
  C   C13       1.0  0.7080999365740865  0.8873878743315727  0.511027764159529  1.0000
  C   C14       1.0  0.8207115747161993  0.1123387343809981  0.9887629710219559  1.0000
  C   C15       1.0  0.2918951690532481  0.1126078253071157  0.48897028458221575  1.0000
  C   C16       1.0  0.17928752336936066  0.8876608094137807  0.011235603412117663  1.0000
  C   C17       1.0  0.1206026238566763  0.547531800879021  0.45127784935404247  1.0000
  C   C18       1.0  0.5730156754809244  0.4524590935645634  0.04875133623322369  1.0000
  C   C19       1.0  0.8793970289233854  0.45246678187673683  0.5487204160370497  1.0000
  C   C20       1.0  0.4269914075211005  0.547548138542389  0.9512532629425082  1.0000
  C   C21       1.0  0.6060111538600665  0.8569815607192907  0.41429648991587703  1.0000
  C   C22       1.0  0.7492712642291721  0.1428949700806896  0.0855673227546419  1.0000
  C   C23       1.0  0.39398554166781  0.1430131778803769  0.5856998288237493  1.0000
  C   C24       1.0  0.250729349573966  0.8571055347531099  0.9144322712019745  1.0000
  C   C25       1.0  0.3670209301021358  0.8137434540872874  0.32442075665367304  1.0000
  C   C26       1.0  0.5535755109509637  0.1861561416492208  0.1754788922311619  1.0000
  C   C27       1.0  0.6329777616548569  0.186253206590429  0.6755754696923263  1.0000
  C   C28       1.0  0.44642558336371246  0.8138453242235996  0.8245217212479972  1.0000
  C   C29       1.0  0.9789783651688854  0.5453733072359483  0.4286299200066353  1.0000
  C   C30       1.0  0.43358171833766335  0.4547117690317748  0.07141392124146513  1.0000
  C   C31       1.0  0.021021768122722093  0.4546262365588305  0.5713679439478627  1.0000
  C   C32       1.0  0.5664259193588634  0.5452945020361568  0.9285903688912855  1.0000
  C   C33       1.0  0.9663903754671496  0.7229329548347252  0.3957145826928895  1.0000
  C   C34       1.0  0.2434722919468228  0.2772040175401713  0.10443688826124031  1.0000
  C   C35       1.0  0.033609203129948584  0.2770675499990745  0.6042850112637198  1.0000
  C   C36       1.0  0.7565283218563152  0.7227964872936212  0.8955577323383609  1.0000
  C   C37       1.0  0.9403240679402531  0.6518093399447479  0.22735407412642422  1.0000
  C   C38       1.0  0.2887389655254609  0.3483843337324402  0.2727999998125555  1.0000
  C   C39       1.0  0.05967854209199428  0.3481930869670933  0.7726454274365652  1.0000
  C   C40       1.0  0.7112488936595867  0.6516113659062484  0.7271959174904694  1.0000
  C   C41       1.0  0.6731309374215186  0.8482341835424236  0.15317878502901291  1.0000
  C   C42       1.0  0.8253451491669211  0.1518345550619244  0.3467198380125041  1.0000
  C   C43       1.0  0.3268711920991976  0.1517672823303968  0.8468204074910021  1.0000
  C   C44       1.0  0.17465808974279887  0.8481649887328473  0.6532794469011379  1.0000
  C   C45       1.0  0.45170358384057613  0.8316149357375905  0.41367109457694085  1.0000
  C   C46       1.0  0.6203737023448781  0.168320218442723  0.08624069937750532  1.0000
  C   C47       1.0  0.5482946274048786  0.1683807639010979  0.5863248227260771  1.0000
  C   C48       1.0  0.379627391969798  0.8316812474300973  0.9137599141016538  1.0000
  C   C49       1.0  0.9473924840661212  0.5566972300303945  0.2534749257676482  1.0000
  C   C50       1.0  0.3908168339941653  0.4434868332565784  0.24661140410038485  1.0000
  C   C51       1.0  0.05260916494306396  0.44330327480340503  0.746523247229824  1.0000
  C   C52       1.0  0.6091781232672346  0.5565127105382004  0.7533878808132572  1.0000
  C   C53       1.0  0.2979863043364972  0.5050029410451343  0.5506376498422086  1.0000
  C   C54       1.0  0.7929304840985552  0.49485725209147086  0.9493963975524552  1.0000
  C   C55       1.0  0.7020132742606008  0.49499756378866516  0.44936052315525643  1.0000
  C   C56       1.0  0.20707308695677545  0.505147096898412  0.05060869545349791  1.0000
  N   N1        1.0  0.6722883585017243  0.8612408856641309  0.33111270478890736  1.0000
  N   N2        1.0  0.8113663324222031  0.138676008774766  0.16873993138100474  1.0000
  N   N3        1.0  0.3277098527437304  0.1387548139745576  0.6688839229936863  1.0000
  N   N4        1.0  0.188633246174895  0.8613244960590265  0.8312596625756116  1.0000
  N   N5        1.0  0.964080302449787  0.603829466778933  0.3606931320665297  1.0000
  N   N6        1.0  0.360218697436423  0.3963209601422689  0.13938877561357543  1.0000
  N   N7        1.0  0.035919276147311066  0.3961710380548666  0.6393050409309354  1.0000
  N   N8        1.0  0.6397839125958314  0.6036814667695722  0.8606114364289897  1.0000
  N   N9        1.0  0.9524726529819108  0.7541109827815546  0.31661160281415596  1.0000
  N   N10       1.0  0.1985105229250408  0.24605482076400156  0.18357045381641515  1.0000
  N   N11       1.0  0.0475279608212276  0.245889522052245  0.6833887016220361  1.0000
  N   N12       1.0  0.801483953824821  0.7539437619917493  0.8164235486972374  1.0000
  O   O1        1.0  0.14348078820452767  0.9999784009362926  0.250114688454893  1.0000
  O   O2        1.0  0.8565183098810324  2.11428584791e-05  0.7498838859791803  1.0000
  O   O3        1.0  0.8156114253921417  0.8685678471667017  0.1653445144976118  1.0000
  O   O4        1.0  0.9475837244306791  0.1316402420958127  0.33463444375383494  1.0000
  O   O5        1.0  0.18439022361703652  0.1314326576670908  0.8346543689794289  1.0000
  O   O6        1.0  0.052417444066961076  0.8683593016989661  0.6653641306802385  1.0000
  O   O7        1.0  0.8522202820270195  0.9407908906976771  0.5124479110327799  1.0000
  O   O8        1.0  0.9115921488244538  0.05910101672665039  0.987366139398141  1.0000
  O   O9        1.0  0.1477768198294243  0.0592067310190529  0.48755075579491364  1.0000
  O   O10       1.0  0.08840598823803685  0.9408966049900868  0.012631816949976813  1.0000
  O   O11       1.0  0.6008508317805692  0.8371553256985464  0.07441187474680791  1.0000
  O   O12       1.0  0.7641058279428563  0.16286247783764196  0.42547392141495527  1.0000
  O   O13       1.0  0.3991532197862995  0.16284998433035716  0.9255864225063776  1.0000
  O   O14       1.0  0.2358953405547908  0.8371370659571298  0.574526784457838  1.0000
  O   O15       1.0  0.6453719450215871  0.8596321063415501  0.5826394165839306  1.0000
  O   O16       1.0  0.7854149046375056  0.13982541144490307  0.9170640760852464  1.0000
  O   O17       1.0  0.35462460214036173  0.1403664764142007  0.4173581383275859  1.0000
  O   O18       1.0  0.21458371293651618  0.8601731713108549  0.08293489978542112  1.0000
