data_image0
_chemical_formula_structural       Zn2H18C30S4N4O8
_chemical_formula_sum              "Zn2 H18 C30 S4 N4 O8"
_cell_length_a       8.862260114410764
_cell_length_b       11.039973177393309
_cell_length_c       10.785624469399204
_cell_angle_alpha    90.76713574591143
_cell_angle_beta     105.435719686339
_cell_angle_gamma    104.88038843195632

_space_group_name_H-M_alt    "P 1"
_space_group_IT_number       1

loop_
  _space_group_symop_operation_xyz
  'x, y, z'

loop_
  _atom_site_type_symbol
  _atom_site_label
  _atom_site_symmetry_multiplicity
  _atom_site_fract_x
  _atom_site_fract_y
  _atom_site_fract_z
  _atom_site_occupancy
  Zn  Zn1       1.0  0.6675978273732995  0.6689682859804053  0.09894253393019883  1.0000
  Zn  Zn2       1.0  0.33240704444763486  0.3310409721212509  0.901055019087309  1.0000
  H   H1        1.0  0.1777748002875299  0.5501243957727979  0.351096867519729  1.0000
  H   H2        1.0  0.8222145937581687  0.4498773341292902  0.6488960695427366  1.0000
  H   H3        1.0  0.01665770917345102  0.6850012729057298  0.22611441239158128  1.0000
  H   H4        1.0  0.9833299043395769  0.3149986208685007  0.7738752912198945  1.0000
  H   H5        1.0  0.5786324233705217  0.4241898578113704  0.21002144597482442  1.0000
  H   H6        1.0  0.42136568077999204  0.5758238732711334  0.7899876940777517  1.0000
  H   H7        1.0  0.6809392541787674  0.9461422109532692  0.48410632187226804  1.0000
  H   H8        1.0  0.3190565906322221  0.05386134598097668  0.5158918250792864  1.0000
  H   H9        1.0  0.08650540728287134  0.726860874893589  0.9710330309878685  1.0000
  H   H10       1.0  0.9134993165699966  0.2731446062846672  0.028965310307029275  1.0000
  H   H11       1.0  0.720907253568811  0.2795006534873323  0.3361046292390242  1.0000
  H   H12       1.0  0.2790781432030585  0.7204999585593014  0.6638975788107544  1.0000
  H   H13       1.0  0.9069468116559847  0.9255019068593171  0.1169552119272055  1.0000
  H   H14       1.0  0.09306750573686173  0.0744875093467954  0.8830503989053611  1.0000
  H   H15       1.0  0.009577672254991388  0.12442063818675556  0.2645572886343217  1.0000
  H   H16       1.0  0.9904241031107759  0.8755697163627187  0.7354446030352262  1.0000
  H   H17       1.0  0.59137285630176  0.7577625076183024  0.32608944624304564  1.0000
  H   H18       1.0  0.4086259561088923  0.24223625830855164  0.6739147972094344  1.0000
  C   C1        1.0  0.16431885296681517  0.5671621315902514  0.042442984268369295  1.0000
  C   C2        1.0  0.8356873062475784  0.4328406089635379  0.9575509662062132  1.0000
  C   C3        1.0  0.04549024554214749  0.5203833284241739  0.32401666148223285  1.0000
  C   C4        1.0  0.9544994460330897  0.4796193108942289  0.6759782225360382  1.0000
  C   C5        1.0  0.8535164681970641  0.050634914458079494  0.38663240924168446  1.0000
  C   C6        1.0  0.1464878244905492  0.9493658960358005  0.6133638497186524  1.0000
  C   C7        1.0  0.11898628885927558  0.4380877972807653  0.06026960281068479  1.0000
  C   C8        1.0  0.8810160640464062  0.5619176493069915  0.9397300594054627  1.0000
  C   C9        1.0  0.9557746935392828  0.5948144753183016  0.2534939330103115  1.0000
  C   C10       1.0  0.0442161691771972  0.40518816564000554  0.7465012142034553  1.0000
  C   C11       1.0  0.9613878805224374  0.4041747133616411  0.35516738529140907  1.0000
  C   C12       1.0  0.03860258433804381  0.5958269085929685  0.6448322805594131  1.0000
  C   C13       1.0  0.33812049061454985  0.6445345791118982  0.0799467573406716  1.0000
  C   C14       1.0  0.6618879408139762  0.35546144201450147  0.9200558613160937  1.0000
  C   C15       1.0  0.7111223328501096  0.44906295947219377  0.24378733553636778  1.0000
  C   C16       1.0  0.28887138121382355  0.5509414096664998  0.7562177739167452  1.0000
  C   C17       1.0  0.7343205779118022  0.9458937491599002  0.4040087137433375  1.0000
  C   C18       1.0  0.26568333125216975  0.05410605798562069  0.5959911401979383  1.0000
  C   C19       1.0  0.23689539092888612  0.3669593932419629  0.13068691490497028  1.0000
  C   C20       1.0  0.7631043508294796  0.6330451719603545  0.8693084266521396  1.0000
  C   C21       1.0  0.045633815677007285  0.6268486980101285  0.983222267733197  1.0000
  C   C22       1.0  0.9543717387905204  0.37315582842569484  0.016777160769755984  1.0000
  C   C23       1.0  0.7914984014306796  0.36864698759508485  0.3142472574944363  1.0000
  C   C24       1.0  0.20849549085942704  0.6313545453471933  0.685758739879617  1.0000
  C   C25       1.0  0.8606837577645834  0.9348419382782183  0.19977116806447978  1.0000
  C   C26       1.0  0.139325725501827  0.0651503388753696  0.8002306547529158  1.0000
  C   C27       1.0  0.9168632685789007  0.045080092931499394  0.28153849287428295  1.0000
  C   C28       1.0  0.08314221117571212  0.954914090427124  0.718460629135997  1.0000
  C   C29       1.0  0.6848126821925149  0.8404404842810465  0.3169520726727768  1.0000
  C   C30       1.0  0.31519672781873004  0.15955835902633447  0.6830508449146676  1.0000
  S   S1        1.0  0.9166183364349579  0.1791917208319234  0.5047761352828743  1.0000
  S   S2        1.0  0.08337313102839519  0.8208091342443495  0.4952135339025218  1.0000
  S   S3        1.0  0.08077842644877359  0.3118242362505582  0.44405948925861344  1.0000
  S   S4        1.0  0.9192172560617922  0.6881755281049422  0.5559403696264411  1.0000
  N   N1        1.0  0.7919668391663847  0.5603453472898535  0.2132568613786319  1.0000
  N   N2        1.0  0.20803097873579895  0.4396572252311797  0.7867444832887216  1.0000
  N   N3        1.0  0.747471933742098  0.8340072664248551  0.21681917125039962  1.0000
  N   N4        1.0  0.2525375065272542  0.1659849637627033  0.7831854225353609  1.0000
  O   O1        1.0  0.2772578352092978  0.2899387581090309  0.06055194283811719  1.0000
  O   O2        1.0  0.7227491879290041  0.7100666793830045  0.9394496958161368  1.0000
  O   O3        1.0  0.27956888014035997  0.37714311632512215  0.2506950997038686  1.0000
  O   O4        1.0  0.720415859598475  0.6228519938975339  0.7492984607749308  1.0000
  O   O5        1.0  0.4420643084399174  0.578884340648905  0.08118690694179516  1.0000
  O   O6        1.0  0.5579369516229278  0.42110731306051014  0.9187935770849691  1.0000
  O   O7        1.0  0.37285132861713083  0.7605909461162882  0.1031018241548196  1.0000
  O   O8        1.0  0.6271603071613613  0.2394017114518192  0.8969338763175827  1.0000
