data_image0
_chemical_formula_structural       Cd2H36C44N24O12
_chemical_formula_sum              "Cd2 H36 C44 N24 O12"
_cell_length_a       9.39615319497531
_cell_length_b       11.19645339600552
_cell_length_c       11.732102806629968
_cell_angle_alpha    89.99992122936447
_cell_angle_beta     95.14139240283639
_cell_angle_gamma    89.99992536400912

_space_group_name_H-M_alt    "P 1"
_space_group_IT_number       1

loop_
  _space_group_symop_operation_xyz
  'x, y, z'

loop_
  _atom_site_type_symbol
  _atom_site_label
  _atom_site_symmetry_multiplicity
  _atom_site_fract_x
  _atom_site_fract_y
  _atom_site_fract_z
  _atom_site_occupancy
  Cd  Cd1       1.0  1.93728993699885e-07  0.49999957450833693  0.9999995570082307  1.0000
  Cd  Cd2       1.0  0.5000008748901977  0.9999999566372679  0.5000004301301575  1.0000
  H   H1        1.0  0.17938595812393035  0.5424955912836256  0.2849083840284195  1.0000
  H   H2        1.0  0.32061527254055033  0.042495269556873404  0.21509234384555506  1.0000
  H   H3        1.0  0.8206155803611284  0.45750373216092316  0.715093117380306  1.0000
  H   H4        1.0  0.6793862654413589  0.9575049470282623  0.7849083051644501  1.0000
  H   H5        1.0  0.902058934945636  0.2683549072921636  0.15777697885951625  1.0000
  H   H6        1.0  0.5979436803563304  0.7683561285104477  0.34222317085837534  1.0000
  H   H7        1.0  0.09794260253465843  0.7316444161536213  0.8422228177530544  1.0000
  H   H8        1.0  0.4020589256869158  0.23164498121462884  0.6577767020441743  1.0000
  H   H9        1.0  0.9647711216867733  0.23323822779932604  0.39110257675006477  1.0000
  H   H10       1.0  0.5352315538252271  0.7332380673950067  0.10889762335698093  1.0000
  H   H11       1.0  0.035227210098540206  0.7667628819283083  0.6088969909874181  1.0000
  H   H12       1.0  0.4647699836542998  0.2667621491907468  0.8911021732549431  1.0000
  H   H13       1.0  0.0459498333038439  0.2712756479270695  0.5665290791669124  1.0000
  H   H14       1.0  0.4540484217765624  0.7712772419621672  0.9334710072878496  1.0000
  H   H15       1.0  0.9540484984837648  0.7287227823806646  0.433470488572489  1.0000
  H   H16       1.0  0.545950978573238  0.22872386776482057  0.06652863674089822  1.0000
  H   H17       1.0  0.16366340426538534  0.3237876092874289  0.7589804900790472  1.0000
  H   H18       1.0  0.33633369322124207  0.8237896091462957  0.7410211495320382  1.0000
  H   H19       1.0  0.8363338599625082  0.6762108210197085  0.24102070616525148  1.0000
  H   H20       1.0  0.6636635710035961  0.17621239372071074  0.25898004670969504  1.0000
  H   H21       1.0  0.3356666423348784  0.4932706332847376  0.7799258423887281  1.0000
  H   H22       1.0  0.16433230018841274  0.9932728511422866  0.7200731494229448  1.0000
  H   H23       1.0  0.6643327580172171  0.5067277970223572  0.22007380164194507  1.0000
  H   H24       1.0  0.8356671001606203  0.006729151724670103  0.2799264946051565  1.0000
  H   H25       1.0  0.5647092540402312  0.5694250116634052  0.7367128983383396  1.0000
  H   H26       1.0  0.9352900504402016  0.06942538841589402  0.7632871473828617  1.0000
  H   H27       1.0  0.4352922839424451  0.4305743117817614  0.26328775067230487  1.0000
  H   H28       1.0  0.0647093499103661  0.9305748281711318  0.23671249664652555  1.0000
  H   H29       1.0  0.6914369099175772  0.7851897353936649  0.6811174587606106  1.0000
  H   H30       1.0  0.8085609550576648  0.285189277286463  0.8188804962776075  1.0000
  H   H31       1.0  0.3085635589974701  0.2148104811927212  0.31888226156004873  1.0000
  H   H32       1.0  0.1914384447912809  0.7148100461612119  0.18111829535434512  1.0000
  H   H33       1.0  0.30452076045982324  0.744654046271663  0.4727549132676431  1.0000
  H   H34       1.0  0.1954769168963537  0.24465591812148801  0.0272435908619713  1.0000
  H   H35       1.0  0.6954797084567517  0.2553443840347995  0.5272448070542951  1.0000
  H   H36       1.0  0.80452141488896  0.7553451916061462  0.9727559768755116  1.0000
  C   C1        1.0  0.11058178543495252  0.46512827655363503  0.27924856798853176  1.0000
  C   C2        1.0  0.38941978967722696  0.9651275682304715  0.2207524821485124  1.0000
  C   C3        1.0  0.8894186839824768  0.5348719400321329  0.7207520047302013  1.0000
  C   C4        1.0  0.6105828168691616  0.0348726483540247  0.7792482431527578  1.0000
  C   C5        1.0  0.9684950603471737  0.3205758273783417  0.21924918760397824  1.0000
  C   C6        1.0  0.5315074649183132  0.8205763165724775  0.28075003478568317  1.0000
  C   C7        1.0  0.03150540756310251  0.6794243892092738  0.780748827920519  1.0000
  C   C8        1.0  0.4684951411249259  0.1794247931525988  0.7192498381168735  1.0000
  C   C9        1.0  0.9969985353191078  0.30314163654873744  0.33465693203445573  1.0000
  C   C10       1.0  0.5030040203409315  0.8031414300077345  0.16534316776971997  1.0000
  C   C11       1.0  0.003003002160419  0.6968585800370094  0.6653428645774684  1.0000
  C   C12       1.0  0.49699751713859547  0.1968587865780124  0.8346566288421972  1.0000
  C   C13       1.0  0.15185158949971367  0.41713701626027716  0.4846797099829559  1.0000
  C   C14       1.0  0.3481479302613338  0.9171393284114303  0.015320404032934198  1.0000
  C   C15       1.0  0.8481478108523818  0.5828614140468177  0.5153199340477103  1.0000
  C   C16       1.0  0.6518525396577104  0.08286178131369583  0.9846810210832404  1.0000
  C   C17       1.0  0.11997640649737921  0.3459179864947473  0.5767366258031288  1.0000
  C   C18       1.0  0.38001958347767584  0.8459187829320104  0.923263200966993  1.0000
  C   C19       1.0  0.8800219252894691  0.6540813369529488  0.42326294193563296  1.0000
  C   C20       1.0  0.6199776797431582  0.15408232679625664  0.076736290479225  1.0000
  C   C21       1.0  0.18741400406850062  0.37465107826453464  0.6839558849832772  1.0000
  C   C22       1.0  0.3125830057092641  0.8746521028222319  0.8160448292475241  1.0000
  C   C23       1.0  0.8125832601586325  0.625348245182572  0.3160453112603748  1.0000
  C   C24       1.0  0.6874142580139522  0.1253490069054237  0.18395551459676807  1.0000
  C   C25       1.0  0.2845944559475555  0.4687120518365759  0.69622394315671  1.0000
  C   C26       1.0  0.21540453018963754  0.968714093324991  0.8037776410879122  1.0000
  C   C27       1.0  0.7154038768448248  0.531286378469929  0.3037773293788534  1.0000
  C   C28       1.0  0.7845948711649273  0.03128701640077481  0.19622370773699777  1.0000
  C   C29       1.0  0.30882018687957213  0.5315230712795085  0.5970372465740541  1.0000
  C   C30       1.0  0.19117847876340482  0.03152440648374011  0.9029623314986354  1.0000
  C   C31       1.0  0.6911802815346207  0.46847535902756493  0.4029616213498032  1.0000
  C   C32       1.0  0.808819853524291  0.9684767032432688  0.0970380886369213  1.0000
  C   C33       1.0  0.5311608069356311  0.6384853360386558  0.6749352562823037  1.0000
  C   C34       1.0  0.9688383781328797  0.1384864802890959  0.8250629855490107  1.0000
  C   C35       1.0  0.4688407305446632  0.3615139874071289  0.32506454033026  1.0000
  C   C36       1.0  0.031161022720837706  0.8615128431573499  0.17493751087909717  1.0000
  C   C37       1.0  0.5909370120948412  0.7454013218515597  0.6479263911570501  1.0000
  C   C38       1.0  0.9090609205968649  0.24540070618159865  0.8520707685747341  1.0000
  C   C39       1.0  0.4090634568202064  0.25459889473482616  0.3520733291636093  1.0000
  C   C40       1.0  0.0909384792528485  0.7545977241261073  0.14792802305785813  1.0000
  C   C41       1.0  0.3948857215559514  0.7282844829327149  0.5348224059749  1.0000
  C   C42       1.0  0.10511367479281121  0.22828760875678006  0.9651761136609739  1.0000
  C   C43       1.0  0.6051158154234884  0.271713054233757  0.46517653824086846  1.0000
  C   C44       1.0  0.8948857260593711  0.7717135009695968  0.034824382765855  1.0000
  N   N1        1.0  0.0396935799641653  0.4214145400313712  0.18590319132714236  1.0000
  N   N2        1.0  0.46030806909072913  0.9214154060894301  0.3140962167365161  1.0000
  N   N3        1.0  0.960307957516129  0.5785847834144137  0.8140966052854213  1.0000
  N   N4        1.0  0.5396945374556668  0.0785848104950659  0.685904508564761  1.0000
  N   N5        1.0  0.08793918710627222  0.39606528091772464  0.3722859928903547  1.0000
  N   N6        1.0  0.41206143735002604  0.8960646819205921  0.12771422765427334  1.0000
  N   N7        1.0  0.9120602137459105  0.6039358288086519  0.6277145035364742  1.0000
  N   N8        1.0  0.5879401006318832  0.10393553466454358  0.8722864213557316  1.0000
  N   N9        1.0  0.2439333042226934  0.5083676343896074  0.4937215080856775  1.0000
  N   N10       1.0  0.25606584782539  0.0083685771474364  0.006279116174326308  1.0000
  N   N11       1.0  0.7560671651962637  0.49163079591622966  0.5062790646343417  1.0000
  N   N12       1.0  0.7439346215912721  0.9916325325783009  0.9937214565437672  1.0000
  N   N13       1.0  0.40693446433056835  0.6282688283734502  0.6019547184563266  1.0000
  N   N14       1.0  0.09306510299705201  0.12827117093976884  0.8980430922923335  1.0000
  N   N15       1.0  0.5930670726488715  0.3717287087930147  0.3980442257594349  1.0000
  N   N16       1.0  0.9069342973527484  0.8717299387872262  0.10195655173641432  1.0000
  N   N17       1.0  0.5045411096288605  0.8007153756186086  0.5615132418143105  1.0000
  N   N18       1.0  0.9954567292274986  0.30071722052194627  0.9384855433429212  1.0000
  N   N19       1.0  0.49545935979086425  0.19928216154726644  0.43848733090634806  1.0000
  N   N20       1.0  0.0045426716254511  0.6992829960644684  0.06151495308454712  1.0000
  N   N21       1.0  0.33943162120643683  0.4770803168899178  0.0484561883293466  1.0000
  N   N22       1.0  0.16056993291044816  0.9770804190718537  0.45154399225931036  1.0000
  N   N23       1.0  0.6605699162730901  0.5229198996958289  0.9515436082825772  1.0000
  N   N24       1.0  0.839431605071461  0.022919797513282006  0.5484566567506947  1.0000
  O   O1        1.0  0.24646958533430316  0.49431105843918044  0.9626072023797223  1.0000
  O   O2        1.0  0.2535314935410257  0.9943107626850891  0.5373936453195683  1.0000
  O   O3        1.0  0.7535308840831264  0.5056891581465878  0.03739337033901082  1.0000
  O   O4        1.0  0.7464700444408905  0.005689453900046702  0.4626070036904367  1.0000
  O   O5        1.0  0.4197339943027032  0.38686152589528433  0.0481991169788785  1.0000
  O   O6        1.0  0.08026771449834771  0.886860822253098  0.45180119306336064  1.0000
  O   O7        1.0  0.5802675431760564  0.6131395838304315  0.9518006796323989  1.0000
  O   O8        1.0  0.9197338234835615  0.11313939433203761  0.5481994559466443  1.0000
  O   O9        1.0  0.34849003022879543  0.5494192307665955  0.1311103485358345  1.0000
  O   O10       1.0  0.15151011949801332  0.04941887210052439  0.36888944071423424  1.0000
  O   O11       1.0  0.651510439188634  0.4505809858191726  0.8688902241828987  1.0000
  O   O12       1.0  0.8484914179815136  0.9505813444852225  0.6311103558976896  1.0000
