data_image0
_chemical_formula_structural       Zn2HC32N2Cl8O8F13
_chemical_formula_sum              "Zn2 H1 C32 N2 Cl8 O8 F13"
_cell_length_a       9.977853186589455
_cell_length_b       11.016774881054356
_cell_length_c       17.31629428433675
_cell_angle_alpha    85.0103207244423
_cell_angle_beta     83.38394851458301
_cell_angle_gamma    90.78603548858469

_space_group_name_H-M_alt    "P 1"
_space_group_IT_number       1

loop_
  _space_group_symop_operation_xyz
  'x, y, z'

loop_
  _atom_site_type_symbol
  _atom_site_label
  _atom_site_symmetry_multiplicity
  _atom_site_fract_x
  _atom_site_fract_y
  _atom_site_fract_z
  _atom_site_occupancy
  Zn  Zn1       1.0  0.6376402526662232  0.503379455334411  0.5034698357180715  1.0000
  Zn  Zn2       1.0  0.35504582685054226  0.4991664945793845  0.5064004079092823  1.0000
  H   H1        1.0  0.2864486827506738  0.6092535911304537  0.7354305886255614  1.0000
  C   C1        1.0  0.499879309281468  0.733569485880288  0.5106671793370336  1.0000
  C   C2        1.0  0.4546508854590313  0.4909464923679965  0.7410496348187078  1.0000
  C   C3        1.0  0.5356587990225634  0.9440419568390441  0.4377932166571766  1.0000
  C   C4        1.0  0.5251542155885573  0.5412047255024606  0.3558672486343112  1.0000
  C   C5        1.0  0.5029400228701562  0.8703741698005205  0.5069932175919546  1.0000
  C   C6        1.0  0.47389451125742005  0.931920570462161  0.5743761017419755  1.0000
  C   C7        1.0  0.47525494733859125  0.061185460430216713  0.5714549624446831  1.0000
  C   C8        1.0  0.5080318069574901  0.13413708297856183  0.5006982774246608  1.0000
  C   C9        1.0  0.5406273109031049  0.07092581012567933  0.43520715168912  1.0000
  C   C10       1.0  0.5848133114291443  0.08758719954372651  0.34823641760287655  1.0000
  C   C11       1.0  0.5723298885847895  0.9423352717916701  0.3504927570885739  1.0000
  C   C12       1.0  0.6404130189460132  0.5194717330724716  0.21806337593330472  1.0000
  C   C13       1.0  0.06403586099521158  0.6088529695334159  0.502636610094541  1.0000
  C   C14       1.0  0.0622436945962619  0.4071100805784484  0.5273773878080517  1.0000
  C   C15       1.0  0.9174951804366955  0.4023685346067509  0.5345701624683625  1.0000
  C   C16       1.0  0.5042431448538451  0.27088558006427393  0.49642224625585357  1.0000
  C   C17       1.0  0.9249868077922085  0.6059344758598614  0.506941834596155  1.0000
  C   C18       1.0  0.914553888072035  0.7445316361260909  0.497527494289592  1.0000
  C   C19       1.0  0.0785680996134701  0.7474264360415082  0.49086712011509775  1.0000
  C   C20       1.0  0.46073894429770224  0.4789297382448369  0.6549774614852735  1.0000
  C   C21       1.0  0.5352632856795339  0.5645466814183351  0.2684265003815866  1.0000
  C   C22       1.0  0.4333331573995808  0.6292218305900263  0.2352100556236677  1.0000
  C   C23       1.0  0.5335293555541583  0.46002682221339347  0.8676376183523753  1.0000
  C   C24       1.0  0.433062568278359  0.6481565747172838  0.1547038955465253  1.0000
  C   C25       1.0  0.5328126140283445  0.5989869565262325  0.10391454176311037  1.0000
  C   C26       1.0  0.6366719636406586  0.5368560359285723  0.13741791725040287  1.0000
  C   C27       1.0  0.5454722633725595  0.43589614184933384  0.7890974810887383  1.0000
  C   C28       1.0  0.3559615809106162  0.5673755592190022  0.7732459213806278  1.0000
  C   C29       1.0  0.3476856254863776  0.59138248112604  0.8511369097851611  1.0000
  C   C30       1.0  0.4363961320996382  0.5368493877215316  0.9006644935987677  1.0000
  C   C31       1.0  0.524848946879537  0.6005986250063488  0.019766428265448582  1.0000
  C   C32       1.0  0.4267917596437344  0.5494420777544845  0.985179467475852  1.0000
  N   N1        1.0  0.13786581007008888  0.5078885550539172  0.510841071758193  1.0000
  N   N2        1.0  0.8477117627424066  0.5035560669718819  0.5203150805210938  1.0000
  Cl  Cl1       1.0  0.2284121506268733  0.6902486332791187  0.8868543350802509  1.0000
  Cl  Cl2       1.0  0.434445977375944  0.8469086471618823  0.6622959099760235  1.0000
  Cl  Cl3       1.0  0.4405693772901884  0.12948309021881957  0.656708314452352  1.0000
  Cl  Cl4       1.0  0.8403164205127353  0.26689086186236477  0.564154692695112  1.0000
  Cl  Cl5       1.0  0.6668798950524106  0.335539894385761  0.7591943749515762  1.0000
  Cl  Cl6       1.0  0.15923102941047057  0.8126226498608632  0.4024527780543749  1.0000
  Cl  Cl7       1.0  0.28795738824960176  0.47873945570735543  0.04065525447632007  1.0000
  Cl  Cl8       1.0  0.7683618615923605  0.4352910969279551  0.2517577945002002  1.0000
  O   O1        1.0  0.6071180826336048  0.6813895745236567  0.5261439498310663  1.0000
  O   O2        1.0  0.3908098352503302  0.6842754955867747  0.496885383712488  1.0000
  O   O3        1.0  0.6296918971926431  0.562211886338716  0.3884464449876147  1.0000
  O   O4        1.0  0.4104755934759441  0.5023119979516083  0.38921164740677466  1.0000
  O   O5        1.0  0.6150495603791056  0.32848496652355413  0.4743701438973174  1.0000
  O   O6        1.0  0.3901987503606533  0.31542016563893344  0.5149415282565355  1.0000
  O   O7        1.0  0.5737131305709511  0.4548475113143412  0.6183833763432884  1.0000
  O   O8        1.0  0.3517740775803944  0.4986529548901828  0.6245214982775733  1.0000
  F   F1        1.0  0.33131626750517995  0.6761135786250991  0.28060063411278685  1.0000
  F   F2        1.0  0.7330492155862842  0.48757852134683344  0.08932372071561187  1.0000
  F   F3        1.0  0.6180919882908285  0.4047464206786984  0.9143241099702022  1.0000
  F   F4        1.0  0.6342626154430206  0.6521799441150052  0.9734257582496109  1.0000
  F   F5        1.0  0.3331474354491987  0.7131115898649015  0.12639903104619774  1.0000
  F   F6        1.0  0.5018243077412025  0.15101075039022765  0.3025338948869133  1.0000
  F   F7        1.0  0.7134446410878469  0.13304117665454376  0.32645161722628285  1.0000
  F   F8        1.0  0.4721421125839099  0.9017147060004547  0.31021836824124444  1.0000
  F   F9        1.0  0.6874316316301616  0.8851190837523505  0.3249570085137704  1.0000
  F   F10       1.0  0.1241194672967723  0.30297006208102323  0.5383158354302108  1.0000
  F   F11       1.0  0.861137610461725  0.7944294812301536  0.43438847220437526  1.0000
  F   F12       1.0  0.8579579931204933  0.7956152916621309  0.5617932104382388  1.0000
  F   F13       1.0  0.12504698457424013  0.7989565804115559  0.552481318534525  1.0000
