data_image0
_chemical_formula_structural       Cd4H56C80S8N16O16
_chemical_formula_sum              "Cd4 H56 C80 S8 N16 O16"
_cell_length_a       8.938766078578286
_cell_length_b       16.758801968075378
_cell_length_c       19.323303646103195
_cell_angle_alpha    90.00025844560143
_cell_angle_beta     89.99968148570598
_cell_angle_gamma    101.4043288251666

_space_group_name_H-M_alt    "P 1"
_space_group_IT_number       1

loop_
  _space_group_symop_operation_xyz
  'x, y, z'

loop_
  _atom_site_type_symbol
  _atom_site_label
  _atom_site_symmetry_multiplicity
  _atom_site_fract_x
  _atom_site_fract_y
  _atom_site_fract_z
  _atom_site_occupancy
  Cd  Cd1       1.0  0.8138935832777107  0.9853129427834159  0.5581538771332433  1.0000
  Cd  Cd2       1.0  0.18611513784118475  0.5146816293806965  0.058152829201738095  1.0000
  Cd  Cd3       1.0  0.18611348161757488  0.014684672277489597  0.44184555902597106  1.0000
  Cd  Cd4       1.0  0.8138756625119683  0.4853237969550648  0.9418476420134853  1.0000
  H   H1        1.0  0.8038154365583736  0.665061309115991  0.8913897606244917  1.0000
  H   H2        1.0  0.19618981215167258  0.8349346321520201  0.3913914904400357  1.0000
  H   H3        1.0  0.19618864738826863  0.33494054284659575  0.1086091580370052  1.0000
  H   H4        1.0  0.8038169904852167  0.16506541168686786  0.6086074282144196  1.0000
  H   H5        1.0  0.898297414362723  0.7611127243390854  0.7943701841401136  1.0000
  H   H6        1.0  0.1017081537405033  0.7388840297224275  0.2943717831317869  1.0000
  H   H7        1.0  0.10170624027664839  0.23888791024060643  0.205627699499864  1.0000
  H   H8        1.0  0.8982943800043655  0.2611165988779618  0.7056276530391798  1.0000
  H   H9        1.0  0.1888634082620868  0.5964361592250995  0.7328559367228138  1.0000
  H   H10       1.0  0.8111418945936677  0.9035609448172223  0.23285944857678936  1.0000
  H   H11       1.0  0.8111400317182599  0.403563866665273  0.26714246442610096  1.0000
  H   H12       1.0  0.1888615453678071  0.09643908108058948  0.7671425751410865  1.0000
  H   H13       1.0  0.08143971377925405  0.5068637946261347  0.8334287652479446  1.0000
  H   H14       1.0  0.9185656619678824  0.9931337286029134  0.3334328666365991  1.0000
  H   H15       1.0  0.9185630346273328  0.49313744266251547  0.1665696359042315  1.0000
  H   H16       1.0  0.08143644245084398  0.006865682622020599  0.6665691570818026  1.0000
  H   H17       1.0  0.35750858902093796  0.7543247390791945  0.5068341168684682  1.0000
  H   H18       1.0  0.6424973760270092  0.7456793253959973  0.006836413173580501  1.0000
  H   H19       1.0  0.6424979989596196  0.24567469606930809  0.4931648017850705  1.0000
  H   H20       1.0  0.3575013181358031  0.2543231053477299  0.9931640580255774  1.0000
  H   H21       1.0  0.4700556571417564  0.8323722962862019  0.5552714933066767  1.0000
  H   H22       1.0  0.5299482529840064  0.667630743828333  0.0552727408548108  1.0000
  H   H23       1.0  0.5299475681795653  0.16762712091484386  0.44472742535117504  1.0000
  H   H24       1.0  0.470053374528085  0.3323704874810218  0.9447272128283543  1.0000
  H   H25       1.0  0.45952905160433494  0.7284904211242845  0.5806065162707839  1.0000
  H   H26       1.0  0.5404745945200062  0.7715127230809316  0.0806086599794895  1.0000
  H   H27       1.0  0.5404743883652259  0.27150960477033687  0.41939395491753123  1.0000
  H   H28       1.0  0.4595214285573234  0.228488478317054  0.9193918112207199  1.0000
  H   H29       1.0  0.4311390130279023  0.542371410972372  0.9331116473041092  1.0000
  H   H30       1.0  0.568859886651289  0.9576301380385103  0.4331097871735707  1.0000
  H   H31       1.0  0.5688561038031564  0.457630393139894  0.06689192895755981  1.0000
  H   H32       1.0  0.43113580232289905  0.0423637710398381  0.5668906840128259  1.0000
  H   H33       1.0  0.5236100420913773  0.6413052304824094  0.8406120100952564  1.0000
  H   H34       1.0  0.4763970236973308  0.8586941542979287  0.3406089676398381  1.0000
  H   H35       1.0  0.4763904645208186  0.35869599484977505  0.1593905311386123  1.0000
  H   H36       1.0  0.523604269708926  0.1412997846928477  0.6593915035393679  1.0000
  H   H37       1.0  0.22746971398036922  0.7940855210906506  0.9220361391930609  1.0000
  H   H38       1.0  0.7725324490838901  0.7059153916843427  0.42203949620465414  1.0000
  H   H39       1.0  0.7725322952423141  0.20591996506784224  0.0779632969880737  1.0000
  H   H40       1.0  0.22747728689688534  0.2940834527223046  0.5779599399535158  1.0000
  H   H41       1.0  0.14599528202687395  0.687127964383748  0.013323409602264701  1.0000
  H   H42       1.0  0.8539967354432108  0.8128748375853545  0.5133273025502589  1.0000
  H   H43       1.0  0.8539971161409026  0.3128756478415794  0.9866749915679378  1.0000
  H   H44       1.0  0.1460031272107756  0.18712456167141764  0.4866731686414667  1.0000
  H   H45       1.0  0.4054317720776908  0.026285643801294604  0.7723891902916761  1.0000
  H   H46       1.0  0.5945710140284035  0.4737082190782829  0.2723909490442651  1.0000
  H   H47       1.0  0.5945717154966275  0.9737113446238865  0.22761128089064897  1.0000
  H   H48       1.0  0.4054163518099898  0.526287468216644  0.7276121097056318  1.0000
  H   H49       1.0  0.22530121006822412  0.9600967451921179  0.7609459997483867  1.0000
  H   H50       1.0  0.7746995311975127  0.5399010590168772  0.2609487025059067  1.0000
  H   H51       1.0  0.7747031837388788  0.039899640524104996  0.2390539539217329  1.0000
  H   H52       1.0  0.22528735771535935  0.46009644836990293  0.7390559087777149  1.0000
  H   H53       1.0  0.35360026631045116  0.9872168482800842  0.6888195037259166  1.0000
  H   H54       1.0  0.6464041598807242  0.5127794601625411  0.1888213974592432  1.0000
  H   H55       1.0  0.6464013612070332  0.012784383027138798  0.31117941493754847  1.0000
  H   H56       1.0  0.35358790416503894  0.4872168597505889  0.8111806262661077  1.0000
  C   C1        1.0  0.8887756044321548  0.6523874704208481  0.8545941579996851  1.0000
  C   C2        1.0  0.1112270943404425  0.8476095191096391  0.3545977096991706  1.0000
  C   C3        1.0  0.1112262377497473  0.3476143695735772  0.1454032081351357  1.0000
  C   C4        1.0  0.8887799229365995  0.15239113342601474  0.6454043140153018  1.0000
  C   C5        1.0  0.9418055006432127  0.7051823047818288  0.800601872218607  1.0000
  C   C6        1.0  0.058200908752752425  0.7948138721753255  0.30060380231418554  1.0000
  C   C7        1.0  0.0581970331016564  0.2948183238185607  0.1993975639523597  1.0000
  C   C8        1.0  0.9418007663694964  0.20518432166246467  0.6993951163432826  1.0000
  C   C9        1.0  0.05115651915594544  0.6853541662914038  0.754870640159787  1.0000
  C   C10       1.0  0.9488445000668192  0.8146442216497293  0.2548744833120296  1.0000
  C   C11       1.0  0.9488460145970095  0.3146464623058023  0.24512724348162607  1.0000
  C   C12       1.0  0.05115889228988379  0.18535884171750888  0.7451275404118434  1.0000
  C   C13       1.0  0.1036089367821447  0.6130118967048617  0.7671778502610209  1.0000
  C   C14       1.0  0.8963966999985401  0.8869841369532097  0.2671826292860047  1.0000
  C   C15       1.0  0.8963909258799276  0.38698750254872744  0.2328210684011438  1.0000
  C   C16       1.0  0.10360673997102049  0.11301588894141189  0.7328178419023175  1.0000
  C   C17       1.0  0.04456878352804953  0.5637506660766504  0.8222765867834241  1.0000
  C   C18       1.0  0.955435110619774  0.9362486254413724  0.3222814055272778  1.0000
  C   C19       1.0  0.9554332733128774  0.4362517826070871  0.1777202618424525  1.0000
  C   C20       1.0  0.044568973307988785  0.06375322652865378  0.6777211357031803  1.0000
  C   C21       1.0  0.11127577971813453  0.7356005098524677  0.6956282027850094  1.0000
  C   C22       1.0  0.8887278363417652  0.7644000754331871  0.1956309701513277  1.0000
  C   C23       1.0  0.8887283042285077  0.26440134211011906  0.30437071587648756  1.0000
  C   C24       1.0  0.1112715493894072  0.23560114391438697  0.804370536064269  1.0000
  C   C25       1.0  0.16436297022602267  0.830972904265678  0.6002983481925667  1.0000
  C   C26       1.0  0.8356335783247532  0.6690266387925946  0.1003024328168109  1.0000
  C   C27       1.0  0.8356353422477696  0.16902527162040565  0.3996985004298068  1.0000
  C   C28       1.0  0.1643649011655555  0.33097518326712816  0.8997011434405451  1.0000
  C   C29       1.0  0.26296172092501285  0.7760953407497624  0.6057314493550335  1.0000
  C   C30       1.0  0.7370385629891416  0.7239054599563842  0.1057344509838529  1.0000
  C   C31       1.0  0.7370426252881116  0.22390408243164464  0.39426643428167557  1.0000
  C   C32       1.0  0.26295922494089297  0.27609757349630826  0.8942665377275106  1.0000
  C   C33       1.0  0.16311287156682405  0.8957048728889347  0.5485707790652299  1.0000
  C   C34       1.0  0.8368772760343929  0.6042938130567633  0.048572537501407  1.0000
  C   C35       1.0  0.8368883742508473  0.10429210356490158  0.45142658706085836  1.0000
  C   C36       1.0  0.16312077414594478  0.39570679162113004  0.9514305212442765  1.0000
  C   C37       1.0  0.39537588156704834  0.7723517115512806  0.5596873842281198  1.0000
  C   C38       1.0  0.6046281971921417  0.7276519553995796  0.0596902255893355  1.0000
  C   C39       1.0  0.6046273437542666  0.22764770564976536  0.4403115344297319  1.0000
  C   C40       1.0  0.3953704969679705  0.272350475345206  0.940310763119669  1.0000
  C   C41       1.0  0.38819125133108656  0.5987550169966268  0.9293929872248512  1.0000
  C   C42       1.0  0.6118144600250659  0.9012435151598907  0.4293902781427619  1.0000
  C   C43       1.0  0.6118061072781984  0.4012467990784785  0.07060955401424  1.0000
  C   C44       1.0  0.3881870004354511  0.09875406998964559  0.5706096755334968  1.0000
  C   C45       1.0  0.4405055948085135  0.655148777244314  0.8777564142443096  1.0000
  C   C46       1.0  0.5594938816736033  0.8448525443442917  0.3777567252537112  1.0000
  C   C47       1.0  0.5594922407208927  0.34485121874106267  0.12224560948075688  1.0000
  C   C48       1.0  0.44050447839686063  0.15514259407554928  0.6222416758922265  1.0000
  C   C49       1.0  0.38243778744190843  0.7269416423857178  0.873705562505073  1.0000
  C   C50       1.0  0.6175682895255646  0.7730560522920624  0.3737044077228049  1.0000
  C   C51       1.0  0.6175651756048381  0.273060203599691  0.1262959437071203  1.0000
  C   C52       1.0  0.3824372251679549  0.22694033940664576  0.6262955459458794  1.0000
  C   C53       1.0  0.27445188059229497  0.7389616196038771  0.9236795820094272  1.0000
  C   C54       1.0  0.7255446609211802  0.7610392700082683  0.42368172344257715  1.0000
  C   C55       1.0  0.7255472428858738  0.26104202851955444  0.07632037168169599  1.0000
  C   C56       1.0  0.2744572764648582  0.23895649504941469  0.5763166776999569  1.0000
  C   C57       1.0  0.2291524749243194  0.6800177637146091  0.973660109407973  1.0000
  C   C58       1.0  0.7708480293283485  0.8199833551714304  0.4736618464222317  1.0000
  C   C59       1.0  0.7708479840965906  0.3199864990816934  0.026339844282631503  1.0000
  C   C60       1.0  0.2291572230851955  0.18001546531377238  0.5263417298205013  1.0000
  C   C61       1.0  0.42617831412884744  0.7888219403289224  0.8203891743572598  1.0000
  C   C62       1.0  0.5738265059346476  0.7111767407195585  0.3203904785253755  1.0000
  C   C63       1.0  0.5738273676162392  0.21117809752961136  0.179610779318331  1.0000
  C   C64       1.0  0.42617223583023633  0.288822652555794  0.679610510177632  1.0000
  C   C65       1.0  0.5342989143010398  0.8769982528567508  0.7252641684097583  1.0000
  C   C66       1.0  0.4656990983789555  0.6229969580272723  0.22526696034321964  1.0000
  C   C67       1.0  0.46570345240034783  0.12299872958062956  0.2747337152247482  1.0000
  C   C68       1.0  0.5342901993691028  0.3770042074800557  0.7747355809050305  1.0000
  C   C69       1.0  0.41261431263806964  0.9001014271477529  0.7596192624609585  1.0000
  C   C70       1.0  0.5873867047153141  0.5998939428306542  0.2596216492698247  1.0000
  C   C71       1.0  0.5873902958442371  0.09989556725141567  0.2403770686411164  1.0000
  C   C72       1.0  0.4126019966739065  0.40010235913396025  0.7403798569499926  1.0000
  C   C73       1.0  0.6271800943900132  0.9159623784805503  0.6662576511014819  1.0000
  C   C74       1.0  0.3728257829916402  0.5840277683124455  0.166260531099276  1.0000
  C   C75       1.0  0.3728222723086816  0.08403460395789608  0.3337407500428782  1.0000
  C   C76       1.0  0.6271620840068407  0.41597885745981245  0.8337414926516401  1.0000
  C   C77       1.0  0.3447080417914635  0.9725319283594231  0.7440098421627823  1.0000
  C   C78       1.0  0.6552949030707609  0.5274652095415036  0.2440122877782542  1.0000
  C   C79       1.0  0.6552943249072313  0.0274650540790233  0.2559885589815778  1.0000
  C   C80       1.0  0.3446946569383869  0.47253352718676916  0.7559902534649083  1.0000
  S   S1        1.0  0.029676566378490973  0.8139118350164266  0.6651052127904508  1.0000
  S   S2        1.0  0.9703206900215519  0.6860855515023658  0.1651084980669495  1.0000
  S   S3        1.0  0.9703232962943742  0.18608756423291337  0.3348916358323137  1.0000
  S   S4        1.0  0.0296739974968503  0.31391503522912956  0.8348950781929005  1.0000
  S   S5        1.0  0.5725354001359548  0.7893915413434199  0.7616205673901248  1.0000
  S   S6        1.0  0.4274660256770204  0.7106050542377177  0.26162276553389313  1.0000
  S   S7        1.0  0.4274689460609906  0.2106078818443606  0.2383804213056919  1.0000
  S   S8        1.0  0.5725333600595448  0.28939616510773186  0.7383777056620033  1.0000
  N   N1        1.0  0.9385910929305794  0.5826308073326985  0.8653390143219966  1.0000
  N   N2        1.0  0.06141666900086313  0.917365038873342  0.365341932441055  1.0000
  N   N3        1.0  0.06141144081698971  0.4173698212666324  0.1346599043391237  1.0000
  N   N4        1.0  0.9385874625478436  0.08263377562087018  0.6346575037242986  1.0000
  N   N5        1.0  0.23014820327419724  0.722545692575906  0.6593236723919205  1.0000
  N   N6        1.0  0.7698544079405636  0.7774571663489738  0.1593262808378526  1.0000
  N   N7        1.0  0.7698547597833354  0.27745615340525387  0.3406757637808653  1.0000
  N   N8        1.0  0.2301471719613701  0.222547102431939  0.8406747078710168  1.0000
  N   N9        1.0  0.2835559475041975  0.6106476678995987  0.9763690675760727  1.0000
  N   N10       1.0  0.7164397827250963  0.8893558669608195  0.47636862886079717  1.0000
  N   N11       1.0  0.7164369275702142  0.3893541242413079  0.0236314036293663  1.0000
  N   N12       1.0  0.2835574088541933  0.11064230294596906  0.5236297722925727  1.0000
  N   N13       1.0  0.35406607352692987  0.8501380663253925  0.8128818720222171  1.0000
  N   N14       1.0  0.6459393016759307  0.6498587637930129  0.3128843025547141  1.0000
  N   N15       1.0  0.6459382726915877  0.14986135685388297  0.1871149765947919  1.0000
  N   N16       1.0  0.3540550041480586  0.3501375680829639  0.6871166861480518  1.0000
  O   O1        1.0  0.05869743862832873  0.9380858076139728  0.5521154219180531  1.0000
  O   O2        1.0  0.9412935782476809  0.5619122901945841  0.0521208846707353  1.0000
  O   O3        1.0  0.9413040218591533  0.06191177752493358  0.44787935665969064  1.0000
  O   O4        1.0  0.058700035983676506  0.4380852530871167  0.9478837266042603  1.0000
  O   O5        1.0  0.2667172953285188  0.9066874624631109  0.5023239161174899  1.0000
  O   O6        1.0  0.7332804412008258  0.5933153242231269  0.002325899711515  1.0000
  O   O7        1.0  0.7332848091090796  0.0933119487543834  0.4976744850319506  1.0000
  O   O8        1.0  0.26672204491501356  0.40668834185626673  0.9976781940541103  1.0000
  O   O9        1.0  0.7409120944571371  0.8851240612942844  0.6479463926430428  1.0000
  O   O10       1.0  0.25908960964180483  0.6148726699628921  0.147947617386528  1.0000
  O   O11       1.0  0.2590933726370038  0.11487536787173272  0.3520525260119314  1.0000
  O   O12       1.0  0.7409009284475587  0.3851351851529828  0.8520533713436295  1.0000
  O   O13       1.0  0.5902028373144219  0.9772363322041641  0.6368182357232754  1.0000
  O   O14       1.0  0.40979769479221767  0.5227567011955613  0.1368218156671261  1.0000
  O   O15       1.0  0.40979819384152444  0.0227600355614115  0.3631801654216105  1.0000
  O   O16       1.0  0.5901828029160896  0.47724806261169306  0.8631807255995411  1.0000
