data_image0
_chemical_formula_structural       CuSiH16C24N4O4F6
_chemical_formula_sum              "Cu1 Si1 H16 C24 N4 O4 F6"
_cell_length_a       7.981073268678909
_cell_length_b       13.731657164430587
_cell_length_c       13.731551977652186
_cell_angle_alpha    90.0985788619242
_cell_angle_beta     90.20310293130389
_cell_angle_gamma    90.201858931028

_space_group_name_H-M_alt    "P 1"
_space_group_IT_number       1

loop_
  _space_group_symop_operation_xyz
  'x, y, z'

loop_
  _atom_site_type_symbol
  _atom_site_label
  _atom_site_symmetry_multiplicity
  _atom_site_fract_x
  _atom_site_fract_y
  _atom_site_fract_z
  _atom_site_occupancy
  Cu  Cu1       1.0  0.5000120087527905  0.49999549403024474  0.5000075461095292  1.0000
  Si  Si1       1.0  1.3127153266998841e-06  0.49999875397823973  0.499999667690922  1.0000
  H   H1        1.0  0.23720409827837596  0.6517542492851122  0.5002933913359016  1.0000
  H   H2        1.0  0.21762168536235296  0.8317683698228465  0.49996494532121005  1.0000
  H   H3        1.0  0.7608175825434318  0.6611588666590013  0.49957647352303525  1.0000
  H   H4        1.0  0.23921628803017822  0.3388328118037479  0.500383282108217  1.0000
  H   H5        1.0  0.7628314919886989  0.34823392148230436  0.4998192957694202  1.0000
  H   H6        1.0  0.7824087701199078  0.16821757905511703  0.500110593887797  1.0000
  H   H7        1.0  0.23719096675377224  0.5003856576855837  0.6517644381184197  1.0000
  H   H8        1.0  0.21761810369086027  0.5000238541273704  0.8317812556656323  1.0000
  H   H9        1.0  0.7608031232677774  0.49958316754848653  0.661169424961713  1.0000
  H   H10       1.0  0.23922349058763362  0.5004427739073238  0.3388398739856413  1.0000
  H   H11       1.0  0.7628352422179745  0.4995026511064112  0.348252024309474  1.0000
  H   H12       1.0  0.7824056490944857  0.499881201241955  0.1682344904734521  1.0000
  H   H13       1.0  0.7692974150707813  0.9206386846834322  0.49994410451736837  1.0000
  H   H14       1.0  0.23071646020356706  0.07935517106150063  0.5000301978973809  1.0000
  H   H15       1.0  0.7692952414438141  0.4999179938576149  0.9206534578261554  1.0000
  H   H16       1.0  0.23071759886421014  0.5001035706139092  0.07936310600299382  1.0000
  C   C1        1.0  0.3499647104275781  0.6963516449343032  0.5000163450941528  1.0000
  C   C2        1.0  0.34014040527907247  0.7970144263168352  0.49992572312658723  1.0000
  C   C3        1.0  0.48801128402512733  0.8529727880944976  0.4998612932681681  1.0000
  C   C4        1.0  0.6428928073406511  0.8028298871605487  0.4998384566587434  1.0000
  C   C5        1.0  0.6429400633331357  0.7010320868466239  0.49980902536744054  1.0000
  C   C6        1.0  0.4904654310678965  0.9557023564572307  0.4999202615091178  1.0000
  C   C7        1.0  0.5095610127858877  0.0442849739696314  0.5000729824605941  1.0000
  C   C8        1.0  0.5120252427248957  0.14701966207244507  0.5001458020334084  1.0000
  C   C9        1.0  0.35713611968785147  0.19715816709299364  0.500146779669322  1.0000
  C   C10       1.0  0.35710515238180573  0.298955983707792  0.5001762273637382  1.0000
  C   C11       1.0  0.6500745181075588  0.303637223825092  0.5000570207047872  1.0000
  C   C12       1.0  0.6598975111090511  0.20297369719097705  0.500129434427997  1.0000
  C   C13       1.0  0.3499498540077824  0.500089698962043  0.6963614092399056  1.0000
  C   C14       1.0  0.34013242215487344  0.4999918649916992  0.7970227180190861  1.0000
  C   C15       1.0  0.48800172194525276  0.499884272435132  0.8529845833110555  1.0000
  C   C16       1.0  0.6428810381597716  0.49985390894282494  0.8028444451028067  1.0000
  C   C17       1.0  0.6429214176189932  0.4998383047888596  0.701046596529693  1.0000
  C   C18       1.0  0.4904614845884512  0.4999213856900867  0.9557142145949629  1.0000
  C   C19       1.0  0.5095561638041205  0.5000441004742484  0.0442928384718044  1.0000
  C   C20       1.0  0.5120284630351294  0.5000812281582441  0.1470246671358098  1.0000
  C   C21       1.0  0.3571442662482768  0.5001487317173529  0.19716993020311696  1.0000
  C   C22       1.0  0.3571013649439011  0.5001621460981697  0.29896486134639844  1.0000
  C   C23       1.0  0.6500702054267651  0.49983865470713346  0.3036521685099202  1.0000
  C   C24       1.0  0.6598914188341356  0.4999437749240558  0.20299086981556513  1.0000
  N   N1        1.0  0.4989950035288191  0.6499249215510688  0.4999522268300751  1.0000
  N   N2        1.0  0.5010353016741648  0.3500631686045921  0.5000730647355383  1.0000
  N   N3        1.0  0.49898799356171264  0.5000071754148722  0.6499352563967946  1.0000
  N   N4        1.0  0.5010434694615783  0.499956878125019  0.35008346135531104  1.0000
  O   O1        1.0  0.7921629313676278  0.8505503298764695  0.4998360618217462  1.0000
  O   O2        1.0  0.20786471295605222  0.14944499111874174  0.5001324296996259  1.0000
  O   O3        1.0  0.7921570108699784  0.4998331065654824  0.8505647243970245  1.0000
  O   O4        1.0  0.20786968006686382  0.5002095915351036  0.1494525998343406  1.0000
  F   F1        1.0  0.21711737095950676  0.49524657591265964  0.4952553629785967  1.0000
  F   F2        1.0  0.7828828103710067  0.504746562989432  0.5047480550908361  1.0000
  F   F3        1.0  0.999999710872018  0.587916167105398  0.4120769185917936  1.0000
  F   F4        1.0  0.9999967709695811  0.41207987704359544  0.5879225764077987  1.0000
  F   F5        1.0  0.0114686961377544  0.5879627100379067  0.5879578198069809  1.0000
  F   F6        1.0  0.9885277216441681  0.4120340619350885  0.41204049984813207  1.0000
