data_image0
_chemical_formula_structural       Al2H18C26O11
_chemical_formula_sum              "Al2 H18 C26 O11"
_cell_length_a       7.249923872740841
_cell_length_b       11.092531450451995
_cell_length_c       15.131090053918435
_cell_angle_alpha    82.974006611527
_cell_angle_beta     76.1652525435072
_cell_angle_gamma    71.24398262542225

_space_group_name_H-M_alt    "P 1"
_space_group_IT_number       1

loop_
  _space_group_symop_operation_xyz
  'x, y, z'

loop_
  _atom_site_type_symbol
  _atom_site_label
  _atom_site_symmetry_multiplicity
  _atom_site_fract_x
  _atom_site_fract_y
  _atom_site_fract_z
  _atom_site_occupancy
  Al  Al1       1.0  0.5010239108598711  0.4990702624310474  0.5006874628998617  1.0000
  Al  Al2       1.0  0.0013091545346525432  0.49719974820940405  0.5007810931685625  1.0000
  H   H1        1.0  0.2548014587021327  0.5953284170471067  0.3980148018692375  1.0000
  H   H2        1.0  0.7760349265827671  0.3663853704482421  0.5830966023691317  1.0000
  H   H3        1.0  0.14702866129119488  0.11460172540372332  0.4960852653577063  1.0000
  H   H4        1.0  0.7380881325494074  0.12250836736819792  0.4948045988323956  1.0000
  H   H5        1.0  0.26817122362452045  0.8766172531919593  0.504244038677143  1.0000
  H   H6        1.0  0.8015209791941943  0.5605272362216313  0.7688477736957892  1.0000
  H   H7        1.0  0.42666318598821806  0.44747210340717913  0.7726166961658903  1.0000
  H   H8        1.0  0.1447096615547706  0.5541518344881313  0.22800182310258776  1.0000
  H   H9        1.0  0.6302544706062889  0.43813413187770334  0.23070202059081873  1.0000
  H   H10       1.0  0.6331762605924921  0.6454242170477117  0.0009146916413840097  1.0000
  H   H11       1.0  0.5588429290286356  0.5730384736778548  0.92425012832593  1.0000
  H   H12       1.0  0.36166137219939287  0.35414445217393364  0.009126145710787594  1.0000
  H   H13       1.0  0.5151422981984837  0.42828608258778195  0.9290755106493974  1.0000
  H   H14       1.0  0.22957624385803388  0.6459729848923744  0.9920625549416043  1.0000
  H   H15       1.0  0.37394718655284004  0.5701071982930445  0.07268923947081159  1.0000
  H   H16       1.0  0.7801702257902293  0.3540962983299424  0.9986307673644035  1.0000
  H   H17       1.0  0.55678471333853  0.4250971398107239  0.07493822624140727  1.0000
  H   H18       1.0  0.9213647469351116  0.7855301956197281  0.5066572060303185  1.0000
  C   C1        1.0  0.8311398517501799  0.49686971552202425  0.3400838586837195  1.0000
  C   C2        1.0  0.6360624991472507  0.7243459659293096  0.5075704861020468  1.0000
  C   C3        1.0  0.16961775647547472  0.5038170468311663  0.6603188275979264  1.0000
  C   C4        1.0  0.36474561000383676  0.2747492910573969  0.493813816015951  1.0000
  C   C5        1.0  0.5699210442696337  0.8650535679560537  0.504698608649079  1.0000
  C   C6        1.0  0.43585810473126685  0.13219877383067316  0.4955281271546638  1.0000
  C   C7        1.0  0.7049778629268956  0.935130815109922  0.5018513184972733  1.0000
  C   C8        1.0  0.30182680771252995  0.06338010997755113  0.49784968031750054  1.0000
  C   C9        1.0  0.6351146609874405  0.06861873879284272  0.49713934114578245  1.0000
  C   C10       1.0  0.36952734660438585  0.9315215654670794  0.5024206192293048  1.0000
  C   C11       1.0  0.6713339371277767  0.5577199666167305  0.9641643034544671  1.0000
  C   C12       1.0  0.3634639713301127  0.4431443321571322  0.9679036210711018  1.0000
  C   C13       1.0  0.27552617864121487  0.5566720275468314  0.03327458553933129  1.0000
  C   C14       1.0  0.6935205162516097  0.441514334421811  0.03541142834977509  1.0000
  C   C15       1.0  0.9178412214314733  0.5360443427673616  0.8080571325614514  1.0000
  C   C16       1.0  0.8718606091596898  0.5350714941268253  0.9027841118456336  1.0000
  C   C17       1.0  0.2722377515990289  0.47093576431105083  0.8102245863571866  1.0000
  C   C18       1.0  0.22431706084790184  0.4690554965476964  0.9049416097581329  1.0000
  C   C19       1.0  0.051537991572587157  0.5302055274280734  0.19032409902998637  1.0000
  C   C20       1.0  0.09742198748308076  0.5319546108915745  0.09562861670091388  1.0000
  C   C21       1.0  0.7607541337221451  0.4639090472664267  0.191853437754112  1.0000
  C   C22       1.0  0.8088637382465009  0.46522650917314945  0.09712026186456058  1.0000
  C   C23       1.0  0.11862521239433471  0.5041408601592396  0.7616715106075558  1.0000
  C   C24       1.0  0.0250687882700973  0.5014591909279532  0.95031544797515  1.0000
  C   C25       1.0  0.8824248243951872  0.496565731391243  0.23867780736575375  1.0000
  C   C26       1.0  0.9759254377709681  0.49965134164795444  0.049868082462360505  1.0000
  O   O1        1.0  0.6543977583254518  0.4952989003485159  0.3787326250126881  1.0000
  O   O2        1.0  0.8224733532799673  0.6687997618403332  0.5094257541279459  1.0000
  O   O3        1.0  0.031383749906289775  0.5036263607811124  0.6214133287396351  1.0000
  O   O4        1.0  0.494994265266513  0.3295927318705766  0.49401868134365395  1.0000
  O   O5        1.0  0.34744519670233137  0.5024982772806581  0.621568248855823  1.0000
  O   O6        1.0  0.1797536631043996  0.3279675498081077  0.49373989564900705  1.0000
  O   O7        1.0  0.9678988464968723  0.5002446485036884  0.3790109418894686  1.0000
  O   O8        1.0  0.5087437255032156  0.668241966503807  0.5067882799165416  1.0000
  O   O9        1.0  0.24009591914568063  0.5597116389860518  0.46025530040501644  1.0000
  O   O10       1.0  0.7607274454288132  0.44016406707558536  0.5407544094287144  1.0000
  O   O11       1.0  0.8996773624662636  0.8795616909537006  0.5032517475824959  1.0000
