data_image0
_chemical_formula_structural       Ag4H16C16N4O12
_chemical_formula_sum              "Ag4 H16 C16 N4 O12"
_cell_length_a       4.930528961187739
_cell_length_b       8.85585646291024
_cell_length_c       12.001764767241937
_cell_angle_alpha    89.99927511245284
_cell_angle_beta     90.00004269222886
_cell_angle_gamma    98.19110777775538

_space_group_name_H-M_alt    "P 1"
_space_group_IT_number       1

loop_
  _space_group_symop_operation_xyz
  'x, y, z'

loop_
  _atom_site_type_symbol
  _atom_site_label
  _atom_site_symmetry_multiplicity
  _atom_site_fract_x
  _atom_site_fract_y
  _atom_site_fract_z
  _atom_site_occupancy
  Ag  Ag1       1.0  0.7256222995053464  0.9552444008218546  0.049919145759446296  1.0000
  Ag  Ag2       1.0  0.7743736226374196  0.5447523378672232  0.5499192041363729  1.0000
  Ag  Ag3       1.0  0.2743705423846947  0.04475240566610242  0.9500817776185501  1.0000
  Ag  Ag4       1.0  0.22562530175192563  0.45524446071924984  0.4500792196102169  1.0000
  H   H1        1.0  0.3642373947023358  0.8201653011599106  0.37473695120249323  1.0000
  H   H2        1.0  0.13576133125020826  0.679835413495866  0.8747348724488191  1.0000
  H   H3        1.0  0.6357667712346  0.17983605544912964  0.6252639721560271  1.0000
  H   H4        1.0  0.8642324005594446  0.3201648155157957  0.1252627180701538  1.0000
  H   H5        1.0  0.08449978869715116  0.8458034919907362  0.4617973179932378  1.0000
  H   H6        1.0  0.4154987061867885  0.6541957114253735  0.9617947321959478  1.0000
  H   H7        1.0  0.9155090255116892  0.154200140984905  0.5382052717769811  1.0000
  H   H8        1.0  0.5844964598436279  0.34580223327481024  0.0382036915447088  1.0000
  H   H9        1.0  0.014501267427874666  0.9874539723526113  0.6860453338002871  1.0000
  H   H10       1.0  0.4854947452867506  0.5125454570540102  0.1860411562885177  1.0000
  H   H11       1.0  0.9855028985057432  0.0125473842347361  0.31395808919062773  1.0000
  H   H12       1.0  0.5145024482412168  0.48745248499788124  0.813958100663264  1.0000
  H   H13       1.0  0.8645196596985513  0.7942752822015607  0.6728683053569855  1.0000
  H   H14       1.0  0.6354832051737134  0.7057238776854788  0.1728663820501239  1.0000
  H   H15       1.0  0.1354865337370512  0.2057260717664136  0.32713261800186194  1.0000
  H   H16       1.0  0.36451225749399185  0.2942752078390712  0.8271328748960515  1.0000
  C   C1        1.0  0.3017430707456016  0.8875197549739371  0.44528125257962614  1.0000
  C   C2        1.0  0.1982537371111661  0.6124808785929616  0.9452806551447354  1.0000
  C   C3        1.0  0.6982654468270512  0.1124827371845853  0.5547196707742685  1.0000
  C   C4        1.0  0.8017391047844029  0.38751592793114753  0.0547161021792704  1.0000
  C   C5        1.0  0.46386889017830435  0.8472737776025029  0.5445468672210936  1.0000
  C   C6        1.0  0.03611849817779963  0.6527246960619878  0.04454540777516771  1.0000
  C   C7        1.0  0.536137599899007  0.15272871721876413  0.4554515565000798  1.0000
  C   C8        1.0  0.963874936991246  0.34727439210362127  0.9554538491706809  1.0000
  C   C9        1.0  0.8180142406596786  0.9114053518786777  0.6815439755153393  1.0000
  C   C10       1.0  0.6819839529117717  0.5885913810276265  0.1815423267725933  1.0000
  C   C11       1.0  0.1819899252761488  0.0885960047231293  0.31845778105397937  1.0000
  C   C12       1.0  0.31801324061619607  0.411406561024272  0.8184569301791882  1.0000
  C   C13       1.0  0.6686044923258692  0.9249170295371134  0.7921759526106913  1.0000
  C   C14       1.0  0.8313885116727278  0.5750823542107925  0.2921736431508394  1.0000
  C   C15       1.0  0.33139097033961923  0.07508205597297041  0.2078249707570805  1.0000
  C   C16       1.0  0.16860492349963613  0.42491673397650953  0.7078231141626078  1.0000
  N   N1        1.0  0.6658246962801613  0.9516052686999363  0.5848179891438009  1.0000
  N   N2        1.0  0.8341732097115441  0.5483988500561169  0.0848134300090919  1.0000
  N   N3        1.0  0.33418644206685144  0.048399502473472515  0.41518376741066026  1.0000
  N   N4        1.0  0.1658199288202056  0.4515990972851256  0.915184993731238  1.0000
  O   O1        1.0  0.41319168155570196  0.715541320944624  0.584184978256083  1.0000
  O   O2        1.0  0.08680549141360676  0.7844632990366807  0.08418897057286052  1.0000
  O   O3        1.0  0.5868130776591373  0.28446231733482824  0.4158151118810809  1.0000
  O   O4        1.0  0.9131951638348924  0.21553235606991453  0.9158102863901263  1.0000
  O   O5        1.0  0.4562458083565631  0.9902214094189505  0.7905033607899484  1.0000
  O   O6        1.0  0.043757740466261894  0.5097750553284257  0.2905015716161401  1.0000
  O   O7        1.0  0.5437557368071282  0.009777668182422903  0.2094958961572076  1.0000
  O   O8        1.0  0.9562441013380365  0.4902251631190069  0.7094960189041403  1.0000
  O   O9        1.0  0.7799223144202118  0.8705999612819755  0.8759780658354758  1.0000
  O   O10       1.0  0.7200765496569449  0.6293979598837328  0.3759727151803888  1.0000
  O   O11       1.0  0.22007547238013098  0.1294002624041823  0.12402452394893973  1.0000
  O   O12       1.0  0.2799212371500346  0.37060226384581796  0.6240248753392379  1.0000
