data_image0
_chemical_formula_structural       Cu2H48C52N4O12
_chemical_formula_sum              "Cu2 H48 C52 N4 O12"
_cell_length_a       9.569501387287909
_cell_length_b       10.652891346429168
_cell_length_c       12.212220749087098
_cell_angle_alpha    110.24074702174381
_cell_angle_beta     89.99911963561505
_cell_angle_gamma    90.00042400815495

_space_group_name_H-M_alt    "P 1"
_space_group_IT_number       1

loop_
  _space_group_symop_operation_xyz
  'x, y, z'

loop_
  _atom_site_type_symbol
  _atom_site_label
  _atom_site_symmetry_multiplicity
  _atom_site_fract_x
  _atom_site_fract_y
  _atom_site_fract_z
  _atom_site_occupancy
  Cu  Cu1       1.0  0.9999977285568067  0.5000004868610401  1.042938542566951e-06  1.0000
  Cu  Cu2       1.0  0.4999994453768011  0.9999989416108119  0.9999992108159714  1.0000
  H   H1        1.0  0.10001498027016709  0.3451800860267085  0.10726195399175956  1.0000
  H   H2        1.0  0.6000126872452255  0.15481968878257385  0.8927408590470093  1.0000
  H   H3        1.0  0.8999854376350809  0.6548173971752503  0.8927354504896313  1.0000
  H   H4        1.0  0.39998250570793914  0.8451818022079888  0.10726020517962798  1.0000
  H   H5        1.0  0.2874734661292422  0.7027851228831704  0.3182378600830018  1.0000
  H   H6        1.0  0.7874785737707055  0.7972238409463371  0.6817628986566644  1.0000
  H   H7        1.0  0.7125248617800112  0.2972133666293857  0.6817623030695401  1.0000
  H   H8        1.0  0.2125249790667212  0.20278465738917353  0.31824190685846787  1.0000
  H   H9        1.0  0.11670381164196901  0.7678775205845126  0.3502207150846103  1.0000
  H   H10       1.0  0.6167111023248211  0.7321260747447411  0.6497813043325492  1.0000
  H   H11       1.0  0.8832945162741624  0.23211996649455807  0.6497783282801207  1.0000
  H   H12       1.0  0.3832934954944847  0.2678784216167145  0.35022229976829067  1.0000
  H   H13       1.0  0.9742337927331378  0.722911375757924  0.4981133786290639  1.0000
  H   H14       1.0  0.4742382305836728  0.7770920069348219  0.5018916474028996  1.0000
  H   H15       1.0  0.0257655801810373  0.277089110863983  0.5018857463502542  1.0000
  H   H16       1.0  0.5257684572338518  0.22290647870737257  0.49810687683063287  1.0000
  H   H17       1.0  0.9656628989005186  0.6544599555610231  0.6736999172677611  1.0000
  H   H18       1.0  0.4656661204663239  0.8455374056991332  0.32630340417811243  1.0000
  H   H19       1.0  0.0343375189864332  0.3455425359289706  0.3263014472812387  1.0000
  H   H20       1.0  0.5343416123399577  0.1544560755355207  0.6736927988533168  1.0000
  H   H21       1.0  0.1685117307058022  0.5403459881448426  0.7240102513816138  1.0000
  H   H22       1.0  0.6685177771939834  0.9596497051696387  0.2759846785775649  1.0000
  H   H23       1.0  0.8314897321860713  0.459658500454502  0.2759900749941622  1.0000
  H   H24       1.0  0.3314941355572357  0.0403427755757235  0.7240112240779978  1.0000
  H   H25       1.0  0.37489134946954283  0.48120715349470067  0.5922717269209697  1.0000
  H   H26       1.0  0.874901638976766  0.018787187390920196  0.4077163231656939  1.0000
  H   H27       1.0  0.6251069784512283  0.5187943355595621  0.4077285178521065  1.0000
  H   H28       1.0  0.12510922877417843  0.9812072982202762  0.592281819071438  1.0000
  H   H29       1.0  0.3802854906716534  0.5430679266067172  0.41327449513534015  1.0000
  H   H30       1.0  0.880292730641962  0.9569352226149377  0.5867184888514672  1.0000
  H   H31       1.0  0.619710747287492  0.4569295565907366  0.5867229093698255  1.0000
  H   H32       1.0  0.11971082218394713  0.0430702761788737  0.413286235043131  1.0000
  H   H33       1.0  0.2965599520900851  0.21202033151124772  0.0794309357833214  1.0000
  H   H34       1.0  0.7965571615904566  0.2879788643778055  0.9205685211846626  1.0000
  H   H35       1.0  0.7034425558146395  0.7879791468615024  0.9205646110831721  1.0000
  H   H36       1.0  0.2034359414149165  0.7120236212852545  0.07943038509876739  1.0000
  H   H37       1.0  0.9268227840400769  0.0845578971886951  0.8668033348678106  1.0000
  H   H38       1.0  0.42681469524638527  0.41544258375729737  0.1331965792252632  1.0000
  H   H39       1.0  0.07317554385078752  0.9154385952156328  0.13319786645201487  1.0000
  H   H40       1.0  0.573180497689556  0.5845579106188408  0.8668058235207353  1.0000
  H   H41       1.0  0.050674763786631195  0.8671462345536725  0.7651320032839093  1.0000
  H   H42       1.0  0.550669528234593  0.6328532106889  0.23486710776652583  1.0000
  H   H43       1.0  0.9493214741219874  0.1328492592942894  0.23486971713144558  1.0000
  H   H44       1.0  0.4493267097119685  0.3671472778693143  0.7651328366663463  1.0000
  H   H45       1.0  0.2917586779605301  0.8324759032042053  0.8267446399948781  1.0000
  H   H46       1.0  0.7917580714478804  0.6675240751071456  0.17325746403007256  1.0000
  H   H47       1.0  0.7082386049598739  0.16752058531962888  0.17325492245944218  1.0000
  H   H48       1.0  0.2082381665159119  0.3324774100655005  0.8267411418834384  1.0000
  C   C1        1.0  0.12958364584829948  0.5676771282214758  0.22820210801965857  1.0000
  C   C2        1.0  0.6295828710396236  0.9323204938293725  0.7717987822200313  1.0000
  C   C3        1.0  0.8704167720500707  0.4323213574139614  0.7717964162495432  1.0000
  C   C4        1.0  0.3704175468473282  0.0676819976606211  0.22820258232896146  1.0000
  C   C5        1.0  0.1805595565329057  0.6786831056132243  0.3380316984725481  1.0000
  C   C6        1.0  0.680564205652644  0.8213216258632273  0.6619690753262759  1.0000
  C   C7        1.0  0.8194377263978583  0.32131538195852016  0.6619676452502147  1.0000
  C   C8        1.0  0.3194393471870143  0.17868186806362016  0.33803340899270035  1.0000
  C   C9        1.0  0.17947469223105372  0.6405973433220707  0.44572091473636977  1.0000
  C   C10       1.0  0.6794807229311389  0.8594073819388438  0.5542782325267126  1.0000
  C   C11       1.0  0.820523635675876  0.359399145202893  0.5542786477120032  1.0000
  C   C12       1.0  0.3205259648761256  0.1405961100516961  0.44572343233870265  1.0000
  C   C13       1.0  0.063120067612104  0.671748062118773  0.5198936170781392  1.0000
  C   C14       1.0  0.5631252082783719  0.8282554216256345  0.4801106508977568  1.0000
  C   C15       1.0  0.9368772153209833  0.3282524264405636  0.48010632734879266  1.0000
  C   C16       1.0  0.43688043454807973  0.1717460674365014  0.5198895938337029  1.0000
  C   C17       1.0  0.05879897049808851  0.6350125184951452  0.6189308558975168  1.0000
  C   C18       1.0  0.5588053118341989  0.8649919525539216  0.3810721227175619  1.0000
  C   C19       1.0  0.9412004024115319  0.36499097154783294  0.38106998957378113  1.0000
  C   C20       1.0  0.4412045109199596  0.13500753940449775  0.6189291601573998  1.0000
  C   C21       1.0  0.1717290769284219  0.5683369010619541  0.6462903027329999  1.0000
  C   C22       1.0  0.6717312780257316  0.9316618064815428  0.35370795000457617  1.0000
  C   C23       1.0  0.8282702959628097  0.43166459187280276  0.3537115809055819  1.0000
  C   C24       1.0  0.3282743647788422  0.0683346839909831  0.6462924318379065  1.0000
  C   C25       1.0  0.2876176290528747  0.5355089359545673  0.5722822717947054  1.0000
  C   C26       1.0  0.787621782186079  0.9644900096688078  0.42770974573915765  1.0000
  C   C27       1.0  0.712381743860135  0.4644905501735435  0.4277165528325212  1.0000
  C   C28       1.0  0.2123817706718683  0.03550847597001189  0.5722887785122025  1.0000
  C   C29       1.0  0.2908341789198375  0.5706503984952886  0.4722203151088279  1.0000
  C   C30       1.0  0.790840259336818  0.9293525579760312  0.5277736866602893  1.0000
  C   C31       1.0  0.7091620590485023  0.4293480832562794  0.527776570312703  1.0000
  C   C32       1.0  0.20916538349311511  0.0706519325675004  0.4722274591274243  1.0000
  C   C33       1.0  0.23800659374467864  0.13810443864545618  0.010633953202997795  1.0000
  C   C34       1.0  0.7380082849529543  0.36189263009045186  0.9893655692545734  1.0000
  C   C35       1.0  0.761990689218223  0.8618940411675522  0.9893621127768596  1.0000
  C   C36       1.0  0.2619889979904855  0.6381098575167953  0.010634156440808262  1.0000
  C   C37       1.0  0.101959776442655  0.16538852474100443  0.9825677282518582  1.0000
  C   C38       1.0  0.6019521059954442  0.3346122528072328  0.017434543606000816  1.0000
  C   C39       1.0  0.898041686442241  0.8346099608955553  0.017430796011396348  1.0000
  C   C40       1.0  0.39803995198207803  0.6653892420593265  0.9825681595099168  1.0000
  C   C41       1.0  0.0326839312311478  0.06708683841892339  0.8913520816848645  1.0000
  C   C42       1.0  0.5326825927719057  0.4329127796687971  0.10864658082580553  1.0000
  C   C43       1.0  0.9673123067119321  0.9329106486579022  0.10864696169175399  1.0000
  C   C44       1.0  0.467319915072025  0.5670897157028135  0.8913564225827526  1.0000
  C   C45       1.0  0.100829573016604  0.9467186639559985  0.8355231560009457  1.0000
  C   C46       1.0  0.6008208855432572  0.5532798946813527  0.16447754236354228  1.0000
  C   C47       1.0  0.8991687548822966  0.053277826508647805  0.16447722588315367  1.0000
  C   C48       1.0  0.3991722174196326  0.4467205996925328  0.8355248603943506  1.0000
  C   C49       1.0  0.23527607559135794  0.925279246168685  0.8692189772025073  1.0000
  C   C50       1.0  0.7352734505538336  0.5747185997461486  0.13077907160934632  1.0000
  C   C51       1.0  0.7647222523420042  0.0747192375248176  0.13077872764285559  1.0000
  C   C52       1.0  0.2647259223523051  0.4252818888154479  0.8692208728056982  1.0000
  N   N1        1.0  0.3019824102466586  0.0209748957733495  0.9554451301825608  1.0000
  N   N2        1.0  0.8019795735607644  0.4790263205462607  0.044558143536114855  1.0000
  N   N3        1.0  0.6980169626743874  0.979024588415079  0.04455287500894651  1.0000
  N   N4        1.0  0.19801561939124213  0.5209741699505058  0.9554426203384379  1.0000
  O   O1        1.0  0.1765576318126847  0.4502072115464202  0.2043451706839434  1.0000
  O   O2        1.0  0.6765574266475626  0.049796734053259684  0.7956596117215751  1.0000
  O   O3        1.0  0.8234438310733764  0.5497922745839361  0.7956536539313956  1.0000
  O   O4        1.0  0.3234419462299201  0.9502067637484541  0.20434451149262847  1.0000
  O   O5        1.0  0.0429602570669445  0.6057008781454343  0.1657356356509823  1.0000
  O   O6        1.0  0.5429642137497197  0.8942975596884893  0.8342673599492513  1.0000
  O   O7        1.0  0.9570370258465957  0.3942966128118782  0.8342650465911488  1.0000
  O   O8        1.0  0.45703515914838994  0.10570293081278234  0.16573340390151964  1.0000
  O   O9        1.0  0.03770281390951169  0.2811968184095477  0.04175387635091706  1.0000
  O   O10       1.0  0.5377008056399647  0.2188008153235614  0.9582465866617937  1.0000
  O   O11       1.0  0.9622944690304537  0.7188026677163109  0.9582449482882041  1.0000
  O   O12       1.0  0.46229543231695663  0.781201672282563  0.04175313903952824  1.0000
