data_image0
_chemical_formula_structural       Ba2H22Pt2C38N14
_chemical_formula_sum              "Ba2 H22 Pt2 C38 N14"
_cell_length_a       8.70734182392336
_cell_length_b       8.707313762034739
_cell_length_c       13.542539152145649
_cell_angle_alpha    83.02084832491563
_cell_angle_beta     83.02080993230665
_cell_angle_gamma    77.37701171579636

_space_group_name_H-M_alt    "P 1"
_space_group_IT_number       1

loop_
  _space_group_symop_operation_xyz
  'x, y, z'

loop_
  _atom_site_type_symbol
  _atom_site_label
  _atom_site_symmetry_multiplicity
  _atom_site_fract_x
  _atom_site_fract_y
  _atom_site_fract_z
  _atom_site_occupancy
  Ba  Ba1       1.0  0.8937877978344771  0.10620836169265149  0.7499995775414658  1.0000
  Ba  Ba2       1.0  0.10620927551508422  0.8937926833065575  0.2500006033974174  1.0000
  H   H1        1.0  0.3216976698459603  0.36868719960988733  0.00498538927503488  1.0000
  H   H2        1.0  0.6313158181371036  0.6782916274195119  0.4950099498301981  1.0000
  H   H3        1.0  0.6783059267216913  0.6313211533355557  0.9950157455587811  1.0000
  H   H4        1.0  0.3686811040128146  0.32169993504472677  0.5049918488787668  1.0000
  H   H5        1.0  0.8286473806986833  0.989811680878951  0.005598530023327362  1.0000
  H   H6        1.0  0.010200304774322395  0.1713407214130598  0.49439466537351245  1.0000
  H   H7        1.0  0.1713425507141793  0.010179669510151297  0.9944009712679216  1.0000
  H   H8        1.0  0.9898090911239094  0.8286677819768895  0.5056074038750039  1.0000
  H   H9        1.0  0.37537858068487395  0.1832518328025472  0.15593188962047574  1.0000
  H   H10       1.0  0.8167522373958319  0.6246104617618115  0.3440647641580482  1.0000
  H   H11       1.0  0.6246137035655436  0.8167550567372428  0.8440681950091076  1.0000
  H   H12       1.0  0.183241913273072  0.37538815216657895  0.6559359053222948  1.0000
  H   H13       1.0  0.6373490522266464  0.9891397592458305  0.15823207397816214  1.0000
  H   H14       1.0  0.010863487497964317  0.36264652584411283  0.34176056965438306  1.0000
  H   H15       1.0  0.3626382888802268  0.010852709252951303  0.8417668229820947  1.0000
  H   H16       1.0  0.9891362616137656  0.6373581521696892  0.6582397742679902  1.0000
  H   H17       1.0  0.3157170315306885  0.5453765202658258  0.9026342175210189  1.0000
  H   H18       1.0  0.4546358026291342  0.684281585202875  0.5973569727276526  1.0000
  H   H19       1.0  0.6842772309124001  0.45463153677039264  0.09736336403915398  1.0000
  H   H20       1.0  0.545364029094003  0.31571706088858775  0.4026402207171174  1.0000
  H   H21       1.0  0.2703144463910191  0.729696298017643  0.7499940489758784  1.0000
  H   H22       1.0  0.7296863364253952  0.27030828391819023  0.25000177734914075  1.0000
  Pt  Pt1       1.0  0.5000042231115955  0.9999885640809935  0.5000039739356552  1.0000
  Pt  Pt2       1.0  0.9999987202871381  0.5000013290704288  0.9999989096105822  1.0000
  C   C1        1.0  0.30380727410835817  0.0035394555596042  0.5904800672992394  1.0000
  C   C2        1.0  0.9964625613067498  0.6962030862140764  0.9095211339867503  1.0000
  C   C3        1.0  0.6961977879148762  0.9964415581366236  0.4095212125502669  1.0000
  C   C4        1.0  0.0035409827280119864  0.3038098798606228  0.0904744139742348  1.0000
  C   C5        1.0  0.6321653806910702  0.9499902291088418  0.6131863318507697  1.0000
  C   C6        1.0  0.04999203840653621  0.36783531238506834  0.886811138057574  1.0000
  C   C7        1.0  0.3678381181255688  0.04998713434911651  0.3868132077180846  1.0000
  C   C8        1.0  0.9500165022203999  0.6321705677781252  0.11318238453768709  1.0000
  C   C9        1.0  0.43527714529023603  0.2861277487547582  0.006641406765488973  1.0000
  C   C10       1.0  0.7138799686899802  0.5647070714089535  0.49335315468950824  1.0000
  C   C11       1.0  0.5647191939091485  0.7138815743457485  0.9933573471005132  1.0000
  C   C12       1.0  0.2861178651277639  0.43529038747251286  0.5066458067496171  1.0000
  C   C13       1.0  0.7158049281169953  0.0745163825847612  0.008319867294410678  1.0000
  C   C14       1.0  0.9254877857853858  0.2841891346867483  0.491675411890796  1.0000
  C   C15       1.0  0.28418739271410226  0.9254797633355591  0.9916789783551749  1.0000
  C   C16       1.0  0.07452113314381846  0.7158110092577132  0.5083259863525456  1.0000
  C   C17       1.0  0.46412212586315593  0.18082057876323884  0.0915693823365302  1.0000
  C   C18       1.0  0.8191866765535495  0.5358636040540857  0.40842355542982733  1.0000
  C   C19       1.0  0.535869832617884  0.8191874338660339  0.9084284135178038  1.0000
  C   C20       1.0  0.1808123880961148  0.46413395588514555  0.591578239162402  1.0000
  C   C21       1.0  0.608133190122814  0.0730258551354694  0.09329192279895437  1.0000
  C   C22       1.0  0.92698266142083  0.3918606188264987  0.40669932931952246  1.0000
  C   C23       1.0  0.39185857773313876  0.9269726355316762  0.9067060206753579  1.0000
  C   C24       1.0  0.07302078394717881  0.6081382515839733  0.5933034232843682  1.0000
  C   C25       1.0  0.5243801039207482  0.3962755467034428  0.8330208731804021  1.0000
  C   C26       1.0  0.6037348473265779  0.4756120414193603  0.6669694717762482  1.0000
  C   C27       1.0  0.4756196649037036  0.6037291510239343  0.16698020581701195  1.0000
  C   C28       1.0  0.39626304562933967  0.5243854766028235  0.3330316948880139  1.0000
  C   C29       1.0  0.3956343459563385  0.525290249291096  0.8351651231345869  1.0000
  C   C30       1.0  0.4747218674533895  0.6043574059021425  0.6648303681306516  1.0000
  C   C31       1.0  0.6043685727545379  0.47471565784974956  0.16483408072139127  1.0000
  C   C32       1.0  0.5252781088641  0.3956460504543102  0.3351685891917384  1.0000
  C   C33       1.0  0.370362250426531  0.6296427713289814  0.7499982269341103  1.0000
  C   C34       1.0  0.6296406682843383  0.3703631358118712  0.2500009769218678  1.0000
  C   C35       1.0  0.5505669884675654  0.2826143472003224  0.924370415373609  1.0000
  C   C36       1.0  0.7173901915099491  0.4494274675168199  0.5756275872012822  1.0000
  C   C37       1.0  0.44942784666339713  0.7173913848026385  0.07562880343687081  1.0000
  C   C38       1.0  0.2826154592564976  0.5505713487327311  0.4243712757332219  1.0000
  N   N1        1.0  0.18439006270582325  0.0061140396757509005  0.6411893766333918  1.0000
  N   N2        1.0  0.9939002111299754  0.815618914973868  0.8588167896860738  1.0000
  N   N3        1.0  0.8156068463366637  0.9938821753448864  0.3588083053528237  1.0000
  N   N4        1.0  0.006110323641834682  0.18439426317596033  0.14118105569261263  1.0000
  N   N5        1.0  0.7150683729528636  0.9200794099868971  0.6780968832162272  1.0000
  N   N6        1.0  0.07990266061757006  0.2849371740623994  0.8219119380857832  1.0000
  N   N7        1.0  0.2849526618445921  0.0798985427996186  0.3219106051220351  1.0000
  N   N8        1.0  0.9201006166828448  0.7150629771461324  0.17809440634322732  1.0000
  N   N9        1.0  0.6889361686915904  0.1753079306347302  0.9259205866774777  1.0000
  N   N10       1.0  0.8246979524327498  0.3110575708166081  0.5740735728855739  1.0000
  N   N11       1.0  0.31105483869617956  0.8246941461501649  0.07407857629659989  1.0000
  N   N12       1.0  0.17530796496490808  0.6889400632027431  0.42592537359904264  1.0000
  N   N13       1.0  0.6271294888658119  0.37286824369313354  0.7499987955661211  1.0000
  N   N14       1.0  0.37286879560294744  0.6271328826502653  0.2500034834508256  1.0000
