data_image0
_chemical_formula_structural       Zn2H22C48N2Cl4O18
_chemical_formula_sum              "Zn2 H22 C48 N2 Cl4 O18"
_cell_length_a       14.041985283865657
_cell_length_b       15.18847556071554
_cell_length_c       16.984471016495696
_cell_angle_alpha    92.44229597131789
_cell_angle_beta     96.37734668056947
_cell_angle_gamma    89.66844025323543

_space_group_name_H-M_alt    "P 1"
_space_group_IT_number       1

loop_
  _space_group_symop_operation_xyz
  'x, y, z'

loop_
  _atom_site_type_symbol
  _atom_site_label
  _atom_site_symmetry_multiplicity
  _atom_site_fract_x
  _atom_site_fract_y
  _atom_site_fract_z
  _atom_site_occupancy
  Zn  Zn1       1.0  0.6059298649967741  0.49647199373919915  0.49566318260463055  1.0000
  Zn  Zn2       1.0  0.39406624588756495  0.503472676946764  0.5043032416144586  1.0000
  H   H1        1.0  0.894598454392792  0.334030830130331  0.3564547649428463  1.0000
  H   H2        1.0  0.10538742533346829  0.66600492583526  0.6435216578618892  1.0000
  H   H3        1.0  0.3657677283679703  0.43020123371009333  0.24184087368581697  1.0000
  H   H4        1.0  0.6342174252821946  0.5698298909409375  0.758132982930235  1.0000
  H   H5        1.0  0.4726771551968412  0.5973176321916328  0.9868786376954122  1.0000
  H   H6        1.0  0.5273659674016855  0.402713867704712  0.013109723053176491  1.0000
  H   H7        1.0  0.3556599334783357  0.7809015814732307  0.5361473941118151  1.0000
  H   H8        1.0  0.6443930007016121  0.21903164897622676  0.4640385600329041  1.0000
  H   H9        1.0  0.6541853902597196  0.775239413258824  0.5069501081414176  1.0000
  H   H10       1.0  0.3458814639266734  0.22470931270972733  0.4932141214160168  1.0000
  H   H11       1.0  0.7358098427705072  0.0773862263054994  0.4677023921964435  1.0000
  H   H12       1.0  0.26435040254250447  0.9225552947852054  0.5326032214861272  1.0000
  H   H13       1.0  0.6874652083606064  0.6432793614378411  0.5580249030494218  1.0000
  H   H14       1.0  0.3124960949546391  0.35668790749306833  0.442002985949273  1.0000
  H   H15       1.0  0.7632538326756874  0.36531869999445377  0.360758039841599  1.0000
  H   H16       1.0  0.2367357063706592  0.6347249114559265  0.6392160337789009  1.0000
  H   H17       1.0  0.14231843453431028  0.30689600779909654  0.37335023970950953  1.0000
  H   H18       1.0  0.8576621309061351  0.6931308278812625  0.6266530685264088  1.0000
  H   H19       1.0  0.619600538406928  0.5845001673814638  0.9641574585206741  1.0000
  H   H20       1.0  0.38043837284932636  0.41552993172441444  0.03581926123126071  1.0000
  H   H21       1.0  0.7532019716868988  0.8498378378284034  0.49362302474865066  1.0000
  H   H22       1.0  0.24688653332270852  0.1501289506976846  0.506787044021344  1.0000
  C   C1        1.0  0.4955731441970456  0.32717573363645885  0.47264537836475995  1.0000
  C   C2        1.0  0.5044336672981302  0.6727551335561657  0.5273993963796644  1.0000
  C   C3        1.0  0.42011927205418687  0.8171998956106495  0.5274601701762764  1.0000
  C   C4        1.0  0.5799414313813498  0.18274669002839522  0.4727499100930146  1.0000
  C   C5        1.0  0.5055883361726927  0.7706296138889361  0.5233983621781634  1.0000
  C   C6        1.0  0.4944757232682733  0.22932701457593654  0.47676347819268033  1.0000
  C   C7        1.0  0.5896241021429985  0.8147605562512655  0.511136958567228  1.0000
  C   C8        1.0  0.41045964593614304  0.18519969182521126  0.4890728410748438  1.0000
  C   C9        1.0  0.5893079625982834  0.9059101179724184  0.5016615842825445  1.0000
  C   C10       1.0  0.41081603005821427  0.09405852002119992  0.49862776668791764  1.0000
  C   C11       1.0  0.5017897395123824  0.9539061421811257  0.5052772999597579  1.0000
  C   C12       1.0  0.49834636871865706  0.04605932512522772  0.4951008710110402  1.0000
  C   C13       1.0  0.41639699458265517  0.9086265054805769  0.5189636048254941  1.0000
  C   C14       1.0  0.5837231904564675  0.09133112747727523  0.48134270587839023  1.0000
  C   C15       1.0  0.6739816135957213  0.953936662149289  0.4876831193685903  1.0000
  C   C16       1.0  0.3261450844678961  0.046014218118315894  0.512611258109061  1.0000
  C   C17       1.0  0.670606978673895  0.04298176923136771  0.47783335221670603  1.0000
  C   C18       1.0  0.32952343013977264  0.9569722609294546  0.5224491178359331  1.0000
  C   C19       1.0  0.8047253805124086  0.5769722146500345  0.5316505165508405  1.0000
  C   C20       1.0  0.19526392579771107  0.42305440346189727  0.46833715194460984  1.0000
  C   C21       1.0  0.792338560771803  0.4588256720213624  0.438832316865316  1.0000
  C   C22       1.0  0.2076659367506224  0.5412119708078508  0.561148925063307  1.0000
  C   C23       1.0  0.5440016377836869  0.4644715270215445  0.6453690970912334  1.0000
  C   C24       1.0  0.45600599464081176  0.5355095160290587  0.354620160426613  1.0000
  C   C25       1.0  0.892317879699199  0.4467250724233553  0.4428340433253695  1.0000
  C   C26       1.0  0.10768604303400758  0.5533210426120334  0.5571373888813228  1.0000
  C   C27       1.0  0.9493383131883489  0.5048487334217314  0.4963447669586999  1.0000
  C   C28       1.0  0.05066418922514519  0.4951993676241246  0.5036265866092009  1.0000
  C   C29       1.0  0.9057833808216457  0.5723145968452316  0.5411677089300895  1.0000
  C   C30       1.0  0.09420817709719391  0.42771985686657404  0.4588145282641492  1.0000
  C   C31       1.0  0.9362039132394031  0.37974802216105996  0.39792278773738604  1.0000
  C   C32       1.0  0.0637869831815578  0.6202870369978942  0.602053515062565  1.0000
  C   C33       1.0  0.0341439484049246  0.3692195284781903  0.4055928332821352  1.0000
  C   C34       1.0  0.9658432661088908  0.6308136754573755  0.5943930636654643  1.0000
  C   C35       1.0  0.5481484251760236  0.4530074886045627  0.7331319082838803  1.0000
  C   C36       1.0  0.45185014237343774  0.5470051913545789  0.2668521214178767  1.0000
  C   C37       1.0  0.49907729162001147  0.3847458930362181  0.7647877627139794  1.0000
  C   C38       1.0  0.5009334802947975  0.6152686743321782  0.2351963381862276  1.0000
  C   C39       1.0  0.490987538311252  0.3880024748045373  0.8462854269847642  1.0000
  C   C40       1.0  0.5090326015922386  0.612018610945427  0.15369860817840228  1.0000
  C   C41       1.0  0.529549345132743  0.4582712641647789  0.8966993084674757  1.0000
  C   C42       1.0  0.47048300176574287  0.5417536974650901  0.10328603590117072  1.0000
  C   C43       1.0  0.5839790535164368  0.5226752011651785  0.8639020808433886  1.0000
  C   C44       1.0  0.4160419542279498  0.47735898352736694  0.13607478061905454  1.0000
  C   C45       1.0  0.59339594223902  0.5190215942296562  0.7828835346264642  1.0000
  C   C46       1.0  0.40660424589730576  0.4809994919270793  0.21708559843747827  1.0000
  C   C47       1.0  0.5141469217765575  0.4631397780357462  0.9807029733787617  1.0000
  C   C48       1.0  0.48589333179626953  0.5368857689529707  0.019280805528225604  1.0000
  N   N1        1.0  0.7503510761090199  0.5191328486904966  0.483920405970146  1.0000
  N   N2        1.0  0.2496417806820901  0.4808911281498639  0.5160692957907431  1.0000
  Cl  Cl1       1.0  0.4506405881215798  0.2982776574567724  0.7046970127653722  1.0000
  Cl  Cl2       1.0  0.549363476674138  0.7017199868176647  0.29530299696897094  1.0000
  Cl  Cl3       1.0  0.5726617283562732  0.692612263813082  0.11315856456052843  1.0000
  Cl  Cl4       1.0  0.4273748664363665  0.30741737593950097  0.8868367570440585  1.0000
  O   O1        1.0  0.5761692232974339  0.36472674093664653  0.478296563884726  1.0000
  O   O2        1.0  0.42381873718005636  0.6352453528088235  0.5216386867213247  1.0000
  O   O3        1.0  0.4151329030245278  0.3690037960237548  0.46546234268088693  1.0000
  O   O4        1.0  0.5848714352808955  0.6309055486039911  0.5346027369309071  1.0000
  O   O5        1.0  0.6217788605270512  0.4740152295428717  0.6153402275682539  1.0000
  O   O6        1.0  0.37823690273368266  0.5258799961489515  0.3846372191319106  1.0000
  O   O7        1.0  0.4595089627260123  0.4681821105408589  0.6099298548061187  1.0000
  O   O8        1.0  0.5404983721696013  0.5318542193059557  0.39005397972997  1.0000
  O   O9        1.0  0.7615313721402045  0.6414629225733537  0.5714273889701007  1.0000
  O   O10       1.0  0.23844785633966836  0.35855584640763993  0.4285584692745346  1.0000
  O   O11       1.0  0.7292767769894297  0.4100947927252322  0.3895147882762871  1.0000
  O   O12       1.0  0.2707248035235494  0.5899429264989566  0.6104720592260763  1.0000
  O   O13       1.0  0.07180534113632579  0.30384536555276753  0.36193810773873036  1.0000
  O   O14       1.0  0.9281804461653419  0.6961871769712078  0.6380464522209552  1.0000
  O   O15       1.0  0.6294001795671563  0.5900889630330538  0.9083830688906931  1.0000
  O   O16       1.0  0.3706201499881842  0.409951156800176  0.0915939058180157  1.0000
  O   O17       1.0  0.7598524386423903  0.9121568286203044  0.4841009829284603  1.0000
  O   O18       1.0  0.24028057244942858  0.08779431689045943  0.5162923504266885  1.0000
