data_image0
_chemical_formula_structural       Zn8H136C208O40
_chemical_formula_sum              "Zn8 H136 C208 O40"
_cell_length_a       12.951793483587407
_cell_length_b       26.67962165791511
_cell_length_c       26.679688428043566
_cell_angle_alpha    65.74946099993342
_cell_angle_beta     75.95356244329587
_cell_angle_gamma    75.95354081681005

_space_group_name_H-M_alt    "P 1"
_space_group_IT_number       1

loop_
  _space_group_symop_operation_xyz
  'x, y, z'

loop_
  _atom_site_type_symbol
  _atom_site_label
  _atom_site_symmetry_multiplicity
  _atom_site_fract_x
  _atom_site_fract_y
  _atom_site_fract_z
  _atom_site_occupancy
  Zn  Zn1       1.0  0.1636860034363181  0.48356228954366987  0.3662134922281481  1.0000
  Zn  Zn2       1.0  0.012580351707974632  0.5591955199137927  0.29081482753922233  1.0000
  Zn  Zn3       1.0  0.9867201279672811  0.8663214560118816  0.9835173692645396  1.0000
  Zn  Zn4       1.0  0.13735548943537176  0.7910024682878641  0.05922648469634598  1.0000
  Zn  Zn5       1.0  0.33630872760267744  0.6337858994261863  0.5164376145175069  1.0000
  Zn  Zn6       1.0  0.4874195784312293  0.7091846806871586  0.44080437647002674  1.0000
  Zn  Zn7       1.0  0.5132822232969046  0.016481815935385696  0.13368095056474516  1.0000
  Zn  Zn8       1.0  0.3626486488861217  0.9407746651449571  0.20899913325174413  1.0000
  H   H1        1.0  0.02894694564727019  0.2606786501679109  0.3777663773685163  1.0000
  H   H2        1.0  0.08376319495098272  0.3461431259913538  0.37262817000279114  1.0000
  H   H3        1.0  0.846148598083616  0.44784553814577066  0.2677385915409046  1.0000
  H   H4        1.0  0.7892219383327442  0.362922600321724  0.2743191638380793  1.0000
  H   H5        1.0  0.02315097884862639  0.20647419655692537  0.3230993075441687  1.0000
  H   H6        1.0  0.6990042117367922  0.2923228050254636  0.34625645464502947  1.0000
  H   H7        1.0  0.9538933374613238  0.12203640297821745  0.3389634736016944  1.0000
  H   H8        1.0  0.5582088390267259  0.3117790666941147  0.28720770189017486  1.0000
  H   H9        1.0  0.4269166403320667  0.39193484825884894  0.3029803016378451  1.0000
  H   H10       1.0  0.33038757400522184  0.2878748351736037  0.47260648717060144  1.0000
  H   H11       1.0  0.46396789291625856  0.2075935683984866  0.4579876649838112  1.0000
  H   H12       1.0  0.4745813200366129  0.15948782380980475  0.3806473399105882  1.0000
  H   H13       1.0  0.834202541675829  0.9555053969908728  0.09311423269217999  1.0000
  H   H14       1.0  0.7798411551638508  0.9975809923019695  0.16467399464524143  1.0000
  H   H15       1.0  0.09672062080453254  0.9343020392448408  0.2116742220369403  1.0000
  H   H16       1.0  0.14846653806681318  0.8902197826041346  0.14158703930462468  1.0000
  H   H17       1.0  0.7947878218874324  0.0623768458666163  0.1952681463479067  1.0000
  H   H18       1.0  0.7462474992190877  0.1001350288459903  0.2696753202846196  1.0000
  H   H19       1.0  0.9997781433283207  0.9221819780232821  0.2946063904366484  1.0000
  H   H20       1.0  0.9640125385994907  0.95181884024484  0.4635090312385515  1.0000
  H   H21       1.0  0.15734087491031082  0.9446387334104855  0.31627141199617637  1.0000
  H   H22       1.0  0.9625214262562167  0.8530900090618302  0.4675780858986088  1.0000
  H   H23       1.0  0.30611543338937247  0.8632306664263966  0.33387600525482924  1.0000
  H   H24       1.0  0.1090909866507488  0.7708936304717893  0.48304790827641136  1.0000
  H   H25       1.0  0.4829066703053683  0.019526621262571098  0.38998228288289016  1.0000
  H   H26       1.0  0.43259909499581545  0.08340738358455717  0.40011672914027935  1.0000
  H   H27       1.0  0.39258616352508824  0.09012801768849238  0.30973220452460737  1.0000
  H   H28       1.0  0.4862025340442315  0.13523497761073597  0.2950075736743116  1.0000
  H   H29       1.0  0.5316014215336864  0.0693778610681122  0.2880603890370351  1.0000
  H   H30       1.0  0.877126355767757  0.9785479396995954  0.525563802331412  1.0000
  H   H31       1.0  0.817802942014758  0.04130549176169039  0.5361935118321596  1.0000
  H   H32       1.0  0.0154758982858212  0.024523481193682493  0.5365895790427899  1.0000
  H   H33       1.0  0.0440464704159993  0.021909107882017102  0.4689140285771102  1.0000
  H   H34       1.0  0.9802963546137563  0.08534897022384057  0.47818375918616596  1.0000
  H   H35       1.0  0.33293741347974054  0.8777726666545786  0.7608092669935472  1.0000
  H   H36       1.0  0.19779569028035837  0.8726235969346162  0.8462734240393528  1.0000
  H   H37       1.0  0.4385631320243206  0.7677499155614314  0.9479849411659128  1.0000
  H   H38       1.0  0.5738380181968877  0.7742988865974852  0.8630749916822178  1.0000
  H   H39       1.0  0.4476142942321105  0.8230684409651302  0.7066752522008884  1.0000
  H   H40       1.0  0.6628635610619681  0.8463721570023992  0.7923462127645776  1.0000
  H   H41       1.0  0.5852543665290995  0.8389958005148868  0.6221552285800627  1.0000
  H   H42       1.0  0.8435001039656529  0.7871486052760371  0.811826146790679  1.0000
  H   H43       1.0  0.8786409736915604  0.8030958819724389  0.8919331278820265  1.0000
  H   H44       1.0  0.9095260789347749  0.9726905125737486  0.7877310674907747  1.0000
  H   H45       1.0  0.8710036393703646  0.9579230206531261  0.7075026869040212  1.0000
  H   H46       1.0  0.9857791735368054  0.8804133597836026  0.6594684429054426  1.0000
  H   H47       1.0  0.11717194098002172  0.5930428022395519  0.4552669526038215  1.0000
  H   H48       1.0  0.05814922224087127  0.6644651330263045  0.4975387790874348  1.0000
  H   H49       1.0  0.757177605889389  0.711524687945527  0.43458960257811435  1.0000
  H   H50       1.0  0.8194359864518006  0.6416401726719768  0.3902514703543145  1.0000
  H   H51       1.0  0.9473925814712205  0.6950890284577793  0.562556856902951  1.0000
  H   H52       1.0  0.8837238127536936  0.7695418822102552  0.6002810465874402  1.0000
  H   H53       1.0  0.7840502493268462  0.7945815346049657  0.4220857099408021  1.0000
  H   H54       1.0  0.6207642914370339  0.9634026764664512  0.4518414093209202  1.0000
  H   H55       1.0  0.5815796883180225  0.8163563023720286  0.44461723362865513  1.0000
  H   H56       1.0  0.7169433694346025  0.967566371021569  0.3530469668958529  1.0000
  H   H57       1.0  0.49615937345586053  0.8341295865248167  0.3633052832444152  1.0000
  H   H58       1.0  0.6364789552398095  0.9832592991745199  0.2709746753340667  1.0000
  H   H59       1.0  0.10770286989463765  0.8900601415035468  0.5194834838726405  1.0000
  H   H60       1.0  0.08391401181528116  0.9001498382540588  0.5833884295796423  1.0000
  H   H61       1.0  0.20790399050285666  0.8098198562284081  0.5900311621286817  1.0000
  H   H62       1.0  0.08393786835910787  0.7950070194655012  0.6351592061308793  1.0000
  H   H63       1.0  0.11135219648843281  0.7881047252561896  0.5692752022573585  1.0000
  H   H64       1.0  0.6187850338865887  0.025483747301286996  0.47853904829104  1.0000
  H   H65       1.0  0.6047828914256286  0.036141970039793095  0.541271612054416  1.0000
  H   H66       1.0  0.42346053791084876  0.0365866596785054  0.5245226078181416  1.0000
  H   H67       1.0  0.4650493598786267  0.9688955762818807  0.5219299402865758  1.0000
  H   H68       1.0  0.456193288921149  0.9781848153002098  0.585350028141356  1.0000
  H   H69       1.0  0.4710522818052992  0.6222319305223394  0.7393217808332295  1.0000
  H   H70       1.0  0.41623776013867086  0.6273703724501871  0.653856984782152  1.0000
  H   H71       1.0  0.6538517064331374  0.7322606504332114  0.5521542009622846  1.0000
  H   H72       1.0  0.7107781765627197  0.7256798108385993  0.6370775826660021  1.0000
  H   H73       1.0  0.4768479491569978  0.6769017823314413  0.793525743318824  1.0000
  H   H74       1.0  0.800993242043198  0.6537426043140968  0.7076770255695803  1.0000
  H   H75       1.0  0.5461066582854032  0.6610369191610772  0.8779631988252773  1.0000
  H   H76       1.0  0.9417902390003334  0.712792469124281  0.6882188793108738  1.0000
  H   H77       1.0  0.07308129118280252  0.6970167069055291  0.6080642533601689  1.0000
  H   H78       1.0  0.16960944117312943  0.5273918825836148  0.7121268871625116  1.0000
  H   H79       1.0  0.03602798400571318  0.5420121700231135  0.7924066165020561  1.0000
  H   H80       1.0  0.025417131441322672  0.6193543140566007  0.8405107259506721  1.0000
  H   H81       1.0  0.6658003829395015  0.9068863454733176  0.04449443559416005  1.0000
  H   H82       1.0  0.7201571822189407  0.835328364517906  0.002418140973610261  1.0000
  H   H83       1.0  0.40327883377236173  0.7883281201147553  0.06569748893530657  1.0000
  H   H84       1.0  0.351536180173639  0.8584139846658729  0.10978113959549772  1.0000
  H   H85       1.0  0.7052127572303349  0.8047332487146546  0.9376202192248967  1.0000
  H   H86       1.0  0.7537532456700545  0.7303248597617297  0.8998644668669228  1.0000
  H   H87       1.0  0.5002211811951441  0.7053965234735099  0.07781563204022039  1.0000
  H   H88       1.0  0.5359870401694735  0.5364920247964874  0.048182336314390256  1.0000
  H   H89       1.0  0.3426589410177598  0.6837298060369716  0.05536272972747727  1.0000
  H   H90       1.0  0.5374789819822752  0.5324218317600183  0.14691058349281855  1.0000
  H   H91       1.0  0.19388496425126073  0.6661255440622683  0.13677077532474868  1.0000
  H   H92       1.0  0.39090773213958124  0.5169522963647637  0.22910615025246975  1.0000
  H   H93       1.0  0.017091738413121515  0.6100187364384269  0.9804713411633584  1.0000
  H   H94       1.0  0.0674010615264038  0.5998841656627077  0.9165908711784423  1.0000
  H   H95       1.0  0.10741316035924343  0.690268600921911  0.9098710195282675  1.0000
  H   H96       1.0  0.013795944450393375  0.7049936236220873  0.8647637138620536  1.0000
  H   H97       1.0  0.9683973157808125  0.7119402792225313  0.9306213015367604  1.0000
  H   H98       1.0  0.6228704214295888  0.4744344961013097  0.0214544901285691  1.0000
  H   H99       1.0  0.682195654635386  0.46380389356796303  0.958697558657384  1.0000
  H   H100      1.0  0.48452199386941414  0.4634094236267288  0.9754772008651569  1.0000
  H   H101      1.0  0.4559524751735325  0.5310843384869343  0.9780915547820827  1.0000
  H   H102      1.0  0.5197031471085083  0.5218143932865331  0.9146530249009784  1.0000
  H   H103      1.0  0.16705847793625136  0.2391907477429811  0.1222271987788872  1.0000
  H   H104      1.0  0.30220362485403035  0.15372817934095198  0.12737616635568116  1.0000
  H   H105      1.0  0.0614393160732121  0.052014870849596696  0.232250693271574  1.0000
  H   H106      1.0  0.9261626508568456  0.13692385065913015  0.2257014944924407  1.0000
  H   H107      1.0  0.05238508000267222  0.2933236244406529  0.17693232443502896  1.0000
  H   H108      1.0  0.8371337699573405  0.20765393410788838  0.1536271835386174  1.0000
  H   H109      1.0  0.9147446531526882  0.3778449550726251  0.16100408269547012  1.0000
  H   H110      1.0  0.6565018736589964  0.18817481561099914  0.21285068279807012  1.0000
  H   H111      1.0  0.6213625284987003  0.1080674430988253  0.19690475247177364  1.0000
  H   H112      1.0  0.5904710990194671  0.21226902941540257  0.027311222707091104  1.0000
  H   H113      1.0  0.6289908432136287  0.29249763120820654  0.04207818959810078  1.0000
  H   H114      1.0  0.5142184425474667  0.3405332086687238  0.11958554126227482  1.0000
  H   H115      1.0  0.3828281227276591  0.544734720766641  0.40695622747065124  1.0000
  H   H116      1.0  0.4418526826063385  0.5024627753714412  0.3355341498068184  1.0000
  H   H117      1.0  0.742822921494721  0.565410664864707  0.28847571650679527  1.0000
  H   H118      1.0  0.6805647892399095  0.6097498985377214  0.3583593734710461  1.0000
  H   H119      1.0  0.5526085066315432  0.4374440241626942  0.30490978938263413  1.0000
  H   H120      1.0  0.616277954735601  0.3997195024713135  0.23045784168330394  1.0000
  H   H121      1.0  0.7159482155669965  0.5779156239578853  0.20541834649601037  1.0000
  H   H122      1.0  0.8792338072486243  0.5481605949127655  0.03659641034138159  1.0000
  H   H123      1.0  0.918422179132371  0.5553829233143474  0.18364135243481886  1.0000
  H   H124      1.0  0.7830543935238127  0.646955904684468  0.03243422822024661  1.0000
  H   H125      1.0  0.0038429161550937022  0.6366935550964711  0.16586955377588455  1.0000
  H   H126      1.0  0.8635200007081352  0.7290278920598963  0.016740095738533974  1.0000
  H   H127      1.0  0.3922968164655884  0.48051906475227923  0.10993862476384207  1.0000
  H   H128      1.0  0.41608300029821527  0.4166154464828153  0.09984761693571184  1.0000
  H   H129      1.0  0.29209396227859935  0.4099712474139565  0.19017778437471825  1.0000
  H   H130      1.0  0.4160603704644004  0.3648428174391043  0.20499075903480699  1.0000
  H   H131      1.0  0.3886449497508977  0.4307273494477569  0.2118939428588078  1.0000
  H   H132      1.0  0.8812143428637357  0.5214620254988631  0.9745152562861957  1.0000
  H   H133      1.0  0.8952193880313646  0.45872885806563346  0.9638579336440998  1.0000
  H   H134      1.0  0.07654131775923644  0.47547999703105137  0.9634130458596033  1.0000
  H   H135      1.0  0.03494942656755738  0.47807265921444037  0.031104092344591508  1.0000
  H   H136      1.0  0.043807168428657055  0.41465286950454316  0.021814945536377254  1.0000
  C   C1        1.0  0.9044016183134219  0.3057367553444336  0.32679900452645677  1.0000
  C   C2        1.0  0.9897888577897335  0.3017026417804516  0.35305260447547215  1.0000
  C   C3        1.0  0.020693438687239066  0.3492722421969319  0.3503539308517957  1.0000
  C   C4        1.0  0.9687127085863667  0.40229930611604203  0.31976739935573306  1.0000
  C   C5        1.0  0.8860330005767525  0.4068078288536582  0.2917721167515737  1.0000
  C   C6        1.0  0.854041293658092  0.3590561955680016  0.29574938265011497  1.0000
  C   C7        1.0  0.8646980628671344  0.25557847697714203  0.3336207065715229  1.0000
  C   C8        1.0  0.936389040779929  0.20633589515873743  0.3322032867467967  1.0000
  C   C9        1.0  0.7545897591026574  0.25536524784428133  0.3433743569604956  1.0000
  C   C10       1.0  0.7120116056938175  0.20776026057807673  0.352145081103906  1.0000
  C   C11       1.0  0.8977646357887394  0.15922637010584853  0.340822663403152  1.0000
  C   C12       1.0  0.7851027812980007  0.157963123756744  0.35152955132392794  1.0000
  C   C13       1.0  0.5986221526926557  0.20656084087210044  0.3643947690326073  1.0000
  C   C14       1.0  0.5199802573782292  0.2545204328324786  0.3717703329043828  1.0000
  C   C15       1.0  0.5093843583121538  0.3067264510165799  0.3280573392219138  1.0000
  C   C16       1.0  0.43674019189432295  0.35137794952434825  0.3366549564189682  1.0000
  C   C17       1.0  0.3728867933386296  0.34485895698825425  0.3888668705817223  1.0000
  C   C18       1.0  0.3813953088897152  0.2926445712672248  0.43236992376605327  1.0000
  C   C19       1.0  0.45483129305743836  0.2480434158699011  0.423840227859955  1.0000
  C   C20       1.0  0.5613215706821465  0.1590556675845889  0.3721569260282607  1.0000
  C   C21       1.0  0.6335978858624075  0.1105682253427389  0.3702217248354458  1.0000
  C   C22       1.0  0.7445658275694458  0.1089503577218878  0.3619179244352109  1.0000
  C   C23       1.0  0.89109150024359  0.9507896026684506  0.11950347131929819  1.0000
  C   C24       1.0  0.9939959138950697  0.9192571340874098  0.11352169443139808  1.0000
  C   C25       1.0  0.8610832910385043  0.9743239558625302  0.15985809088664366  1.0000
  C   C26       1.0  0.9335198941778059  0.9671882407903992  0.1949583493211478  1.0000
  C   C27       1.0  0.038105935267807915  0.9375646476040131  0.1868196581241078  1.0000
  C   C28       1.0  0.06779320674261409  0.9135096526498571  0.14719478360008523  1.0000
  C   C29       1.0  0.9028565623926426  0.989615323234986  0.23953458787568846  1.0000
  C   C30       1.0  0.8290057714919358  0.03998159123951689  0.23357091378753128  1.0000
  C   C31       1.0  0.8024363529392176  0.06125356185193451  0.2748857515153914  1.0000
  C   C32       1.0  0.9466686903374535  0.9620324084425602  0.2884139333070835  1.0000
  C   C33       1.0  0.9221159875529422  0.9829837944955316  0.33153854523455084  1.0000
  C   C34       1.0  0.8473197901399915  0.03394552498486549  0.32498361406311455  1.0000
  C   C35       1.0  0.8187587564317268  0.0556163182944829  0.3678363920719007  1.0000
  C   C36       1.0  0.860162766773591  0.0256144622578844  0.4175518235548665  1.0000
  C   C37       1.0  0.9321819588432589  0.9749315619981257  0.4246565765001479  1.0000
  C   C38       1.0  0.9654129251127087  0.954306653824979  0.38240258278835865  1.0000
  C   C39       1.0  0.049291742370200994  0.9041290199541195  0.39049814514174136  1.0000
  C   C40       1.0  0.14622527318933726  0.9062537065831433  0.35240209759581376  1.0000
  C   C41       1.0  0.036891894574225106  0.8550226636122175  0.4376768960065506  1.0000
  C   C42       1.0  0.22918533538459224  0.8609233069860096  0.36188589016449385  1.0000
  C   C43       1.0  0.11883444113139773  0.8091039949585548  0.44664624317716306  1.0000
  C   C44       1.0  0.21607778293319052  0.8120561159942098  0.409090829783615  1.0000
  C   C45       1.0  0.4914491443642747  0.06367002069222139  0.373417913434153  1.0000
  C   C46       1.0  0.4747748731833426  0.09144313529933609  0.31297786619035134  1.0000
  C   C47       1.0  0.8748392954976721  0.023878743979537397  0.5073606204259204  1.0000
  C   C48       1.0  0.9852847996454486  0.03985712460644919  0.4968931416797915  1.0000
  C   C49       1.0  0.3077269810712622  0.7659697617984731  0.4216628678478996  1.0000
  C   C50       1.0  0.024555391474777373  0.8893844280988219  0.07476163120506368  1.0000
  C   C51       1.0  0.9997987499875904  0.45268079401772343  0.3186137686310247  1.0000
  C   C52       1.0  0.29291783976900376  0.39299919031576275  0.3962408574614286  1.0000
  C   C53       1.0  0.46345721455090666  0.8268345403293794  0.8058653453535879  1.0000
  C   C54       1.0  0.3558263691759223  0.8530662034229906  0.801830603169513  1.0000
  C   C55       1.0  0.28001450464964234  0.8503628903892917  0.8493895950877501  1.0000
  C   C56       1.0  0.3095105364942725  0.8197916428000623  0.9024327754436994  1.0000
  C   C57       1.0  0.41566600307027807  0.7917883344934822  0.9069412374707819  1.0000
  C   C58       1.0  0.491479249926421  0.7957625131172961  0.8591870529921548  1.0000
  C   C59       1.0  0.5464693744092272  0.8336660324297824  0.7556988841380202  1.0000
  C   C60       1.0  0.525384680879988  0.8322198538403497  0.7064873489281139  1.0000
  C   C61       1.0  0.6470642474068528  0.843435897696821  0.7554261297648991  1.0000
  C   C62       1.0  0.7284555648528865  0.8521476374583442  0.7078046735475851  1.0000
  C   C63       1.0  0.6023991880239593  0.8408513208015619  0.6593424316276424  1.0000
  C   C64       1.0  0.7056747296491466  0.8515360739774566  0.6580249647333501  1.0000
  C   C65       1.0  0.8309074870307853  0.8643175415564953  0.7065617845145338  1.0000
  C   C66       1.0  0.8543784346912346  0.871703362039952  0.7544918617807567  1.0000
  C   C67       1.0  0.8564806733567776  0.828025850374267  0.8067281582888343  1.0000
  C   C68       1.0  0.87573308461711  0.8367187309818502  0.8513533862751929  1.0000
  C   C69       1.0  0.8937946490116957  0.888959903148773  0.8447992006281735  1.0000
  C   C70       1.0  0.8941072411230235  0.9324083034441273  0.7925454562438714  1.0000
  C   C71       1.0  0.8739201509292017  0.9237973480355988  0.7479584661359123  1.0000
  C   C72       1.0  0.9078766216217247  0.872027092634923  0.6590345119843164  1.0000
  C   C73       1.0  0.885859662840737  0.8701441431082344  0.6105560604240805  1.0000
  C   C74       1.0  0.7847553581580016  0.8618849660910614  0.6089692096216409  1.0000
  C   C75       1.0  0.03860089191132224  0.6194457386776762  0.4506451431807504  1.0000
  C   C76       1.0  0.9731169947253375  0.6135483860072526  0.4191073333356812  1.0000
  C   C77       1.0  0.004852043037224977  0.6597171858091002  0.47429741865055053  1.0000
  C   C78       1.0  0.9044452307578439  0.6948348103568449  0.46725134828169956  1.0000
  C   C79       1.0  0.8374488644694865  0.6867122956373989  0.43770043892823196  1.0000
  C   C80       1.0  0.8713511219071038  0.6471858941670872  0.4135107756657772  1.0000
  C   C81       1.0  0.8681960392114547  0.7394260251852243  0.4896638403013823  1.0000
  C   C82       1.0  0.8974300936168904  0.7334328910730007  0.5400948800619431  1.0000
  C   C83       1.0  0.8614041109239706  0.7747726578178413  0.5613433174236491  1.0000
  C   C84       1.0  0.8032813926556842  0.7883596445190832  0.46199587351409105  1.0000
  C   C85       1.0  0.7636708943869978  0.8314913671947435  0.48294775040427845  1.0000
  C   C86       1.0  0.793888147809426  0.8249144375116658  0.5339663235159691  1.0000
  C   C87       1.0  0.7579163515147158  0.8677679366522497  0.5556495025522067  1.0000
  C   C88       1.0  0.6967814434925473  0.917474288000726  0.5256257891813049  1.0000
  C   C89       1.0  0.6684044030014746  0.9245686344148465  0.4749332744263055  1.0000
  C   C90       1.0  0.6981539240943134  0.8823404523760344  0.4542642669087583  1.0000
  C   C91       1.0  0.6561750460983758  0.8905020013602467  0.40409193664219595  1.0000
  C   C92       1.0  0.5949495947174698  0.8524955796046855  0.4062434512616661  1.0000
  C   C93       1.0  0.6703519664890508  0.9377265396344255  0.35500987190345507  1.0000
  C   C94       1.0  0.5475691810462349  0.862079575753263  0.36095652482838164  1.0000
  C   C95       1.0  0.6250421704066582  0.9468112987343743  0.3091441293452418  1.0000
  C   C96       1.0  0.5622737242217537  0.909300456354167  0.3121038678316737  1.0000
  C   C97       1.0  0.07166447542531529  0.8734370791299708  0.5636275743836165  1.0000
  C   C98       1.0  0.12114094645352223  0.8130278822838405  0.5913590030016491  1.0000
  C   C99       1.0  0.593964477946564  0.007299729665803099  0.5238669204811685  1.0000
  C   C100      1.0  0.4779814607729237  0.9968759052943738  0.539858664378059  1.0000
  C   C101      1.0  0.5042168977430351  0.9218599006756207  0.26597854325662235  1.0000
  C   C102      1.0  0.011205170662741196  0.574870280112897  0.38914875249050607  1.0000
  C   C103      1.0  0.22915236317675186  0.818710037743095  0.952777176822721  1.0000
  C   C104      1.0  0.9179614350728185  0.8963755123830452  0.8929757227065878  1.0000
  C   C105      1.0  0.5955994123693885  0.6731988256815669  0.6942641643457745  1.0000
  C   C106      1.0  0.5102117422049802  0.6469448430093221  0.6982982598465027  1.0000
  C   C107      1.0  0.47930856660298815  0.6496435943682782  0.6507280013545864  1.0000
  C   C108      1.0  0.5312885719868065  0.6802293540179393  0.5977006946255299  1.0000
  C   C109      1.0  0.6139688400211651  0.7082245113528243  0.5931927009453019  1.0000
  C   C110      1.0  0.6459592266339556  0.7042477510687208  0.6409447643211621  1.0000
  C   C111      1.0  0.6353009876189829  0.666378540954433  0.7444218551263475  1.0000
  C   C112      1.0  0.5636095471756875  0.6677970066722378  0.7936634832939404  1.0000
  C   C113      1.0  0.7454084542242186  0.6566249651705219  0.7446345355684797  1.0000
  C   C114      1.0  0.7879869737744655  0.6478547309995975  0.7922393964064794  1.0000
  C   C115      1.0  0.6022345674573729  0.6591766173610336  0.8407732525113117  1.0000
  C   C116      1.0  0.7148964097281195  0.6484689762406716  0.8420364340671184  1.0000
  C   C117      1.0  0.9013783683886911  0.6356056580978728  0.7934385651883105  1.0000
  C   C118      1.0  0.9800189513017801  0.628229641048726  0.7454785229594448  1.0000
  C   C119      1.0  0.9906156266618779  0.6719423572616562  0.6932713268568733  1.0000
  C   C120      1.0  0.06325842326476308  0.6633432395370845  0.6486205857069578  1.0000
  C   C121      1.0  0.12710820989533284  0.6111322343863677  0.6551411990952187  1.0000
  C   C122      1.0  0.11860155611316257  0.5676289976944914  0.7073565958214515  1.0000
  C   C123      1.0  0.045165074097283785  0.5761600202410548  0.7519574025312962  1.0000
  C   C124      1.0  0.9386791165856606  0.6278442312221273  0.8409429535360999  1.0000
  C   C125      1.0  0.8664022289096495  0.6297773978516972  0.8894309115811226  1.0000
  C   C126      1.0  0.7554342986382636  0.6380810781332968  0.8910493351871479  1.0000
  C   C127      1.0  0.6089114021471006  0.8804975373479349  0.049209913638108636  1.0000
  C   C128      1.0  0.5060072220409068  0.8864797413786293  0.08074303056037017  1.0000
  C   C129      1.0  0.6389187834992215  0.8401439448077355  0.02567463813900866  1.0000
  C   C130      1.0  0.5664818448273297  0.8050456151767094  0.03280905124556442  1.0000
  C   C131      1.0  0.46189532391509386  0.8131837303705681  0.0624338275100484  1.0000
  C   C132      1.0  0.4322083955770636  0.8528076488860562  0.08649004396125554  1.0000
  C   C133      1.0  0.5971429681168628  0.760468091242032  0.010381995518194713  1.0000
  C   C134      1.0  0.6709940142156086  0.7664309840543595  0.9600158370987444  1.0000
  C   C135      1.0  0.6975646571917197  0.7251152954310597  0.9387452957741829  1.0000
  C   C136      1.0  0.5533319881512213  0.7115880168032476  0.0379655801265457  1.0000
  C   C137      1.0  0.5778845162919737  0.6684620913523744  0.017014889178554454  1.0000
  C   C138      1.0  0.6526805545249132  0.6750170995368523  0.9660536443610038  1.0000
  C   C139      1.0  0.6812418172183073  0.6321623794632529  0.9443839294839975  1.0000
  C   C140      1.0  0.6398367794671813  0.5824472671653281  0.9743863539684622  1.0000
  C   C141      1.0  0.5678176338678683  0.5753437581849211  0.02506886180498207  1.0000
  C   C142      1.0  0.5345859168636907  0.6175984518401235  0.045693805955707496  1.0000
  C   C143      1.0  0.4507062369449813  0.6095032675477936  0.0958702427228246  1.0000
  C   C144      1.0  0.353774501292463  0.6475989918445251  0.09374636199441262  1.0000
  C   C145      1.0  0.463107191004667  0.5623239744671764  0.1449771830028511  1.0000
  C   C146      1.0  0.270814377642921  0.6381153003709059  0.13907696341936324  1.0000
  C   C147      1.0  0.38116428603964897  0.5533537532325639  0.19089599729488776  1.0000
  C   C148      1.0  0.28392133064874503  0.5909091684197209  0.18794359926142326  1.0000
  C   C149      1.0  0.008549431460650712  0.6265824135842307  0.9363278164484541  1.0000
  C   C150      1.0  0.02522462483236852  0.6870221144446517  0.9085555567466342  1.0000
  C   C151      1.0  0.6251604324126703  0.49263765691403444  0.9761234269782901  1.0000
  C   C152      1.0  0.5147115457328084  0.5031054152871306  0.9601438721982376  1.0000
  C   C153      1.0  0.1922700913584166  0.5783361413452538  0.2340277797272349  1.0000
  C   C154      1.0  0.4754517287849466  0.9252381655415148  0.11061708259271083  1.0000
  C   C155      1.0  0.5002001942707108  0.6813834662647195  0.5473204110870853  1.0000
  C   C156      1.0  0.20707891837874837  0.6037525817151276  0.6070036781635294  1.0000
  C   C157      1.0  0.036542236293264814  0.19413325911251889  0.17316613725795088  1.0000
  C   C158      1.0  0.14417277230572978  0.19816933365420647  0.146934079592377  1.0000
  C   C159      1.0  0.2199839826648997  0.15061105958158552  0.14963766408304474  1.0000
  C   C160      1.0  0.19048899665447294  0.09756686987136479  0.18020945582951237  1.0000
  C   C161      1.0  0.08433307550195929  0.09305860559221203  0.20821277626678375  1.0000
  C   C162      1.0  0.008521667709501884  0.1408111542474799  0.20423826019844427  1.0000
  C   C163      1.0  0.9535292958144695  0.24430016694689977  0.16633490709748597  1.0000
  C   C164      1.0  0.9746119734313653  0.2935127059068633  0.16778057692579296  1.0000
  C   C165      1.0  0.8529325036806199  0.24457397729642594  0.1565640702448974  1.0000
  C   C166      1.0  0.7715426537077833  0.29219632366994114  0.14785151049500905  1.0000
  C   C167      1.0  0.8975995488052961  0.3406581024156309  0.15914808062895958  1.0000
  C   C168      1.0  0.794323603900395  0.3419758113096733  0.14846257515513628  1.0000
  C   C169      1.0  0.6690919751235286  0.2934395952404572  0.13568154037573524  1.0000
  C   C170      1.0  0.6456214182714675  0.2455084221708717  0.12829622061093457  1.0000
  C   C171      1.0  0.643521472411166  0.19327259743443653  0.1719737620443098  1.0000
  C   C172      1.0  0.6242716107425609  0.14864628681232256  0.1632816595584359  1.0000
  C   C173      1.0  0.606207032598178  0.15520161004836547  0.11104018895316156  1.0000
  C   C174      1.0  0.605892117004025  0.20745462640115866  0.06759162598233097  1.0000
  C   C175      1.0  0.6260773595706581  0.25204222846208063  0.07620275629848544  1.0000
  C   C176      1.0  0.5921222991226501  0.34096756006579193  0.12797198370628854  1.0000
  C   C177      1.0  0.6141397100964526  0.38944549710703297  0.12985458112695622  1.0000
  C   C178      1.0  0.7152456448489916  0.39103132716926575  0.13811432446153304  1.0000
  C   C179      1.0  0.461399139586284  0.5493557703478089  0.3805528434065407  1.0000
  C   C180      1.0  0.5268842962430822  0.5808930323038196  0.38645109251087467  1.0000
  C   C181      1.0  0.4951480454146519  0.5257041142075422  0.3402816765469011  1.0000
  C   C182      1.0  0.5955555282810394  0.5327497843159108  0.3051648033426417  1.0000
  C   C183      1.0  0.66255274098814  0.562300134446822  0.31328749527792615  1.0000
  C   C184      1.0  0.6286515774591024  0.5864903069014815  0.35281313840297895  1.0000
  C   C185      1.0  0.6318059709122467  0.5103372628555576  0.2605739163996361  1.0000
  C   C186      1.0  0.6025727447030889  0.45990572129556984  0.26656626608103545  1.0000
  C   C187      1.0  0.638598491664844  0.438657048098989  0.22522754075114187  1.0000
  C   C188      1.0  0.6967202722727704  0.5380054161845749  0.21163962373299233  1.0000
  C   C189      1.0  0.7363316262646862  0.5170536320474071  0.16850775854560848  1.0000
  C   C190      1.0  0.7061154213020728  0.4660341053544953  0.17508489753949869  1.0000
  C   C191      1.0  0.7420857340768093  0.4443508160382591  0.1322312372363542  1.0000
  C   C192      1.0  0.8032222598236841  0.4743747352890182  0.08252513874153061  1.0000
  C   C193      1.0  0.8315959441754613  0.5250684026201924  0.07543037426032842  1.0000
  C   C194      1.0  0.8018479800498072  0.5457374387130398  0.11765782630154578  1.0000
  C   C195      1.0  0.8438248279299431  0.5959099021785619  0.10949631769765486  1.0000
  C   C196      1.0  0.9050511175275846  0.5937582426947825  0.1475025999930395  1.0000
  C   C197      1.0  0.8296475455216666  0.6449913749595098  0.06227254357700927  1.0000
  C   C198      1.0  0.9524318074822063  0.639043187960965  0.13792051276886497  1.0000
  C   C199      1.0  0.8749575363394725  0.6908565857279713  0.05318847028372172  1.0000
  C   C200      1.0  0.9377266681885742  0.6878968728237282  0.09069934788691823  1.0000
  C   C201      1.0  0.4283322860390796  0.43637562739571917  0.12656112100440003  1.0000
  C   C202      1.0  0.37885688941092605  0.40864388816958547  0.1869684894084855  1.0000
  C   C203      1.0  0.9060365544056597  0.4761341654708672  0.9926996788101616  1.0000
  C   C204      1.0  0.02201928531729178  0.4601438994539748  0.003123544523191371  1.0000
  C   C205      1.0  0.9957849632816006  0.7340238089007443  0.0781389654957677  1.0000
  C   C206      1.0  0.488794774056984  0.6108518697196389  0.42513174740324894  1.0000
  C   C207      1.0  0.2708480750740491  0.04722091638623741  0.18129213841038444  1.0000
  C   C208      1.0  0.5820408449912051  0.10702290783132178  0.1036249627918053  1.0000
  O   O1        1.0  0.8260777169164796  0.048083956244589394  0.457566711557348  1.0000
  O   O2        1.0  0.5999553629460125  0.06187927527147251  0.3797962424011913  1.0000
  O   O3        1.0  0.4006589085004321  0.7721876483902361  0.3900418177677452  1.0000
  O   O4        1.0  0.2973689752432662  0.7219161786935684  0.4652229099927751  1.0000
  O   O5        1.0  0.962600037806567  0.5006783963929349  0.28335757146865603  1.0000
  O   O6        1.0  0.06023487168015863  0.4468411939383329  0.35231840474861537  1.0000
  O   O7        1.0  0.9624836872468164  0.8986807620760188  0.04006534161304397  1.0000
  O   O8        1.0  0.11294639365078746  0.8540880552219007  0.0796392937343243  1.0000
  O   O9        1.0  0.3075736273301999  0.4418570205609456  0.35763521344559723  1.0000
  O   O10       1.0  0.21376016563479538  0.38709251331174943  0.43473951897617974  1.0000
  O   O11       1.0  0.6682719831954884  0.9574931173305644  0.5480910361343234  1.0000
  O   O12       1.0  0.9585770475313494  0.8796951052752816  0.5618618040799177  1.0000
  O   O13       1.0  0.4371837968292099  0.8900473280239465  0.27203234276212385  1.0000
  O   O14       1.0  0.5147341815124591  0.9655514293711744  0.2220274289134352  1.0000
  O   O15       1.0  0.25347570361684296  0.7834476921575158  0.0007938820428777827  1.0000
  O   O16       1.0  0.1409406241542682  0.8524948847041075  0.9468767632590411  1.0000
  O   O17       1.0  0.09858027354387386  0.5401131778274858  0.3985108329318622  1.0000
  O   O18       1.0  0.9533754787887432  0.5798769114972231  0.35374174803548186  1.0000
  O   O19       1.0  0.893111394611566  0.8577353012985753  0.9418133542295664  1.0000
  O   O20       1.0  0.9643214176490745  0.934943447556584  0.887118108894526  1.0000
  O   O21       1.0  0.6739226831645835  0.5424313628808476  0.951917802072998  1.0000
  O   O22       1.0  0.9000473245999173  0.6202038051229835  0.9381185655991757  1.0000
  O   O23       1.0  0.09933824170600054  0.6099564487114078  0.22780931695236722  1.0000
  O   O24       1.0  0.2026263099585393  0.534775260122629  0.27808018768887166  1.0000
  O   O25       1.0  0.5373997684263188  0.716639376692491  0.4993231919267771  1.0000
  O   O26       1.0  0.439761535770181  0.6476805015879917  0.5531600643071781  1.0000
  O   O27       1.0  0.5375272331290049  0.9599326070687156  0.10132249124495726  1.0000
  O   O28       1.0  0.38705952896843593  0.9203627512322256  0.14591251128454993  1.0000
  O   O29       1.0  0.1924208303090111  0.6423554441162338  0.5581439302817869  1.0000
  O   O30       1.0  0.28623459753877967  0.5652549365080333  0.6129134342788729  1.0000
  O   O31       1.0  0.8317320818898679  0.45190854664514296  0.04250670521531666  1.0000
  O   O32       1.0  0.5414235303299578  0.4381400369204157  0.12030264859669162  1.0000
  O   O33       1.0  0.06282136305089371  0.7279687858868799  0.10995061653199655  1.0000
  O   O34       1.0  0.9852610795976918  0.7779758284454983  0.03444783502187228  1.0000
  O   O35       1.0  0.24652338127226153  0.9992047608776531  0.21655563413026613  1.0000
  O   O36       1.0  0.35906123426484265  0.053120027559948796  0.1475068672005051  1.0000
  O   O37       1.0  0.40141901197998914  0.6014880145623352  0.45988880879273336  1.0000
  O   O38       1.0  0.5466281343577323  0.6462575005536593  0.4201252252347841  1.0000
  O   O39       1.0  0.6068948140406364  0.05818453829189  0.14226556533763102  1.0000
  O   O40       1.0  0.5356775339064441  0.1128813421396515  0.0650581597959672  1.0000
