data_image0
_chemical_formula_structural       Cd2H32C30N4O12
_chemical_formula_sum              "Cd2 H32 C30 N4 O12"
_cell_length_a       8.461667260151692
_cell_length_b       10.48568065985026
_cell_length_c       10.440286092478674
_cell_angle_alpha    65.44785264535787
_cell_angle_beta     81.00177526094568
_cell_angle_gamma    79.98221393762097

_space_group_name_H-M_alt    "P 1"
_space_group_IT_number       1

loop_
  _space_group_symop_operation_xyz
  'x, y, z'

loop_
  _atom_site_type_symbol
  _atom_site_label
  _atom_site_symmetry_multiplicity
  _atom_site_fract_x
  _atom_site_fract_y
  _atom_site_fract_z
  _atom_site_occupancy
  Cd  Cd1       1.0  0.7505144588367827  0.6374214762549711  0.7948916860253094  1.0000
  Cd  Cd2       1.0  0.24948145349154066  0.3625768752508804  0.2051032648121236  1.0000
  H   H1        1.0  0.8066337625999651  0.49855907086036666  0.5726285688826138  1.0000
  H   H2        1.0  0.19334091795075642  0.5014341955381383  0.42737828170391623  1.0000
  H   H3        1.0  0.9645753643142287  0.30298165750093636  0.5065864059412419  1.0000
  H   H4        1.0  0.03538989794071059  0.6970062176606858  0.49341996441580005  1.0000
  H   H5        1.0  0.1480291919668062  0.12282875321532313  0.6732874936679637  1.0000
  H   H6        1.0  0.8519475494153709  0.8771647246647588  0.3267085189414233  1.0000
  H   H7        1.0  0.009713479838666226  0.3402075508686123  0.9539507834498269  1.0000
  H   H8        1.0  0.9903012656283249  0.6597993710438744  0.04603714068773705  1.0000
  H   H9        1.0  0.46247855828061557  0.6599995311866634  0.025537319011171178  1.0000
  H   H10       1.0  0.5375512391285966  0.34001913270592604  0.9744795349814839  1.0000
  H   H11       1.0  0.2507995102410517  0.826913625382332  0.08903988382909486  1.0000
  H   H12       1.0  0.7492066090981809  0.1731061276174799  0.9109591241264213  1.0000
  H   H13       1.0  0.42204508621931325  0.16381446536816216  0.7081775223897042  1.0000
  H   H14       1.0  0.5779420690999403  0.8361898613894495  0.29180655916714227  1.0000
  H   H15       1.0  0.6407961816269108  0.9851220143047142  0.6705379545405351  1.0000
  H   H16       1.0  0.3592043160123808  0.014887865652546897  0.32945590823805304  1.0000
  H   H17       1.0  0.2650155418750089  0.8076608243100621  0.6282629106919942  1.0000
  H   H18       1.0  0.7350064537907599  0.19231484785497335  0.3717516862364932  1.0000
  H   H19       1.0  0.19083770324360222  0.8856833588210052  0.749381277008432  1.0000
  H   H20       1.0  0.809172984791381  0.1142978536936354  0.2506256763248089  1.0000
  H   H21       1.0  0.13286113793100895  0.9691988652961644  0.5703541774363785  1.0000
  H   H22       1.0  0.867155323509479  0.030773611393925582  0.42965026722315264  1.0000
  H   H23       1.0  0.3342059394607516  0.6298091206716805  0.509728935117657  1.0000
  H   H24       1.0  0.665766522441096  0.37019303972773093  0.4902801044650502  1.0000
  H   H25       1.0  0.2577063938268864  0.542946164628013  0.6915773870950872  1.0000
  H   H26       1.0  0.7422784969104085  0.4570481862630303  0.3084322065538387  1.0000
  H   H27       1.0  0.39982717197101186  0.44951724346198313  0.6083957101048512  1.0000
  H   H28       1.0  0.600164517685414  0.5504876883131543  0.3916032763580618  1.0000
  H   H29       1.0  0.8333179881362438  0.4421933218896612  0.08508959037557418  1.0000
  H   H30       1.0  0.1666834880124384  0.5577995550905755  0.9149105242860074  1.0000
  H   H31       1.0  0.645588536705816  0.4945323569996063  0.09922075305855317  1.0000
  H   H32       1.0  0.3544164603576121  0.5054722153407667  0.9007763717253782  1.0000
  C   C1        1.0  0.8896605646118516  0.4167693404589841  0.642137930927973  1.0000
  C   C2        1.0  0.11031930969769381  0.5832235268778588  0.3578647913268398  1.0000
  C   C3        1.0  0.975878260504366  0.308757431055497  0.6063390422045815  1.0000
  C   C4        1.0  0.024099091190720418  0.6912364898793371  0.39366257431861845  1.0000
  C   C5        1.0  0.08004712516367361  0.20806041528268082  0.6996884409614099  1.0000
  C   C6        1.0  0.919941251575324  0.7919397183340847  0.3003065199091353  1.0000
  C   C7        1.0  0.09104088830175532  0.21671019377108536  0.8282761493255467  1.0000
  C   C8        1.0  0.9089639517381582  0.7832984048014211  0.17171199796349862  1.0000
  C   C9        1.0  0.0012833261326861234  0.33058478756654347  0.855187302019715  1.0000
  C   C10       1.0  0.9987179914046606  0.6694222741465338  0.1448044921748277  1.0000
  C   C11       1.0  0.18090025519457248  0.1020635068455462  0.9421475160139607  1.0000
  C   C12       1.0  0.8191082305295297  0.8979541395380365  0.057843291664355055  1.0000
  C   C13       1.0  0.45289839935270493  0.7725749754319223  0.9593667317742886  1.0000
  C   C14       1.0  0.5471224007960629  0.22744414519372924  0.04064294117984702  1.0000
  C   C15       1.0  0.33381240784458316  0.8650724215125932  0.9942812011356141  1.0000
  C   C16       1.0  0.6661989697616021  0.1349441750594096  0.00572033294410799  1.0000
  C   C17       1.0  0.31774312097041246  0.008259373082466874  0.9036609710475504  1.0000
  C   C18       1.0  0.6822605368096005  0.9917564640820729  0.09633559847343066  1.0000
  C   C19       1.0  0.42840887943069106  0.05388166480468468  0.7837136620631001  1.0000
  C   C20       1.0  0.5715921045459851  0.9461262265060311  0.21627982584845284  1.0000
  C   C21       1.0  0.5492300159412552  0.9546308803844498  0.7601833522639084  1.0000
  C   C22       1.0  0.45077847482356487  0.04537881956554911  0.23981478554540564  1.0000
  C   C23       1.0  0.018604684798844938  0.7838334473561731  0.7093340255661007  1.0000
  C   C24       1.0  0.9814159102510372  0.21613592999774767  0.290672047587826  1.0000
  C   C25       1.0  0.15925515150837546  0.8687723776516665  0.6601368415222666  1.0000
  C   C26       1.0  0.840762313273103  0.13120490156297385  0.33987083765899234  1.0000
  C   C27       1.0  0.503176686521492  0.5937704113008733  0.659126120780961  1.0000
  C   C28       1.0  0.49680555603797666  0.4062327199875783  0.34087704538334407  1.0000
  C   C29       1.0  0.3641042649333599  0.5529026829573311  0.6148165870152483  1.0000
  C   C30       1.0  0.6358752742276793  0.4471011724778648  0.385188485984422  1.0000
  N   N1        1.0  0.9038459657444662  0.4293865902309619  0.7631645725134109  1.0000
  N   N2        1.0  0.09614432674896989  0.570614258800184  0.23683387733377967  1.0000
  N   N3        1.0  0.55963176775537  0.8162432434629848  0.8445239887096322  1.0000
  N   N4        1.0  0.440387968791086  0.18377096482103641  0.1554834539117635  1.0000
  O   O1        1.0  0.1380179280001386  0.07736893714459821  0.06783623750020952  1.0000
  O   O2        1.0  0.8619897650392544  0.922658095233679  0.932152635859133  1.0000
  O   O3        1.0  0.022748851902974838  0.6717537920527407  0.8236164632411304  1.0000
  O   O4        1.0  0.97725628080525  0.3282271606210614  0.1764006435577983  1.0000
  O   O5        1.0  0.6019076691382708  0.6692663550687429  0.5679070967321138  1.0000
  O   O6        1.0  0.3980727179280877  0.3307361706224157  0.432091576266558  1.0000
  O   O7        1.0  0.5179364055818567  0.544926852135184  0.7933528105586519  1.0000
  O   O8        1.0  0.48205005726777017  0.4550849366350462  0.20664730552194047  1.0000
  O   O9        1.0  0.8983146867055892  0.8227064249593566  0.635967420036984  1.0000
  O   O10       1.0  0.1017193624161408  0.1772519305262819  0.3640218074563253  1.0000
  O   O11       1.0  0.7481481463012613  0.5194243450104922  0.03724239994371457  1.0000
  O   O12       1.0  0.2518577639695181  0.4805710609693533  0.962754650781207  1.0000
