data_image0
_chemical_formula_structural       Al3H27C63Br9N3O18
_chemical_formula_sum              "Al3 H27 C63 Br9 N3 O18"
_cell_length_a       4.121768146459528
_cell_length_b       23.393125746302008
_cell_length_c       23.39272287306904
_cell_angle_alpha    119.99894772179218
_cell_angle_beta     89.99861954670972
_cell_angle_gamma    90.00375271414273

_space_group_name_H-M_alt    "P 1"
_space_group_IT_number       1

loop_
  _space_group_symop_operation_xyz
  'x, y, z'

loop_
  _atom_site_type_symbol
  _atom_site_label
  _atom_site_symmetry_multiplicity
  _atom_site_fract_x
  _atom_site_fract_y
  _atom_site_fract_z
  _atom_site_occupancy
  Al  Al1       1.0  0.9892387240198415  0.00047490478556969204  0.5001771373534964  1.0000
  Al  Al2       1.0  0.9891169985540172  0.3331425627383524  0.16695406284021175  1.0000
  Al  Al3       1.0  0.9894720944398615  0.666366299344304  0.8328475997870017  1.0000
  H   H1        1.0  0.21224860826547598  0.8682957909185091  0.9215097163281032  1.0000
  H   H2        1.0  0.19833882604143577  0.9743384460422675  0.9231693031212205  1.0000
  H   H3        1.0  0.7527180341393204  0.8874635925415859  0.7426937176850219  1.0000
  H   H4        1.0  0.7526829362452077  0.021911915583288474  0.9458854564792463  1.0000
  H   H5        1.0  0.2119950326289626  0.21984022526360983  0.9650005072085152  1.0000
  H   H6        1.0  0.19826324547813104  0.11545751239307836  0.8589621346489553  1.0000
  H   H7        1.0  0.7527010260185988  0.0906229512499692  0.8114157196822236  1.0000
  H   H8        1.0  0.21200367938468637  0.9118231546338721  0.6134710463314762  1.0000
  H   H9        1.0  0.19822370338598458  0.9101550810439109  0.7178508165053902  1.0000
  H   H10       1.0  0.7772668066107045  0.4199766684835993  0.3661656816159821  1.0000
  H   H11       1.0  0.8011072358275585  0.42259814056257744  0.47269304835449344  1.0000
  H   H12       1.0  0.24686925336951046  0.24218373335013157  0.38871499515255453  1.0000
  H   H13       1.0  0.24689459491128213  0.4446303674572932  0.5201529676144717  1.0000
  H   H14       1.0  0.7775249578888646  0.46714467247812064  0.7204528503680694  1.0000
  H   H15       1.0  0.8011940839430096  0.36062331940215137  0.6165448935883691  1.0000
  H   H16       1.0  0.24691783050547395  0.31317623469950456  0.5911475834315213  1.0000
  H   H17       1.0  0.7773695386040058  0.11287657250912994  0.4133508071035125  1.0000
  H   H18       1.0  0.8011303688488381  0.21678438193269758  0.41073596694828757  1.0000
  H   H19       1.0  0.7760130944482737  0.4467759781495957  0.08061611838977013  1.0000
  H   H20       1.0  0.793618786888608  0.5505730684680047  0.07788368105180152  1.0000
  H   H21       1.0  0.24011454324544695  0.6462270956516817  0.2584286913854754  1.0000
  H   H22       1.0  0.24016062441476288  0.5749182180315842  0.0544649287590034  1.0000
  H   H23       1.0  0.7763202132144967  0.7527287151853771  0.03284880584830327  1.0000
  H   H24       1.0  0.7938065908426708  0.7554489787422229  0.13937479665041524  1.0000
  H   H25       1.0  0.24017159927259968  0.7788563213073871  0.18710365297621223  1.0000
  H   H26       1.0  0.776139374698822  0.8004953081379114  0.38655532314850694  1.0000
  H   H27       1.0  0.7937043170063731  0.6939697469725202  0.28275326891866853  1.0000
  C   C1        1.0  0.48768472101790655  0.914186864634786  0.41131568702193994  1.0000
  C   C2        1.0  0.49432452445232394  0.9998901244962256  0.587300412945375  1.0000
  C   C3        1.0  0.4879693867658829  0.08888268756395228  0.5026043777954002  1.0000
  C   C4        1.0  0.49421985050899053  0.24602495826354706  0.07924354455913372  1.0000
  C   C5        1.0  0.4875808578985924  0.4220179928005834  0.16955229522036327  1.0000
  C   C6        1.0  0.48784335660852923  0.33070796766959637  0.2529320754715202  1.0000
  C   C7        1.0  0.49458350360713876  0.7540710075871999  0.8334285011161813  1.0000
  C   C8        1.0  0.48789514217784813  0.6638029476627595  0.9191416048447751  1.0000
  C   C9        1.0  0.4881750254083172  0.580387682347322  0.7444443078759237  1.0000
  C   C10       1.0  0.3355920981760717  0.8729144684086878  0.882765457072587  1.0000
  C   C11       1.0  0.3244375327104763  0.932576706396361  0.8833564939330005  1.0000
  C   C12       1.0  0.4774853706433149  0.9393183119082239  0.8333175198073592  1.0000
  C   C13       1.0  0.6346612811463714  0.8841609803358993  0.7824499648786585  1.0000
  C   C14       1.0  0.634146069361904  0.8241641533547509  0.7813555816511556  1.0000
  C   C15       1.0  0.49218569415373986  0.8175727947179682  0.8320181223889026  1.0000
  C   C16       1.0  0.6345638785012894  0.06495888166226393  0.9491777981882877  1.0000
  C   C17       1.0  0.6339459479026743  0.12386329327036802  0.009173121691347316  1.0000
  C   C18       1.0  0.49193411944977317  0.18110422183197272  0.015748858960975647  1.0000
  C   C19       1.0  0.3353764231024313  0.17649339547111265  0.9603973391981386  1.0000
  C   C20       1.0  0.32432098384013125  0.11741883112643592  0.900733525312042  1.0000
  C   C21       1.0  0.47741795437188717  0.06065171685194316  0.894004653742556  1.0000
  C   C22       1.0  0.6345822837608281  0.05087598265937744  0.7683679706197638  1.0000
  C   C23       1.0  0.6340014251730182  0.051967434009362976  0.7094627051383642  1.0000
  C   C24       1.0  0.4919695582354107  0.0013062163445027384  0.6522200886181225  1.0000
  C   C25       1.0  0.3353748244518684  0.9505631512005764  0.6568213456268172  1.0000
  C   C26       1.0  0.3243005688691198  0.9499704091242692  0.7158946693565301  1.0000
  C   C27       1.0  0.4774001559120221  6.883013902889595e-06  0.7726676196356197  1.0000
  C   C28       1.0  0.6573911619760365  0.3813265716252659  0.3714801860489845  1.0000
  C   C29       1.0  0.6738077920063574  0.38247262045019437  0.4313942843800832  1.0000
  C   C30       1.0  0.5237196964251681  0.3327144013536413  0.4390468023184796  1.0000
  C   C31       1.0  0.36360310163437504  0.2815872684466926  0.3846031500926658  1.0000
  C   C32       1.0  0.35892165669817183  0.27993538126359147  0.32436824671411574  1.0000
  C   C33       1.0  0.4984730945725103  0.33019352684549824  0.31681589157609846  1.0000
  C   C34       1.0  0.3636920175485159  0.4487361012450607  0.5636561940671927  1.0000
  C   C35       1.0  0.35914520131838396  0.5089661378946602  0.6222404851881864  1.0000
  C   C36       1.0  0.4987359629214437  0.5165015528203938  0.680037346355782  1.0000
  C   C37       1.0  0.6576146083274353  0.46183941652744676  0.6765033607120048  1.0000
  C   C38       1.0  0.6739307138678681  0.40192979004893903  0.6177329676431286  1.0000
  C   C39       1.0  0.5237716287765933  0.39428603315909777  0.5603273625945208  1.0000
  C   C40       1.0  0.3636488639137312  0.26967547763378263  0.5517494350352409  1.0000
  C   C41       1.0  0.3590068630227278  0.21108674973188363  0.553386584258  1.0000
  C   C42       1.0  0.498573320079771  0.15329083309944022  0.5031270235084052  1.0000
  C   C43       1.0  0.6575016282873561  0.15682731423731155  0.45199799330077184  1.0000
  C   C44       1.0  0.6738570503180483  0.21559994086274514  0.4508635573025901  1.0000
  C   C45       1.0  0.523753814580587  0.27300459651309683  0.5006243010709072  1.0000
  C   C46       1.0  0.6542018007027152  0.49047380940916696  0.11922808632031938  1.0000
  C   C47       1.0  0.6670199100622584  0.5492327858161516  0.11798672589298326  1.0000
  C   C48       1.0  0.5148592740145616  0.606417018182121  0.1676139310862723  1.0000
  C   C49       1.0  0.3572895932885701  0.6028660099674639  0.21890711595136733  1.0000
  C   C50       1.0  0.3558913387687284  0.5442572974210194  0.22060274732791643  1.0000
  C   C51       1.0  0.4967097149060392  0.4866173027244614  0.17031893358418432  1.0000
  C   C52       1.0  0.3573991127390173  0.6144290058033873  0.05062372261878781  1.0000
  C   C53       1.0  0.3561008529305312  0.6127408165842639  0.990325264224332  1.0000
  C   C54       1.0  0.4969793852800066  0.6630385299660376  0.9829812872880554  1.0000
  C   C55       1.0  0.6544600056978851  0.7141211464255264  0.03792498174910007  1.0000
  C   C56       1.0  0.6672083169443892  0.715350726399045  0.09791967125936923  1.0000
  C   C57       1.0  0.5149512774237762  0.6657162646077595  0.10547235179139859  1.0000
  C   C58       1.0  0.35735231478403756  0.7826998249511092  0.23046557935327178  1.0000
  C   C59       1.0  0.3560080185905221  0.8429996761729085  0.2890732682482169  1.0000
  C   C60       1.0  0.4968021242173179  0.8503527709906892  0.34671988490400457  1.0000
  C   C61       1.0  0.6542832812570225  0.7954090216524322  0.342861344897756  1.0000
  C   C62       1.0  0.6670838896171106  0.7354154042339188  0.28410224734102485  1.0000
  C   C63       1.0  0.5148844203022733  0.7278600716616168  0.22691341989823155  1.0000
  Br  Br1       1.0  0.8235150295193134  0.7503102803814842  0.7071598958619776  1.0000
  Br  Br2       1.0  0.8232411446215834  0.1235496639912199  0.08304765992244974  1.0000
  Br  Br3       1.0  0.8234090113389526  0.12615573054551285  0.7097886485682567  1.0000
  Br  Br4       1.0  0.16405972421034679  0.2056340211393461  0.25144993234839325  1.0000
  Br  Br5       1.0  0.16443111271315297  0.5819058013714482  0.6208805964820813  1.0000
  Br  Br6       1.0  0.16412739787352135  0.21244623978795127  0.6276771898595542  1.0000
  Br  Br7       1.0  0.16373393105596526  0.5452348674475546  0.2950153952444127  1.0000
  Br  Br8       1.0  0.1640750951793137  0.5383287223200457  0.9168756360996756  1.0000
  Br  Br9       1.0  0.16401370258752476  0.9164444104165809  0.28809405140944505  1.0000
  N   N1        1.0  0.47123425560491944  0.9999909646071642  0.8333324731900905  1.0000
  N   N2        1.0  0.5344662722563526  0.33333436322859467  0.4999956555853303  1.0000
  N   N3        1.0  0.521830623081776  0.6666614025953097  0.1666713779164796  1.0000
  O   O1        1.0  0.7213386449285649  0.07659908815177376  0.53020308625257  1.0000
  O   O2        1.0  0.7210617482079938  0.9540631193292272  0.42368146601185713  1.0000
  O   O3        1.0  0.7296672415215043  0.9699757692505316  0.5481906555806476  1.0000
  O   O4        1.0  0.24880498213373406  0.05090934702658961  0.4730780675914233  1.0000
  O   O5        1.0  0.25725679025751447  0.027093222859129257  0.5756883165659304  1.0000
  O   O6        1.0  0.24896591635361887  0.9225966332581663  0.44936222923330155  1.0000
  O   O7        1.0  0.24868719173629464  0.3602283167219724  0.244485652901041  1.0000
  O   O8        1.0  0.25710282033926285  0.2576318995156086  0.11805129793612684  1.0000
  O   O9        1.0  0.2488604316186667  0.3839721321868055  0.13991298470466526  1.0000
  O   O10       1.0  0.7211825371757853  0.30310259559206537  0.21304278376485544  1.0000
  O   O11       1.0  0.7209331230301499  0.40964513602794744  0.1970573024657086  1.0000
  O   O12       1.0  0.7295451328441798  0.28514599451982997  0.08844374833494582  1.0000
  O   O13       1.0  0.24903165666318472  0.588833857527078  0.7824176764939283  1.0000
  O   O14       1.0  0.25751741886413265  0.7152487106882006  0.8062182849578863  1.0000
  O   O15       1.0  0.24919753678231865  0.6934384682104379  0.9107279188870978  1.0000
  O   O16       1.0  0.7215738938207534  0.6202666021780985  0.7567219263049767  1.0000
  O   O17       1.0  0.721275582966932  0.6362927500764854  0.8792699909353205  1.0000
  O   O18       1.0  0.7299474561596  0.7448757885262439  0.8633386729424901  1.0000
