data_image0
_chemical_formula_structural       Al6H38C96I12Br12O28
_chemical_formula_sum              "Al6 H38 C96 I12 Br12 O28"
_cell_length_a       13.855931508806675
_cell_length_b       14.19411701059402
_cell_length_c       26.748245051743268
_cell_angle_alpha    87.37404960208185
_cell_angle_beta     89.50294391092127
_cell_angle_gamma    64.01924167022884

_space_group_name_H-M_alt    "P 1"
_space_group_IT_number       1

loop_
  _space_group_symop_operation_xyz
  'x, y, z'

loop_
  _atom_site_type_symbol
  _atom_site_label
  _atom_site_symmetry_multiplicity
  _atom_site_fract_x
  _atom_site_fract_y
  _atom_site_fract_z
  _atom_site_occupancy
  Al  Al1       1.0  0.5671677552577991  0.6106144650509789  0.4959832624104266  1.0000
  Al  Al2       1.0  0.6059608541636408  0.8162265846049549  0.4937435017588926  1.0000
  Al  Al3       1.0  0.7993168300010894  0.6074703694925814  0.4937358665111874  1.0000
  Al  Al4       1.0  0.12216310205771212  0.030328694107971878  0.9912446204481216  1.0000
  Al  Al5       1.0  0.06162853583466449  0.8417185633993894  0.9821032334449671  1.0000
  Al  Al6       1.0  0.8812798821769546  0.05801322859615957  0.9843095284965175  1.0000
  H   H1        1.0  0.660071833570733  0.8057507636362258  0.2654691189518132  1.0000
  H   H2        1.0  0.8103277254053012  0.4708218981442797  0.23883743000687474  1.0000
  H   H3        1.0  0.4739785735677203  0.8697950778674794  0.2526241347809233  1.0000
  H   H4        1.0  0.6780955500491502  0.7849672115656784  0.18027851585583224  1.0000
  H   H5        1.0  0.8064121442468919  0.38363923453817234  0.16837657395439726  1.0000
  H   H6        1.0  0.4232491342101314  0.8671746616734521  0.17116476267388245  1.0000
  H   H7        1.0  0.7283593430832906  0.023710429667616488  0.17935310274416597  1.0000
  H   H8        1.0  0.06362116378728193  0.17991736645839745  0.23000940665613004  1.0000
  H   H9        1.0  0.4102258544168791  0.6192678540688944  0.21059749602507344  1.0000
  H   H10       1.0  0.9247637876767529  0.6245597819495072  0.6266678228296173  1.0000
  H   H11       1.0  0.6124738868096886  0.4982188579294654  0.6416615303221036  1.0000
  H   H12       1.0  0.48700273292492136  0.9259921414703454  0.6336772684236394  1.0000
  H   H13       1.0  0.9950500455060478  0.594535540582477  0.8028157662490686  1.0000
  H   H14       1.0  0.5998830599959889  0.42744675990997627  0.8177815407227842  1.0000
  H   H15       1.0  0.4341689769693251  0.9900443553255653  0.8083191011951956  1.0000
  H   H16       1.0  0.715542913910184  0.11852887107626485  0.7476570496956613  1.0000
  H   H17       1.0  0.1293838611526041  0.18846442447468797  0.7593998118608951  1.0000
  H   H18       1.0  0.18336330227595712  0.6849557036867466  0.7598316883498626  1.0000
  H   H19       1.0  0.7859576022190639  0.6964137907360451  0.2732250216288108  1.0000
  H   H20       1.0  0.6971263371174249  0.4534684607297236  0.25765245875248877  1.0000
  H   H21       1.0  0.34573551358541754  0.9719863413819206  0.2624313510341665  1.0000
  H   H22       1.0  0.7318181110807346  0.9540707876697141  0.5938324159965448  1.0000
  H   H23       1.0  0.9481141385577418  0.3606413890436355  0.6064852581155193  1.0000
  H   H24       1.0  0.3383823286845314  0.7244063929089677  0.6043236327430322  1.0000
  H   H25       1.0  0.944996760297507  0.8566133027380398  0.2715968337669565  1.0000
  H   H26       1.0  0.8476229281602343  0.20126396641048663  0.3328000802233504  1.0000
  H   H27       1.0  0.21767643479064705  0.7993855345840544  0.30722603198482556  1.0000
  H   H28       1.0  0.9565092427610011  0.7285097423267287  0.2654897393934874  1.0000
  H   H29       1.0  0.7311637916687346  0.2750419875139086  0.2957659674907376  1.0000
  H   H30       1.0  0.1925984442218936  0.9253700419980572  0.2810923387640827  1.0000
  H   H31       1.0  0.9605597135352897  0.7544571723010518  0.18005022112738092  1.0000
  H   H32       1.0  0.8146638443763479  0.14325694092934066  0.23854293662400755  1.0000
  H   H33       1.0  0.15597337478427445  0.8703339822718661  0.20659789314912302  1.0000
  H   H34       1.0  0.7716872277365924  0.005241452267540598  0.261477885868203  1.0000
  H   H35       1.0  0.012921771809281841  0.23237951769849013  0.3084581333650647  1.0000
  H   H36       1.0  0.3917461858342222  0.6551755111126525  0.2924217622305108  1.0000
  H   H37       1.0  0.4912525650545875  0.4997096815121579  0.5243087823173056  1.0000
  H   H38       1.0  0.19813472007417945  0.14592011923603812  0.9743825351897473  1.0000
  C   C1        1.0  0.7600381956316086  0.4890407720701047  0.426222006770388  1.0000
  C   C2        1.0  0.45928789098053374  0.798973759253158  0.42842637477932755  1.0000
  C   C3        1.0  0.7662022291736078  0.7812585719834714  0.4221247424143969  1.0000
  C   C4        1.0  0.7099852055797061  0.9626715869832622  0.19726036768342686  1.0000
  C   C5        1.0  0.9914284469745311  0.25502217633518137  0.2287470134479435  1.0000
  C   C6        1.0  0.42310697641067935  0.6886031988063902  0.21673199381452696  1.0000
  C   C7        1.0  0.7255678522608235  0.9608669020629107  0.2546128342576139  1.0000
  C   C8        1.0  0.967857386491275  0.2981013245402124  0.28185783336901693  1.0000
  C   C9        1.0  0.42814359490925835  0.7017016475763426  0.27348292131475926  1.0000
  C   C10       1.0  0.794502258855566  0.8584945536657711  0.12307586539942152  1.0000
  C   C11       1.0  0.9178233069364199  0.1862185966481106  0.16175733891266475  1.0000
  C   C12       1.0  0.30236765967790574  0.7772079689901047  0.14188706888479896  1.0000
  C   C13       1.0  0.7946763601251804  0.8321955543464908  0.32922792300495013  1.0000
  C   C14       1.0  0.8166390559648562  0.3937028559294474  0.3400794318574611  1.0000
  C   C15       1.0  0.37838983165666923  0.8329528580088804  0.3381123979596623  1.0000
  C   C16       1.0  0.7931059083205342  0.80939970506418  0.3734998095276083  1.0000
  C   C17       1.0  0.7901233085271288  0.43296124404557174  0.3804667314252371  1.0000
  C   C18       1.0  0.39998777665393004  0.8341135611402491  0.3819256836819349  1.0000
  C   C19       1.0  0.2115389511268477  0.8606805339507485  0.917715789731915  1.0000
  C   C20       1.0  0.8943997122080491  0.908666806512109  0.9091476472684905  1.0000
  C   C21       1.0  0.9326529061430407  0.18999085897530674  0.9229032214256563  1.0000
  C   C22       1.0  0.2077765650401275  0.827359057810824  0.05341067174613562  1.0000
  C   C23       1.0  0.865884676647198  0.892258876683215  0.0379549548542784  1.0000
  C   C24       1.0  0.9507283121872591  0.12963383948893886  0.0671009042914008  1.0000
  C   C25       1.0  0.889104843267575  0.704670746735864  0.6390168594693934  1.0000
  C   C26       1.0  0.6956341669211455  0.4517882940174188  0.6535766231798021  1.0000
  C   C27       1.0  0.43933970884526735  0.886116247107239  0.6468057511617715  1.0000
  C   C28       1.0  0.9012488566297704  0.7237347481135359  0.6888786550926512  1.0000
  C   C29       1.0  0.7194321566256646  0.4140889995368582  0.7034539159703997  1.0000
  C   C30       1.0  0.40482676547988916  0.8944402122502381  0.6964888625260955  1.0000
  C   C31       1.0  0.9007263273957875  0.7634198038902796  0.7928117164043584  1.0000
  C   C32       1.0  0.7727123121098459  0.3500503555556591  0.8070667727828962  1.0000
  C   C33       1.0  0.35678284706120444  0.8872830102082997  0.8006456241482669  1.0000
  C   C34       1.0  0.7487533638895699  0.4898214467122485  0.5686140597772464  1.0000
  C   C35       1.0  0.47356443076738247  0.7958980221971502  0.5657068048722422  1.0000
  C   C36       1.0  0.7929196564222709  0.7621866096681628  0.5572088474482797  1.0000
  C   C37       1.0  0.954222715106866  0.6592126696649598  0.7756290085175124  1.0000
  C   C38       1.0  0.6636003118288586  0.40765609937384534  0.7904671401766947  1.0000
  C   C39       1.0  0.41085459500097005  0.9471364995579845  0.7820976086985356  1.0000
  C   C40       1.0  0.957499977700294  0.6410733756466981  0.7259117104060381  1.0000
  C   C41       1.0  0.638599950514987  0.4359900400913403  0.741142213531248  1.0000
  C   C42       1.0  0.430664197567282  0.9526798907675624  0.7323226828253626  1.0000
  C   C43       1.0  0.8967923174655965  0.7856317883536615  0.8437009717250421  1.0000
  C   C44       1.0  0.8018164250747903  0.3168753286197443  0.8575521747104702  1.0000
  C   C45       1.0  0.332747762489177  0.8813199040733436  0.8516448737428421  1.0000
  C   C46       1.0  0.8573712070027502  0.8894634896997144  0.8597573192490486  1.0000
  C   C47       1.0  0.9089660941621319  0.25180051546910676  0.8731618886069725  1.0000
  C   C48       1.0  0.2700998694838576  0.8304491356604725  0.8689970340041455  1.0000
  C   C49       1.0  0.780668889956836  0.8907734221717758  0.6203163767408882  1.0000
  C   C50       1.0  0.8847220589072793  0.3738412666090055  0.6334746086929359  1.0000
  C   C51       1.0  0.35477475745456416  0.7727384879114321  0.6302496546739534  1.0000
  C   C52       1.0  0.795203936455728  0.9135797976224108  0.6692163395685357  1.0000
  C   C53       1.0  0.9117089617318328  0.33060067902992774  0.6824651432045173  1.0000
  C   C54       1.0  0.31599448779349615  0.7816718440202165  0.6790998762347871  1.0000
  C   C55       1.0  0.8511256548544642  0.8291948805262305  0.7053522924237399  1.0000
  C   C56       1.0  0.8292036255099905  0.353902481797931  0.7192464011657479  1.0000
  C   C57       1.0  0.3456506260137646  0.8383730115975678  0.7141583131932023  1.0000
  C   C58       1.0  0.7510706141914697  0.018382720560971698  0.6865338823145564  1.0000
  C   C59       1.0  0.020132956512085874  0.26663527687897925  0.699288475799662  1.0000
  C   C60       1.0  0.25195147330781253  0.7310871189502349  0.6975581692301347  1.0000
  C   C61       1.0  0.7521051260660557  0.03806697394416151  0.7358343472283551  1.0000
  C   C62       1.0  0.045902368699152984  0.23566275142457724  0.7482924641559805  1.0000
  C   C63       1.0  0.23019907261046782  0.7259705130842845  0.7471278098991547  1.0000
  C   C64       1.0  0.7999656786739993  0.9547272819343106  0.772952934608476  1.0000
  C   C65       1.0  0.9655460253626487  0.2633706900662034  0.7859986251201863  1.0000
  C   C66       1.0  0.2666427954889985  0.7748475245703684  0.783239574126796  1.0000
  C   C67       1.0  0.7449017967111758  0.7746921805905698  0.25487714011251233  1.0000
  C   C68       1.0  0.7817459759890754  0.4109863333409009  0.2480078098212459  1.0000
  C   C69       1.0  0.38759314668809725  0.8912965600842425  0.2503922678337887  1.0000
  C   C70       1.0  0.8530782003635553  0.8495646757347186  0.7569828894801989  1.0000
  C   C71       1.0  0.8558128578922818  0.3207288244145443  0.7706628723024025  1.0000
  C   C72       1.0  0.32053960727979125  0.8356933265098473  0.7659108975982748  1.0000
  C   C73       1.0  0.7992128831659785  0.9727884062288646  0.8247244483032574  1.0000
  C   C74       1.0  0.9907675112516046  0.233654566626626  0.837468386515539  1.0000
  C   C75       1.0  0.24866319414637456  0.767824210286022  0.8352518187029219  1.0000
  C   C76       1.0  0.8250368823325616  0.7871035049559651  0.6058005913014881  1.0000
  C   C77       1.0  0.7777006745973484  0.4351119675698526  0.6192646663837281  1.0000
  C   C78       1.0  0.4186876444892676  0.8218491855375232  0.6148005386671472  1.0000
  C   C79       1.0  0.9076601428650763  0.8116172873668717  0.25460677623682676  1.0000
  C   C80       1.0  0.8189920241816965  0.2450821159706109  0.2969738674248248  1.0000
  C   C81       1.0  0.24228408634232337  0.8407692241544209  0.2780036878463434  1.0000
  C   C82       1.0  0.9037906125426007  0.8256855486183805  0.19740035765836692  1.0000
  C   C83       1.0  0.8679931767700924  0.17426683760037776  0.2530940469361127  1.0000
  C   C84       1.0  0.22696390476503603  0.8096443484596986  0.22576912750476205  1.0000
  C   C85       1.0  0.8184216098930367  0.8622565233079269  0.07952041733996401  1.0000
  C   C86       1.0  0.9291701536224651  0.16087108271020864  0.1184443750852608  1.0000
  C   C87       1.0  0.26687504335422585  0.7872578260002144  0.09962456162250531  1.0000
  C   C88       1.0  0.7925597128307018  0.8461862244294094  0.2751417572284467  1.0000
  C   C89       1.0  0.8459898110928065  0.34057872602170397  0.2931659059441358  1.0000
  C   C90       1.0  0.36090453475977596  0.8183595991658518  0.28637743450305214  1.0000
  C   C91       1.0  0.7545160808990019  0.7709329452930475  0.19789320897604062  1.0000
  C   C92       1.0  0.7959765421488854  0.3444228915208214  0.202748380598706  1.0000
  C   C93       1.0  0.3565110488024389  0.881456264821672  0.1966519203672163  1.0000
  C   C94       1.0  0.7888992797603009  0.8543283622352645  0.17710724635789893  1.0000
  C   C95       1.0  0.8953603577396124  0.23561803825806743  0.20992096215912437  1.0000
  C   C96       1.0  0.3274550533752318  0.7874779222649266  0.1933373525148596  1.0000
  I   I1        1.0  0.861651119555063  0.6140373086070666  0.17414265243452584  1.0000
  I   I2        1.0  0.6514604286344792  0.3248584905820095  0.18461625941050394  1.0000
  I   I3        1.0  0.2329863553298637  0.027443107673121893  0.1637503049532185  1.0000
  I   I4        1.0  0.6974031101798701  0.12518579507334948  0.8471407167625742  1.0000
  I   I5        1.0  0.15488142331071947  0.16721646644118235  0.8580961152035018  1.0000
  I   I6        1.0  0.2034426154576253  0.6495301515600856  0.8599480581650314  1.0000
  I   I7        1.0  0.5829964606463349  0.04554986053904738  0.2979896761783039  1.0000
  I   I8        1.0  0.030983645860068545  0.40781871926525776  0.30023542409377063  1.0000
  I   I9        1.0  0.5848270005116661  0.6320906818950077  0.30909492591101184  1.0000
  I   I10       1.0  0.5492617756296454  0.006882608634313696  0.16694425976765362  1.0000
  I   I11       1.0  0.03813391328463224  0.33872502710065067  0.170083191871818  1.0000
  I   I12       1.0  0.5670760587515815  0.6540159117168614  0.17259183996447552  1.0000
  Br  Br1       1.0  0.9306084173350015  0.6720107760085341  0.8918745035400307  1.0000
  Br  Br2       1.0  0.69119527310545  0.372322244031821  0.9060151762663511  1.0000
  Br  Br3       1.0  0.39653319694426886  0.9344452688166381  0.8987488757152207  1.0000
  Br  Br4       1.0  0.03811603956797436  0.5016121952406961  0.7058256530723384  1.0000
  Br  Br5       1.0  0.49084114065689743  0.5086597464218199  0.7226587988550293  1.0000
  Br  Br6       1.0  0.4955593539421983  0.040491439587192674  0.7102815837655997  1.0000
  Br  Br7       1.0  0.6855228045167937  0.13526670294911713  0.6401326999962721  1.0000
  Br  Br8       1.0  0.13455931529053095  0.22424463683854154  0.6525534340277377  1.0000
  Br  Br9       1.0  0.19658101090384872  0.6667797837334318  0.6521684400879124  1.0000
  Br  Br10      1.0  0.9494513155881212  0.9327627043921108  0.17170423529032067  1.0000
  Br  Br11      1.0  0.9948628166569902  0.04697494510882188  0.27823578796554227  1.0000
  Br  Br12      1.0  0.19482445995539172  0.6861104565142921  0.22857029789515346  1.0000
  O   O1        1.0  0.4839331062579577  0.7046262651985412  0.4417031915163322  1.0000
  O   O2        1.0  0.6761844588867377  0.8467132483865709  0.43935091750607574  1.0000
  O   O3        1.0  0.833624309718829  0.5104969409491102  0.44515846374555684  1.0000
  O   O4        1.0  0.047076137474270835  0.09588693314101697  0.05325706395439771  1.0000
  O   O5        1.0  0.1501706515551505  0.7831152279215913  0.038105857344682206  1.0000
  O   O6        1.0  0.8196390863026087  0.9902120027823355  0.024994115820852907  1.0000
  O   O7        1.0  0.667343098386624  0.514737727821476  0.4432095262953056  1.0000
  O   O8        1.0  0.4870934372070866  0.8620679982075286  0.45060660069101033  1.0000
  O   O9        1.0  0.8288051850861823  0.6928517667501024  0.4429391627325501  1.0000
  O   O10       1.0  0.4783851783169696  0.7156164713008053  0.5452629088858458  1.0000
  O   O11       1.0  0.7082496673300304  0.8319911859883999  0.5356900485340645  1.0000
  O   O12       1.0  0.8232213107223175  0.5025293282434048  0.5442840138790856  1.0000
  O   O13       1.0  0.652465658744326  0.523429409614188  0.5536693089336353  1.0000
  O   O14       1.0  0.5170589270061117  0.8549689704339014  0.5486251203733304  1.0000
  O   O15       1.0  0.8477493473744885  0.669774296661508  0.5415193931268192  1.0000
  O   O16       1.0  0.6586281532859743  0.6783440885545319  0.4942097136315482  1.0000
  O   O17       1.0  0.021656257908475123  0.15898477624279644  0.9450977470990267  1.0000
  O   O18       1.0  0.1836965314357856  0.7961254949122463  0.9419149205761388  1.0000
  O   O19       1.0  0.8408224227659175  0.993476812595979  0.9307674934619997  1.0000
  O   O20       1.0  0.1850701699572924  0.9535475958996145  0.9299159444460727  1.0000
  O   O21       1.0  0.9866673110176905  0.8389902955513688  0.9244882900059751  1.0000
  O   O22       1.0  0.8577246383549807  0.16449925277436248  0.9378869914735618  1.0000
  O   O23       1.0  0.020090407215249958  0.9774725315359515  0.9861598386956063  1.0000
  O   O24       1.0  0.2131906311455724  0.9068845620486169  0.032870569800564915  1.0000
  O   O25       1.0  0.952785913317534  0.8238803872910337  0.020001041898929407  1.0000
  O   O26       1.0  0.8703163594779327  0.13873696173199326  0.04002198884692381  1.0000
  O   O27       1.0  0.4848380998107587  0.546046497895638  0.49560346871546573  1.0000
  O   O28       1.0  0.21474232810127356  0.0826992369082689  0.994883875790201  1.0000
