data_image0
_chemical_formula_structural       Cu4H16C28N8O28
_chemical_formula_sum              "Cu4 H16 C28 N8 O28"
_cell_length_a       6.68218789425152
_cell_length_b       7.540196115590732
_cell_length_c       17.771755805352292
_cell_angle_alpha    89.99876144719396
_cell_angle_beta     90.00071392114984
_cell_angle_gamma    89.99930864858389

_space_group_name_H-M_alt    "P 1"
_space_group_IT_number       1

loop_
  _space_group_symop_operation_xyz
  'x, y, z'

loop_
  _atom_site_type_symbol
  _atom_site_label
  _atom_site_symmetry_multiplicity
  _atom_site_fract_x
  _atom_site_fract_y
  _atom_site_fract_z
  _atom_site_occupancy
  Cu  Cu1       1.0  0.5006497676226404  0.004898388087347899  0.5024410858832056  1.0000
  Cu  Cu2       1.0  0.0006450904442445  0.9950903059983247  0.4975624028519974  1.0000
  Cu  Cu3       1.0  0.5006322092466391  0.5048849255942187  0.9975592183251365  1.0000
  Cu  Cu4       1.0  0.0006357114211824001  0.49509979017165057  0.0024358300069238  1.0000
  H   H1        1.0  0.7521242907222431  0.8089529591663904  0.5587126066682161  1.0000
  H   H2        1.0  0.25213008501174977  0.19103302254271878  0.4412909262963112  1.0000
  H   H3        1.0  0.7521205820578062  0.3089550608333553  0.9412877180504111  1.0000
  H   H4        1.0  0.25211583537389964  0.6910322473529861  0.0587096252695289  1.0000
  H   H5        1.0  0.0258874368653181  0.9891863817735357  0.2629655226518324  1.0000
  H   H6        1.0  0.5258759211658983  0.010815302381566002  0.737038646074403  1.0000
  H   H7        1.0  0.025882896019936694  0.4891880995456077  0.23703344543263677  1.0000
  H   H8        1.0  0.5258819582984984  0.5108321519126947  0.7629645336138182  1.0000
  H   H9        1.0  0.679406482186195  0.12063481586045552  0.0646541674502714  1.0000
  H   H10       1.0  0.1793925402247396  0.8793731698945064  0.9353484644745365  1.0000
  H   H11       1.0  0.6794377283441762  0.6206602758573964  0.4353467774172374  1.0000
  H   H12       1.0  0.17943611972838616  0.3793516883253432  0.5646496650663764  1.0000
  H   H13       1.0  0.43587104557099116  0.21546763439111769  0.2863932075315319  1.0000
  H   H14       1.0  0.9358617725603225  0.7845336065489333  0.7136083664547144  1.0000
  H   H15       1.0  0.4358574771852801  0.7154471682803418  0.2136062826137035  1.0000
  H   H16       1.0  0.9358768374140284  0.28455142029933  0.7863913525541761  1.0000
  C   C1        1.0  0.7475945265406594  0.08771391591333359  0.368068506868795  1.0000
  C   C2        1.0  0.2475655223329127  0.9122867033626959  0.6319333168073982  1.0000
  C   C3        1.0  0.7475707491736826  0.5876922339850097  0.1319319370234879  1.0000
  C   C4        1.0  0.24757134152556398  0.41229910188013014  0.8680670732012388  1.0000
  C   C5        1.0  0.733105255929239  0.10130196092647739  0.2836439996917406  1.0000
  C   C6        1.0  0.23309122545138192  0.8987027931950422  0.7163588819935782  1.0000
  C   C7        1.0  0.7330962688426864  0.601291966880858  0.2163585007668871  1.0000
  C   C8        1.0  0.2331002124977246  0.39870483002879803  0.7836387540495195  1.0000
  C   C9        1.0  0.8894758389878703  0.04101868476534779  0.23790183733191841  1.0000
  C   C10       1.0  0.3894580322256401  0.9589830565445894  0.7621028969980301  1.0000
  C   C11       1.0  0.8894713717369171  0.5410183367491899  0.2620968886305306  1.0000
  C   C12       1.0  0.38947447136349916  0.45899666697606983  0.7378988426157208  1.0000
  C   C13       1.0  0.8645664950078641  0.0461346939850245  0.16002087447845534  1.0000
  C   C14       1.0  0.36455734312804106  0.9538646635221466  0.8399826186515895  1.0000
  C   C15       1.0  0.864578096155384  0.546141056542986  0.33997993866569237  1.0000
  C   C16       1.0  0.3645771686940691  0.4538675844573774  0.6600201783505  1.0000
  C   C17       1.0  0.6940120405264524  0.11423947870421358  0.1255947490002853  1.0000
  C   C18       1.0  0.1939989709887087  0.8857683495278365  0.8744073881651389  1.0000
  C   C19       1.0  0.6940307769423627  0.614246770104728  0.3744074489066449  1.0000
  C   C20       1.0  0.1940281230142418  0.38576238417903136  0.6255913122203296  1.0000
  C   C21       1.0  0.5440794876839236  0.1761817827606009  0.1731515957877505  1.0000
  C   C22       1.0  0.044068659779725294  0.8238276625703448  0.8268509694407982  1.0000
  C   C23       1.0  0.5440921470964  0.6761795191040889  0.32684988954869004  1.0000
  C   C24       1.0  0.044100895802110095  0.32382196877288283  0.6731470489153467  1.0000
  C   C25       1.0  0.5583590987633328  0.16882317771057123  0.25126887443869356  1.0000
  C   C26       1.0  0.0583470604312879  0.831186113553855  0.748736007962691  1.0000
  C   C27       1.0  0.5583496958982864  0.6688089103859128  0.24873274597717196  1.0000
  C   C28       1.0  0.0583654423046127  0.33119374990002376  0.7512642588075735  1.0000
  N   N1        1.0  0.023427707419188003  0.9758192004775664  0.1107448291438118  1.0000
  N   N2        1.0  0.5234210925797314  0.024183836434815507  0.8892582027664417  1.0000
  N   N3        1.0  0.0234477025833186  0.47582390702780936  0.3892542522713783  1.0000
  N   N4        1.0  0.5234504823071333  0.5241804560268122  0.6107414647696743  1.0000
  N   N5        1.0  0.3621380183412626  0.2507227746535605  0.13977820792143092  1.0000
  N   N6        1.0  0.8621371083853049  0.749281914002573  0.860221335074165  1.0000
  N   N7        1.0  0.36215328827562127  0.7507254712904794  0.36022286106176443  1.0000
  N   N8        1.0  0.8621697269568074  0.2492765646846635  0.6397755566763621  1.0000
  O   O1        1.0  0.5819067874864317  0.09887279524333792  0.4030291620938016  1.0000
  O   O2        1.0  0.08187676678608818  0.9011415471101712  0.5969730163062508  1.0000
  O   O3        1.0  0.5818698713684611  0.5988011407846725  0.0969754715034554  1.0000
  O   O4        1.0  0.08187178058918929  0.4011760676652614  0.9030193919945545  1.0000
  O   O5        1.0  0.9218165015504738  0.0664701467765383  0.3950944781207752  1.0000
  O   O6        1.0  0.4217893016029493  0.9335166572848833  0.6049104066690063  1.0000
  O   O7        1.0  0.9217918218680553  0.5664723637229797  0.10490641147274  1.0000
  O   O8        1.0  0.421794526593871  0.4335011783015261  0.8950939718088408  1.0000
  O   O9        1.0  0.1680190956234426  0.899893903008703  0.14122703229227804  1.0000
  O   O10       1.0  0.6680074454233564  0.1001009432730342  0.8587766721191983  1.0000
  O   O11       1.0  0.1680335837996694  0.3998921782428511  0.3587751181359735  1.0000
  O   O12       1.0  0.6680303699855655  0.6001092991334074  0.6412218340443232  1.0000
  O   O13       1.0  0.003076809684508  0.9954067222587499  0.0422511767142737  1.0000
  O   O14       1.0  0.5030607734102405  0.004608470276025399  0.9577500723963083  1.0000
  O   O15       1.0  0.0030990912014913995  0.4954186094899385  0.45774762725481116  1.0000
  O   O16       1.0  0.5030983525956501  0.5045780156501963  0.5422502459379716  1.0000
  O   O17       1.0  0.34626631428527327  0.24936920171703744  0.0701131417706549  1.0000
  O   O18       1.0  0.846263222017768  0.7506356581395366  0.9298863274019525  1.0000
  O   O19       1.0  0.34629438524632405  0.7493869776648907  0.4298884286754614  1.0000
  O   O20       1.0  0.8463024942765145  0.2506112507575935  0.570108789922273  1.0000
  O   O21       1.0  0.2332778511031037  0.31043833588009306  0.18320665314156767  1.0000
  O   O22       1.0  0.7332852767539677  0.6895465229386915  0.8167939787267713  1.0000
  O   O23       1.0  0.23328867840083228  0.8104272920703934  0.3167943847673129  1.0000
  O   O24       1.0  0.7332998901448917  0.18956950264026767  0.6832062471044935  1.0000
  O   O25       1.0  0.7485763062131029  0.8768224152845362  0.5117450597868966  1.0000
  O   O26       1.0  0.24858159143677483  0.12316227846963562  0.4882584566812723  1.0000
  O   O27       1.0  0.7485801514092145  0.3768287966360048  0.9882546151468573  1.0000
  O   O28       1.0  0.2485642773498498  0.6231718121075077  0.011740460856685802  1.0000
