data_image0
_chemical_formula_structural       Cu4H48C56S8N16
_chemical_formula_sum              "Cu4 H48 C56 S8 N16"
_cell_length_a       7.710450440003211
_cell_length_b       13.855830640178226
_cell_length_c       14.060578235338655
_cell_angle_alpha    104.64818554410552
_cell_angle_beta     89.99999812309382
_cell_angle_gamma    90.000106524054

_space_group_name_H-M_alt    "P 1"
_space_group_IT_number       1

loop_
  _space_group_symop_operation_xyz
  'x, y, z'

loop_
  _atom_site_type_symbol
  _atom_site_label
  _atom_site_symmetry_multiplicity
  _atom_site_fract_x
  _atom_site_fract_y
  _atom_site_fract_z
  _atom_site_occupancy
  Cu  Cu1       1.0  0.0890577347979047  0.4067354201416221  0.7517766209173475  1.0000
  Cu  Cu2       1.0  0.5890578064041847  0.0932669581809336  0.7482220958172052  1.0000
  Cu  Cu3       1.0  0.9109413231067549  0.5932661595217753  0.24822572721997466  1.0000
  Cu  Cu4       1.0  0.41094384538003936  0.9067330326277981  0.251776338707522  1.0000
  H   H1        1.0  0.036631748623314295  0.5544966452065623  0.6299163122020559  1.0000
  H   H2        1.0  0.5366291520756548  0.9455055327638886  0.8700843143862613  1.0000
  H   H3        1.0  0.9633699031700615  0.44550885787968036  0.3700940304132346  1.0000
  H   H4        1.0  0.46337379665226314  0.05449600792668009  0.12991660210782646  1.0000
  H   H5        1.0  0.22087410881642464  0.6706439091020047  0.5655516956707772  1.0000
  H   H6        1.0  0.7208698036198766  0.8293569903477902  0.9344493583414535  1.0000
  H   H7        1.0  0.7791275429691354  0.3293569833156197  0.434452632680646  1.0000
  H   H8        1.0  0.279133145108041  0.17064455034277873  0.06555155815262742  1.0000
  H   H9        1.0  0.6669865811765233  0.5327544335147325  0.6637570236461274  1.0000
  H   H10       1.0  0.16698541747766882  0.9672433485798706  0.8362404845866893  1.0000
  H   H11       1.0  0.3330150705998988  0.4672410245751096  0.3362382599021602  1.0000
  H   H12       1.0  0.8330149373641474  0.0327558380564454  0.16375563522048253  1.0000
  H   H13       1.0  0.46594236220951046  0.42397411321995554  0.7241961619333283  1.0000
  H   H14       1.0  0.9659423712312716  0.0760249321967024  0.7758018128559742  1.0000
  H   H15       1.0  0.5340592895708268  0.5760236794353517  0.2758032024796934  1.0000
  H   H16       1.0  0.03405798361055899  0.9239742934144815  0.22419573859491496  1.0000
  H   H17       1.0  0.9779831396971586  0.7948992476249899  0.6164927310200172  1.0000
  H   H18       1.0  0.4779771639651215  0.7051004108223824  0.8835073370069895  1.0000
  H   H19       1.0  0.022018512084493097  0.20509934920204395  0.38350894811038944  1.0000
  H   H20       1.0  0.5220205969932437  0.2948981470277445  0.11649291047920943  1.0000
  H   H21       1.0  0.7762204185967149  0.6882206243626642  0.6878679838666175  1.0000
  H   H22       1.0  0.2762148220054499  0.8117773113746266  0.8121309833446733  1.0000
  H   H23       1.0  0.22377863930014996  0.3117764420692737  0.3121319291161272  1.0000
  H   H24       1.0  0.7237855328350874  0.1882212075019893  0.18786783249812805  1.0000
  H   H25       1.0  0.40989295707159096  0.7023678772545594  0.45853806998314184  1.0000
  H   H26       1.0  0.9098872760295935  0.7976334729687193  0.04146163414896615  1.0000
  H   H27       1.0  0.5901099916550264  0.2976328982391436  0.5414619634372713  1.0000
  H   H28       1.0  0.0901104849313512  0.20236647886309814  0.9585353687315534  1.0000
  H   H29       1.0  0.6207122198242344  0.8104722095914453  0.3988046160638349  1.0000
  H   H30       1.0  0.12070750960526058  0.6895281303252003  0.10119628009402959  1.0000
  H   H31       1.0  0.37929202584479066  0.1895293700746734  0.601197732074134  1.0000
  H   H32       1.0  0.8792876574735117  0.31047186048012776  0.8988021544298803  1.0000
  H   H33       1.0  0.8932099985868972  0.8560214292138115  0.38720115323148735  1.0000
  H   H34       1.0  0.39320642496359437  0.6439777053439216  0.11279947661433452  1.0000
  H   H35       1.0  0.10679295013843422  0.1439786395453311  0.6128001445808382  1.0000
  H   H36       1.0  0.606788742109984  0.356019302623679  0.8871982889023402  1.0000
  H   H37       1.0  0.058068077159944706  0.8285054338031943  0.4643776290368607  1.0000
  H   H38       1.0  0.5580671429496248  0.6714940556693351  0.0356216525495086  1.0000
  H   H39       1.0  0.9419348715653869  0.17149463495594117  0.5356236687754647  1.0000
  H   H40       1.0  0.44192802412396753  0.32850301076056354  0.9643782604327458  1.0000
  H   H41       1.0  0.9688037064146683  0.9749574912522476  0.5992154936612977  1.0000
  H   H42       1.0  0.4687958022315613  0.5250413533861006  0.9007822573509687  1.0000
  H   H43       1.0  0.0312018361915349  0.025041812311385997  0.4007849210776868  1.0000
  H   H44       1.0  0.5311954740239315  0.4749586179297438  0.09921546135060313  1.0000
  H   H45       1.0  0.8038661219668838  0.004332129541175799  0.5226161323833125  1.0000
  H   H46       1.0  0.3038598584358425  0.49566756938895656  0.9773848323855535  1.0000
  H   H47       1.0  0.19613682675715438  0.9956672324833988  0.47738642982093193  1.0000
  H   H48       1.0  0.6961340117031368  0.5043331671251181  0.022613769390005718  1.0000
  C   C1        1.0  0.7661709851037487  0.2687283492248795  0.6863673528232399  1.0000
  C   C2        1.0  0.2661664036059292  0.2312719973821302  0.8136316222990134  1.0000
  C   C3        1.0  0.2338293697419971  0.7312732109517556  0.31363427949238354  1.0000
  C   C4        1.0  0.7338326542961153  0.7687280129126678  0.1863675280472493  1.0000
  C   C5        1.0  0.8364631569509342  0.5919271147339915  0.8543890925124205  1.0000
  C   C6        1.0  0.33645791093719163  0.9080716104663652  0.6456093412043631  1.0000
  C   C7        1.0  0.16353849483718363  0.4080751326904632  0.14561055958959204  1.0000
  C   C8        1.0  0.6635359591991944  0.09192765411628298  0.3543896418894406  1.0000
  C   C9        1.0  0.17760664686460356  0.5521227905297437  0.6356332786387001  1.0000
  C   C10       1.0  0.6776053560324939  0.9478795354322784  0.8643673832281638  1.0000
  C   C11       1.0  0.8223924110439781  0.44788112369910493  0.364373150363349  1.0000
  C   C12       1.0  0.32239759269413065  0.05212125954886201  0.13563336601411896  1.0000
  C   C13       1.0  0.28102873422412233  0.6164231955938179  0.5990929730333934  1.0000
  C   C14       1.0  0.7810259184509504  0.8835784737397034  0.9009068316405549  1.0000
  C   C15       1.0  0.7189716206203373  0.3835776773356941  0.40091063949600436  1.0000
  C   C16       1.0  0.21897703027696744  0.11642304746342799  0.09909336903167093  1.0000
  C   C17       1.0  0.4620090762869181  0.6135728451033277  0.61006598714733  1.0000
  C   C18       1.0  0.9620075683262784  0.8864290337056173  0.8899345786382187  1.0000
  C   C19       1.0  0.5379899816138262  0.38642641948204204  0.3899329959471203  1.0000
  C   C20       1.0  0.03799538040033211  0.113571722300648  0.11006473896033243  1.0000
  C   C21       1.0  0.5285005251059617  0.5420446493569244  0.6551774540222653  1.0000
  C   C22       1.0  0.028499328199494297  0.9579552439752135  0.8448212371322799  1.0000
  C   C23       1.0  0.4714998297358761  0.4579545957416969  0.3448208132504932  1.0000
  C   C24       1.0  0.9715023235834295  0.042044020611520204  0.15517774596249725  1.0000
  C   C25       1.0  0.415964836849028  0.4800518271389578  0.6891177381505005  1.0000
  C   C26       1.0  0.9159633498273295  0.019948676718414007  0.8108812744574296  1.0000
  C   C27       1.0  0.584035517994117  0.51994822213139  0.31088284383964293  1.0000
  C   C28       1.0  0.08403700501580152  0.9800513140896285  0.1891171600671343  1.0000
  C   C29       1.0  0.8509827356811003  0.7703538831711823  0.5843792892645966  1.0000
  C   C30       1.0  0.35097684321653594  0.7296441310490209  0.9156196966556254  1.0000
  C   C31       1.0  0.14901891609923718  0.2296439289715551  0.41562079097028715  1.0000
  C   C32       1.0  0.6490209177418292  0.2703544268011058  0.08438055083057353  1.0000
  C   C33       1.0  0.7399100007102676  0.7105685704209818  0.6214086365125981  1.0000
  C   C34       1.0  0.2399069143663581  0.789429327200132  0.8785903216124853  1.0000
  C   C35       1.0  0.2600903541276764  0.2894284570367773  0.3785898448265926  1.0000
  C   C36       1.0  0.7600934404754937  0.2105699763607873  0.12141009312585281  1.0000
  C   C37       1.0  0.5785886378242608  0.6818181825078183  0.5756128251237413  1.0000
  C   C38       1.0  0.0785856483487919  0.818180291472828  0.9243862598831571  1.0000
  C   C39       1.0  0.4214117170149834  0.3181796101468066  0.42438653928910963  1.0000
  C   C40       1.0  0.9214134095545462  0.18182046453140546  0.07561305771491082  1.0000
  C   C41       1.0  0.5338688828798581  0.7204136326016268  0.4958635978395094  1.0000
  C   C42       1.0  0.03386838656727059  0.7795873228864707  0.004136012194784746  1.0000
  C   C43       1.0  0.4661340658441659  0.27958565147321934  0.5041361010772862  1.0000
  C   C44       1.0  0.9661319682771462  0.2204133941435771  0.9958618737597293  1.0000
  C   C45       1.0  0.6488415197139547  0.7802631455966348  0.4614646555423293  1.0000
  C   C46       1.0  0.14883951420949157  0.7197364781412219  0.0385360804033041  1.0000
  C   C47       1.0  0.3511601320702836  0.21973692316182541  0.5385366422698398  1.0000
  C   C48       1.0  0.85115824675146  0.28026353215289396  0.9614630699427951  1.0000
  C   C49       1.0  0.9302454573021065  0.8629242776518353  0.4639632623815261  1.0000
  C   C50       1.0  0.4302392719167257  0.6370770939365756  0.036036446843645834  1.0000
  C   C51       1.0  0.06975619448084559  0.1370750648846339  0.5360385840006856  1.0000
  C   C52       1.0  0.5697545982209604  0.3629229358429313  0.9639634193238253  1.0000
  C   C53       1.0  0.933596940454855  0.9713821627147323  0.5225522784632518  1.0000
  C   C54       1.0  0.4335890425192801  0.5286167229144355  0.9774483270261031  1.0000
  C   C55       1.0  0.06640860215266288  0.028617925533204403  0.47744973517126255  1.0000
  C   C56       1.0  0.5664035306773132  0.471383287376959  0.022550823319342293  1.0000
  S   S1        1.0  0.972958291729192  0.5165321227494672  0.8887932132665458  1.0000
  S   S2        1.0  0.4729572031968202  0.983471887757524  0.6112035620833185  1.0000
  S   S3        1.0  0.0270381722984609  0.4834723618005512  0.11120694059025031  1.0000
  S   S4        1.0  0.5270457455336696  0.016531046914742803  0.38879410980508317  1.0000
  S   S5        1.0  0.8546731065156196  0.35829840511766525  0.6463944920975424  1.0000
  S   S6        1.0  0.3546695052496247  0.1417011912499291  0.8536007588110054  1.0000
  S   S7        1.0  0.1453298422122913  0.6417030965980359  0.35360499275282126  1.0000
  S   S8        1.0  0.6453295526485262  0.8582965624291461  0.14639717395796478  1.0000
  N   N1        1.0  0.7356144158603398  0.6493008377111097  0.8357996633015435  1.0000
  N   N2        1.0  0.23561285837681112  0.8506977621360007  0.664198029356861  1.0000
  N   N3        1.0  0.2643833451031981  0.35070062502700233  0.16419838990444902  1.0000
  N   N4        1.0  0.7643823087032543  0.14930295489131848  0.3357998565969994  1.0000
  N   N5        1.0  0.7007337050016604  0.2022418652564042  0.712356011295313  1.0000
  N   N6        1.0  0.20072676441082393  0.2977599040742974  0.7876432819548498  1.0000
  N   N7        1.0  0.299266649847972  0.7977618930736626  0.2876446911320159  1.0000
  N   N8        1.0  0.799270996551442  0.7022409103915521  0.21235818310863416  1.0000
  N   N9        1.0  0.24193739920691124  0.4848240287311754  0.6812494006932542  1.0000
  N   N10       1.0  0.7419358948408288  0.015175566215823704  0.8187501169350784  1.0000
  N   N11       1.0  0.7580629556414493  0.5151791008140593  0.31875542941342877  1.0000
  N   N12       1.0  0.25806446000230915  0.9848244635670939  0.18124974923320286  1.0000
  N   N13       1.0  0.806347269720142  0.8019658284329624  0.5038556082256918  1.0000
  N   N14       1.0  0.3063425569967749  0.6980336693247223  0.9961451326721759  1.0000
  N   N15       1.0  0.19365438205890226  0.19803123800034678  0.49614430475737964  1.0000
  N   N16       1.0  0.6936539070231049  0.30196639943101644  0.003856165139346516  1.0000
