data_image0
_chemical_formula_structural       Cd2H12C12I2N2O6
_chemical_formula_sum              "Cd2 H12 C12 I2 N2 O6"
_cell_length_a       7.416540026408854
_cell_length_b       8.076225005477914
_cell_length_c       8.911809579145816
_cell_angle_alpha    104.76851339267324
_cell_angle_beta     91.701362475937
_cell_angle_gamma    114.83755861894731

_space_group_name_H-M_alt    "P 1"
_space_group_IT_number       1

loop_
  _space_group_symop_operation_xyz
  'x, y, z'

loop_
  _atom_site_type_symbol
  _atom_site_label
  _atom_site_symmetry_multiplicity
  _atom_site_fract_x
  _atom_site_fract_y
  _atom_site_fract_z
  _atom_site_occupancy
  Cd  Cd1       1.0  0.291829327801409  0.8850813988692037  0.13329306726266302  1.0000
  Cd  Cd2       1.0  0.7081717639176547  0.11491939458673528  0.8667061525080443  1.0000
  H   H1        1.0  0.8771140491072555  0.8228219303869221  0.11974420681983122  1.0000
  H   H2        1.0  0.12288774356246532  0.17717744773337776  0.8802547144581255  1.0000
  H   H3        1.0  0.8567168308624885  0.6182554420768724  0.02487989252813345  1.0000
  H   H4        1.0  0.1432849618072325  0.3817439360434347  0.9751190287498162  1.0000
  H   H5        1.0  0.20286251320751353  0.5734289330035125  0.5569517863760325  1.0000
  H   H6        1.0  0.797137933766706  0.42657045820118344  0.4430493476723854  1.0000
  H   H7        1.0  0.17328640467135858  0.29961552133212865  0.6578598799526745  1.0000
  H   H8        1.0  0.826709969355548  0.7003838071813461  0.3421388914808218  1.0000
  H   H9        1.0  0.2335469889380875  0.035276158654568186  0.48185526774656756  1.0000
  H   H10       1.0  0.7664500905220777  0.9647217672663257  0.5181443303099655  1.0000
  H   H11       1.0  0.34184481262249733  0.2959100681822022  0.1273267590071256  1.0000
  H   H12       1.0  0.65815357425776  0.7040907132133681  0.8726735109571421  1.0000
  C   C1        1.0  0.28099437219933054  0.6095622558911555  0.2681606242215365  1.0000
  C   C2        1.0  0.7190073821949738  0.3904399907882236  0.7318411817346089  1.0000
  C   C3        1.0  0.27163433559302763  0.45387233366754015  0.33405261091763805  1.0000
  C   C4        1.0  0.7283681197519343  0.5461284976762072  0.665948896545757  1.0000
  C   C5        1.0  0.22627260900567583  0.4548428862341963  0.4854323117183199  1.0000
  C   C6        1.0  0.7737251196819415  0.5451564546809917  0.5145664971762898  1.0000
  C   C7        1.0  0.21128346490758082  0.30412992789980103  0.5412183917922562  1.0000
  C   C8        1.0  0.7887136055873897  0.6958679725349909  0.4587789560326953  1.0000
  C   C9        1.0  0.24240127028764386  0.15651336842473274  0.4442572228485774  1.0000
  C   C10       1.0  0.7575964673651683  0.8434859979765503  0.5557438362776139  1.0000
  C   C11       1.0  0.3023654577806595  0.3012099361883428  0.2449294813242204  1.0000
  C   C12       1.0  0.6976349847109515  0.6987894422733089  0.7550705276084101  1.0000
  I   I1        1.0  0.7410975479712077  0.07235637918512339  0.17462004877368287  1.0000
  I   I2        1.0  0.25890420194049546  0.9276458547512044  0.8253806320666826  1.0000
  N   N1        1.0  0.28684974138077735  0.15558421765435063  0.2985156724195051  1.0000
  N   N2        1.0  0.7131506966282399  0.84441514806425  0.7014832113973313  1.0000
  O   O1        1.0  0.27385308138124026  0.5807686576289938  0.11807518948954505  1.0000
  O   O2        1.0  0.7261493694811206  0.4192321609717027  0.8819251928580627  1.0000
  O   O3        1.0  0.29505995258588047  0.7633582877349381  0.35980196966471567  1.0000
  O   O4        1.0  0.7049411480983777  0.2366425312071029  0.640199500337566  1.0000
  O   O5        1.0  0.9354293676848116  0.7331615323227323  0.11779785711907206  1.0000
  O   O6        1.0  0.06457443783826018  0.2668392986796704  0.8822025626896491  1.0000
