data_image0
_chemical_formula_structural       Cu2H32C36N4O12
_chemical_formula_sum              "Cu2 H32 C36 N4 O12"
_cell_length_a       9.830005035357816
_cell_length_b       10.064139962158539
_cell_length_c       11.064731487632288
_cell_angle_alpha    65.60723690622704
_cell_angle_beta     73.26340403328074
_cell_angle_gamma    68.32833132789165

_space_group_name_H-M_alt    "P 1"
_space_group_IT_number       1

loop_
  _space_group_symop_operation_xyz
  'x, y, z'

loop_
  _atom_site_type_symbol
  _atom_site_label
  _atom_site_symmetry_multiplicity
  _atom_site_fract_x
  _atom_site_fract_y
  _atom_site_fract_z
  _atom_site_occupancy
  Cu  Cu1       1.0  0.7405872785360116  0.21193267261021737  0.9540651881974682  1.0000
  Cu  Cu2       1.0  0.25941400482169286  0.7880669440250757  0.04593654442463452  1.0000
  H   H1        1.0  0.02983006974699976  0.6474981609510382  0.8037186496353216  1.0000
  H   H2        1.0  0.9701720534692272  0.352502681936187  0.19627157723424915  1.0000
  H   H3        1.0  0.28839279782105354  0.4119798559782738  0.8538239988313379  1.0000
  H   H4        1.0  0.7116104301430966  0.58802102989052  0.14616142003911392  1.0000
  H   H5        1.0  0.5550974866974485  0.39068519875495883  0.12770126642336518  1.0000
  H   H6        1.0  0.44490595129999383  0.6093144657912932  0.8722963007933799  1.0000
  H   H7        1.0  0.9611779424103303  0.027369523315172718  0.37649779523055577  1.0000
  H   H8        1.0  0.038822993773784543  0.9726312195122379  0.623505415527454  1.0000
  H   H9        1.0  0.948415150159178  0.039333799183516815  0.14854585192161818  1.0000
  H   H10       1.0  0.051587904093928105  0.960666966186736  0.8514568271596162  1.0000
  H   H11       1.0  0.43514048912317077  0.4916615269844728  0.29601989678428  1.0000
  H   H12       1.0  0.5648597626280959  0.5083380974054779  0.7039793763797705  1.0000
  H   H13       1.0  0.5571787574657704  0.5039911202479532  0.38020834435238987  1.0000
  H   H14       1.0  0.44281939450187463  0.4960084942832028  0.6197896436241307  1.0000
  H   H15       1.0  0.45592307756991346  0.3691817624370303  0.4649376867056035  1.0000
  H   H16       1.0  0.5440758045440219  0.6308190022417295  0.5350596967041452  1.0000
  H   H17       1.0  0.6230105276157191  0.06200151699223971  0.8506676651769143  1.0000
  H   H18       1.0  0.37698447390486917  0.9380014599144606  0.14933438045192557  1.0000
  H   H19       1.0  0.8988139070275165  0.34251647951040115  0.6752194626831809  1.0000
  H   H20       1.0  0.10118595260836122  0.6574808621978009  0.3247798453438975  1.0000
  H   H21       1.0  0.905774416599712  0.34587581408457896  0.4456080018094538  1.0000
  H   H22       1.0  0.09422616403976038  0.6541226714291996  0.5543916100829946  1.0000
  H   H23       1.0  0.5063164614269126  0.10419694793174733  0.5605819991592327  1.0000
  H   H24       1.0  0.4936784677238179  0.8958026010749979  0.4394213284931751  1.0000
  H   H25       1.0  0.528854552366269  0.9815915802096742  0.7289158072946905  1.0000
  H   H26       1.0  0.4711401111234182  0.018412529231163408  0.27108680803790713  1.0000
  H   H27       1.0  0.6594845904028616  0.9383439729267026  0.5919871836128366  1.0000
  H   H28       1.0  0.3405120555587827  0.06165330959912301  0.40801655565798006  1.0000
  H   H29       1.0  0.4202329975801078  0.2818649694341033  0.066612432493379  1.0000
  H   H30       1.0  0.5797675739166833  0.7181335097376478  0.9333880878312115  1.0000
  H   H31       1.0  0.45175768445031383  0.19206946044554485  0.9698788326624879  1.0000
  H   H32       1.0  0.5482432791618662  0.8079313014079476  0.03012165279908169  1.0000
  C   C1        1.0  0.9380576942291081  0.46176309348793887  0.8492135564272445  1.0000
  C   C2        1.0  0.061943963730236286  0.5382354159813192  0.15078397276251823  1.0000
  C   C3        1.0  0.04726576223817598  0.5269276405657807  0.8293289913244806  1.0000
  C   C4        1.0  0.9527355942610213  0.47307202680573124  0.17066547384045805  1.0000
  C   C5        1.0  0.18005240434498396  0.4064361002389918  0.8544409320426566  1.0000
  C   C6        1.0  0.8199479114050802  0.5935635685451575  0.14555198209636444  1.0000
  C   C7        1.0  0.144851513724376  0.27350730470403317  0.8894542563107066  1.0000
  C   C8        1.0  0.8551466291005878  0.7264923034851025  0.1105446400979701  1.0000
  C   C9        1.0  0.7775371417991009  0.5288515115280249  0.8442005719018083  1.0000
  C   C10       1.0  0.22246267212334903  0.47114579847004034  0.15580327828600096  1.0000
  C   C11       1.0  0.23531563080956625  0.11264005895055361  0.9348376891231922  1.0000
  C   C12       1.0  0.7646860180070973  0.887358444176677  0.06516074849871951  1.0000
  C   C13       1.0  0.6420791172030957  0.3098677550835023  0.18683684796845773  1.0000
  C   C14       1.0  0.35792217529728987  0.6901318678938185  0.8131639762215029  1.0000
  C   C15       1.0  0.638374413778628  0.31161590220978763  0.31346450663989606  1.0000
  C   C16       1.0  0.3616293256789617  0.6883826044341961  0.6865361246016874  1.0000
  C   C17       1.0  0.7551764602868046  0.2073616237136805  0.384238930240798  1.0000
  C   C18       1.0  0.24482839228976855  0.7926403094176211  0.6157619700031276  1.0000
  C   C19       1.0  0.8682437307183263  0.10828794986236552  0.3251027791033536  1.0000
  C   C20       1.0  0.13175576345859233  0.8917105053539063  0.6748998239239086  1.0000
  C   C21       1.0  0.8626477983859215  0.11337592510039232  0.1991162967939176  1.0000
  C   C22       1.0  0.1373531743689469  0.8866248430951276  0.8008832802355031  1.0000
  C   C23       1.0  0.5145840050639306  0.4252262741825705  0.3664395068072608  1.0000
  C   C24       1.0  0.48541693189181945  0.5747710914811109  0.6335577185171389  1.0000
  C   C25       1.0  0.7586075763251612  0.2032973781154866  0.5190948539145168  1.0000
  C   C26       1.0  0.24139020104084333  0.7967033435817047  0.4809073374943438  1.0000
  C   C27       1.0  0.6774589138041804  0.12098958465671933  0.6347411943932216  1.0000
  C   C28       1.0  0.322536096859089  0.8790133985920011  0.36525994280347607  1.0000
  C   C29       1.0  0.68333325728846  0.12432406111500437  0.7581891493299154  1.0000
  C   C30       1.0  0.3166627941239425  0.8756789207210862  0.24181353889269266  1.0000
  C   C31       1.0  0.8382303111065427  0.2806477499806022  0.6601743818343523  1.0000
  C   C32       1.0  0.161767484544839  0.7193529844006509  0.33982599271021735  1.0000
  C   C33       1.0  0.841183889402835  0.2820475375101737  0.5332990129479214  1.0000
  C   C34       1.0  0.15881464553751806  0.7179543533607033  0.4666998485977273  1.0000
  C   C35       1.0  0.5878731137171797  0.0316274092086459  0.6290124473055912  1.0000
  C   C36       1.0  0.41212255472251486  0.9683732962877305  0.37098936734788873  1.0000
  N   N1        1.0  0.75023342011243  0.21261843252795393  0.13208588704541316  1.0000
  N   N2        1.0  0.24976860253424604  0.7873823405969632  0.867914332577769  1.0000
  N   N3        1.0  0.7596367687205826  0.20360584038454738  0.7706380432157403  1.0000
  N   N4        1.0  0.24036206767991788  0.7963948925840685  0.2293638823547396  1.0000
  O   O1        1.0  0.9970190878361007  0.3061356810632106  0.8860172747241394  1.0000
  O   O2        1.0  0.0029801231660399087  0.6938639447393771  0.1139804474140078  1.0000
  O   O3        1.0  0.7277073693228499  0.6716974851667888  0.8092818928212112  1.0000
  O   O4        1.0  0.27229213399676405  0.3283009763915033  0.1907198017739162  1.0000
  O   O5        1.0  0.6957785596268593  0.4404598573809225  0.8764176483769575  1.0000
  O   O6        1.0  0.3042181221339034  0.5595408276767346  0.12358844259887997  1.0000
  O   O7        1.0  0.16333630351775943  0.012975910261943108  0.9804838206168116  1.0000
  O   O8        1.0  0.8366670255390783  0.9870203010162447  0.019518662352091112  1.0000
  O   O9        1.0  0.3719316433911286  0.08615413311918733  0.9281655565855119  1.0000
  O   O10       1.0  0.628070406683605  0.913846659031812  0.07183193774123005  1.0000
  O   O11       1.0  0.48627470395154393  0.2642440503254734  0.9845427095781076  1.0000
  O   O12       1.0  0.513726259660636  0.7357567115280194  0.015457775883461814  1.0000
