data_image0
_chemical_formula_structural       Zn4H10C32O13F4
_chemical_formula_sum              "Zn4 H10 C32 O13 F4"
_cell_length_a       16.100453070259242
_cell_length_b       16.105751707458563
_cell_length_c       19.631390004865363
_cell_angle_alpha    84.28987275490205
_cell_angle_beta     88.9044730521604
_cell_angle_gamma    83.60030471560836

_space_group_name_H-M_alt    "P 1"
_space_group_IT_number       1

loop_
  _space_group_symop_operation_xyz
  'x, y, z'

loop_
  _atom_site_type_symbol
  _atom_site_label
  _atom_site_symmetry_multiplicity
  _atom_site_fract_x
  _atom_site_fract_y
  _atom_site_fract_z
  _atom_site_occupancy
  Zn  Zn1       1.0  0.4309181668158287  0.5723532482237205  0.5588900891087364  1.0000
  Zn  Zn2       1.0  0.565212532966747  0.570241358622134  0.4350152928618628  1.0000
  Zn  Zn3       1.0  0.4306350374137081  0.4375824131342726  0.44815347240539455  1.0000
  Zn  Zn4       1.0  0.5779399749316737  0.4225340808391992  0.5601300043942745  1.0000
  H   H1        1.0  0.41363595820988047  0.5864546871740404  0.7669275552154462  1.0000
  H   H2        1.0  0.40912951252208524  0.576091297728709  0.8939657577209135  1.0000
  H   H3        1.0  0.5069664912567474  0.6528603551467996  0.09791420538134332  1.0000
  H   H4        1.0  0.4317686368394861  0.018542782796984607  0.4427527775627809  1.0000
  H   H5        1.0  0.472518918336128  0.5914771969279544  0.993410598387634  1.0000
  H   H6        1.0  0.4575551164665513  0.3919858184423575  0.11116543657125533  1.0000
  H   H7        1.0  0.6001189452828867  0.37305576090938086  0.7736367138812315  1.0000
  H   H8        1.0  0.5244550073174069  0.40088312191669945  0.007257715695189391  1.0000
  H   H9        1.0  0.013472064934262585  0.43397334370924795  0.4483848281287166  1.0000
  H   H10       1.0  0.5955744118453979  0.36122739228841283  0.9011257294441891  1.0000
  C   C1        1.0  0.7256841077268418  0.4880630351548805  0.491285858692713  1.0000
  C   C2        1.0  0.5040229119365164  0.4629506466830977  0.9813990030149004  1.0000
  C   C3        1.0  0.4850333743666511  0.5281402177820242  0.0194488876349084  1.0000
  C   C4        1.0  0.2768274265237237  0.5121938535471248  0.5127500274192374  1.0000
  C   C5        1.0  0.4868163829400203  0.5143762985751722  0.23980784434874647  1.0000
  C   C6        1.0  0.8156381315260574  0.48246950674700184  0.4871083302080877  1.0000
  C   C7        1.0  0.9788548399697062  0.4757896500705387  0.4820242209071353  1.0000
  C   C8        1.0  0.0240213560747478  0.5215198148364238  0.5191317748442048  1.0000
  C   C9        1.0  0.11116984729419949  0.5192542274052485  0.5177252973101218  1.0000
  C   C10       1.0  0.8916838056533152  0.4795371884846278  0.48484829250309514  1.0000
  C   C11       1.0  0.18713602745483363  0.5168719990019145  0.5164083568792109  1.0000
  C   C12       1.0  0.5038927558200186  0.4692955420757273  0.9067728709568005  1.0000
  C   C13       1.0  0.4821956826201657  0.8167923501629278  0.48245959464402693  1.0000
  C   C14       1.0  0.47532135172049556  0.9803861166883155  0.4781876796970793  1.0000
  C   C15       1.0  0.5226718637532244  0.021863039359267606  0.5170753019941686  1.0000
  C   C16       1.0  0.48708358097258747  0.7264708147690088  0.4867936746975731  1.0000
  C   C17       1.0  0.5201145410995949  0.10923584267064972  0.5148802816828779  1.0000
  C   C18       1.0  0.47940799900653264  0.8929713121716321  0.48089837789768813  1.0000
  C   C19       1.0  0.5175379635615941  0.18542287775822072  0.512484849364043  1.0000
  C   C20       1.0  0.5131799831065962  0.2754561903015543  0.5089822403366926  1.0000
  C   C21       1.0  0.48997360414016083  0.5099855226761323  0.31599692115538863  1.0000
  C   C22       1.0  0.5091607118614759  0.4879287967574301  0.6863341224899885  1.0000
  C   C23       1.0  0.5560125516687293  0.41108790905740744  0.871716561204764  1.0000
  C   C24       1.0  0.5079557811083221  0.48118818713991374  0.7625453889157684  1.0000
  C   C25       1.0  0.4542251956376546  0.5382930608150363  0.7969099089519674  1.0000
  C   C26       1.0  0.452450598262324  0.5325460198847909  0.8678795017062914  1.0000
  C   C27       1.0  0.5588815116111688  0.4173977693948886  0.8005907616134423  1.0000
  C   C28       1.0  0.4707150791294624  0.4477568689813864  0.13430606273171017  1.0000
  C   C29       1.0  0.4715383768421688  0.44547166025424906  0.20493465583125214  1.0000
  C   C30       1.0  0.4995153911863214  0.5878709556266701  0.19786752594937707  1.0000
  C   C31       1.0  0.4972168593266844  0.5935070437845696  0.12706026102348741  1.0000
  C   C32       1.0  0.4842473268960745  0.5224212746335298  0.09405823701758463  1.0000
  O   O1        1.0  0.5014538302878363  0.5003895307474764  0.5003426962890601  1.0000
  O   O2        1.0  0.5472053855861531  0.5463862175655694  0.3407627094501465  1.0000
  O   O3        1.0  0.5617322238393287  0.4367471609537078  0.6574052037778416  1.0000
  O   O4        1.0  0.43571574876359875  0.4701772828132392  0.3493707300922609  1.0000
  O   O5        1.0  0.45722786213985245  0.5446380559412276  0.6556576226436379  1.0000
  O   O6        1.0  0.44450497049851395  0.6919066023914767  0.5348050860406134  1.0000
  O   O7        1.0  0.5611577306939992  0.30502075070273094  0.5491358812074766  1.0000
  O   O8        1.0  0.6861619803415734  0.5460813781854558  0.4516690807013293  1.0000
  O   O9        1.0  0.3121232783846892  0.4591278932697804  0.47425578386800304  1.0000
  O   O10       1.0  0.6953332745565959  0.4346887829616862  0.5343237565516646  1.0000
  O   O11       1.0  0.3112358852493884  0.5611039828026634  0.5479837751529928  1.0000
  O   O12       1.0  0.5335956666103455  0.6907681520708381  0.4425009668615021  1.0000
  O   O13       1.0  0.4614438996756077  0.31582173737437114  0.46585102594662703  1.0000
  F   F1        1.0  0.9834659985373553  0.5746424098859962  0.5618752190704159  1.0000
  F   F2        1.0  0.5781188396344701  0.9772302569845837  0.5621963777597686  1.0000
  F   F3        1.0  0.4586858282239347  0.3721472649734567  0.24177566684297602  1.0000
  F   F4        1.0  0.5121405072535481  0.6579013849060475  0.22750302180482157  1.0000
