data_image0
_chemical_formula_structural       Zn2H44C28N4O20
_chemical_formula_sum              "Zn2 H44 C28 N4 O20"
_cell_length_a       9.18098933379131
_cell_length_b       9.717292222141237
_cell_length_c       11.555858815788778
_cell_angle_alpha    78.12536460321182
_cell_angle_beta     74.78965207224657
_cell_angle_gamma    71.75541004361455

_space_group_name_H-M_alt    "P 1"
_space_group_IT_number       1

loop_
  _space_group_symop_operation_xyz
  'x, y, z'

loop_
  _atom_site_type_symbol
  _atom_site_label
  _atom_site_symmetry_multiplicity
  _atom_site_fract_x
  _atom_site_fract_y
  _atom_site_fract_z
  _atom_site_occupancy
  Zn  Zn1       1.0  0.5000008225784854  0.4999971413200796  0.5000021451077288  1.0000
  Zn  Zn2       1.0  0.5000000099112897  0.9999979275116997  0.4999996736927628  1.0000
  H   H1        1.0  0.9870966145231964  0.6384752417236824  0.4057172047105979  1.0000
  H   H2        1.0  0.012899298693952224  0.3615215358959816  0.5942802948797166  1.0000
  H   H3        1.0  0.9159806437766919  0.6724002350036004  0.27235912231041937  1.0000
  H   H4        1.0  0.08401986507129786  0.32759210792712407  0.7276379730636148  1.0000
  H   H5        1.0  0.17246238562307076  0.3987542500023337  0.34492875909688087  1.0000
  H   H6        1.0  0.8275375600522281  0.601241246797251  0.6550722844390292  1.0000
  H   H7        1.0  0.10140794235871912  0.43421888092810695  0.21024371251967006  1.0000
  H   H8        1.0  0.8985932350141683  0.5657755772171456  0.7897545973015808  1.0000
  H   H9        1.0  0.3235708830148171  0.5588125053922965  0.2622443488121817  1.0000
  H   H10       1.0  0.6764247343348446  0.44118732580760406  0.7377605163081282  1.0000
  H   H11       1.0  0.3792083278406226  0.6526678881700504  0.8704764006145566  1.0000
  H   H12       1.0  0.620785361248096  0.34733855163344163  0.129526108725166  1.0000
  H   H13       1.0  0.5901364886068736  0.7708757137269445  0.7610910395349108  1.0000
  H   H14       1.0  0.4098579323372249  0.22912848977914282  0.23891339418771193  1.0000
  H   H15       1.0  0.6295240849462403  0.8553280877545433  0.10269688959008497  1.0000
  H   H16       1.0  0.3704777959816496  0.1446694533210078  0.8973067985391124  1.0000
  H   H17       1.0  0.41906024730787556  0.7402280076756682  0.2088272299241608  1.0000
  H   H18       1.0  0.580937871962881  0.2597750403711175  0.7911764760339111  1.0000
  H   H19       1.0  0.8426988341015544  0.8738428461014607  0.998533512324343  1.0000
  H   H20       1.0  0.15730419414664706  0.1261743458750217  0.001463145919174722  1.0000
  H   H21       1.0  0.9871200362397375  0.0468609011007715  0.9111004434380517  1.0000
  H   H22       1.0  0.012875458730590634  0.9531590573710177  0.08888115929803322  1.0000
  H   H23       1.0  0.9099282617846924  0.08096170146526302  0.7796551498593017  1.0000
  H   H24       1.0  0.09006665602964868  0.9190441051162851  0.2203298234132801  1.0000
  H   H25       1.0  0.15128762009575789  0.7988821447417108  0.8544636082378715  1.0000
  H   H26       1.0  0.8487049043835952  0.20112767458003586  0.14553516018546017  1.0000
  H   H27       1.0  0.07986027480162525  0.8386439235279396  0.719321164288935  1.0000
  H   H28       1.0  0.9201447452999147  0.1613646742691159  0.28067123069778416  1.0000
  H   H29       1.0  0.7406603799993264  0.3102009334863496  0.527828736606942  1.0000
  H   H30       1.0  0.2593401991707794  0.6897957108119995  0.4721693575154615  1.0000
  H   H31       1.0  0.5993930562977853  0.23208452163355284  0.6014818865946905  1.0000
  H   H32       1.0  0.40060849049861263  0.767913144802776  0.39851752982436034  1.0000
  H   H33       1.0  0.6102467443397259  0.28307063573611657  0.3535825286487578  1.0000
  H   H34       1.0  0.389754858271644  0.7169092944365616  0.6464319668394223  1.0000
  H   H35       1.0  0.6709027994149608  0.42082069306869846  0.29523071750270447  1.0000
  H   H36       1.0  0.3290890070022386  0.5791640056914815  0.7047767529334479  1.0000
  H   H37       1.0  0.21834513885115572  0.17700130118063123  0.4615820125725491  1.0000
  H   H38       1.0  0.7816538076635811  0.8229965322049821  0.5384136892123408  1.0000
  H   H39       1.0  0.30122881733667134  0.2732209424361257  0.509180949111311  1.0000
  H   H40       1.0  0.6987697947846457  0.7267746503741748  0.4908178099365016  1.0000
  H   H41       1.0  0.3923006086060712  0.9792885537569589  0.31479512994395253  1.0000
  H   H42       1.0  0.607705505782711  0.02071236315421741  0.6852000072107739  1.0000
  H   H43       1.0  0.583177732414228  0.9078081054763343  0.3049452797360246  1.0000
  H   H44       1.0  0.4168287126102115  0.0921883596342852  0.6950539847225058  1.0000
  C   C1        1.0  0.8458671638576618  0.5021961697266732  0.40402221612359285  1.0000
  C   C2        1.0  0.15413138143735958  0.49779944815578875  0.595975688582193  1.0000
  C   C3        1.0  0.966804249697269  0.584232604651966  0.33875727291825086  1.0000
  C   C4        1.0  0.033193996496358145  0.4157641063070371  0.6612405239381118  1.0000
  C   C5        1.0  0.12193068393251148  0.48586093720809487  0.27838092001475445  1.0000
  C   C6        1.0  0.8780703279915729  0.5141345638693977  0.7216189906411328  1.0000
  C   C7        1.0  0.24691703315474467  0.6283466331703663  0.10238666640883304  1.0000
  C   C8        1.0  0.7530783203855479  0.3716576247579297  0.8976149257497138  1.0000
  C   C9        1.0  0.38320420626806856  0.6909246426833988  0.04565290058116029  1.0000
  C   C10       1.0  0.6167936139012938  0.3090794984399281  0.9543506975274807  1.0000
  C   C11       1.0  0.4337000513207697  0.6992186014280223  0.9199436927832919  1.0000
  C   C12       1.0  0.5662956048167375  0.3007888898635115  0.0800581516310217  1.0000
  C   C13       1.0  0.5524395185782609  0.7639778187628963  0.8591705655297089  1.0000
  C   C14       1.0  0.4475581361423053  0.23602736529267082  0.14083463341356858  1.0000
  C   C15       1.0  0.6245059029299471  0.8210386485811867  0.9238887310249878  1.0000
  C   C16       1.0  0.37550014786643265  0.17896425390583204  0.07611302516712466  1.0000
  C   C17       1.0  0.5773901712284514  0.8093095644136596  0.0504936535754439  1.0000
  C   C18       1.0  0.4226154783482202  0.19069112257020748  0.949510305537572  1.0000
  C   C19       1.0  0.4576545753434616  0.7446542725537029  0.11095389200847443  1.0000
  C   C20       1.0  0.5423406795743375  0.2553510032346722  0.8890501553267356  1.0000
  C   C21       1.0  0.7448301853087645  0.8963114571100019  0.8531545535321211  1.0000
  C   C22       1.0  0.2551684020080033  0.10369378136777385  0.14684780384708054  1.0000
  C   C23       1.0  0.9609212420915582  0.9943336605756838  0.8467755873296454  1.0000
  C   C24       1.0  0.0390723488985145  0.0056785289600469  0.15321471924060148  1.0000
  C   C25       1.0  0.10866062101110446  0.8880643221776124  0.7847432848425838  1.0000
  C   C26       1.0  0.8913352358672244  0.11194545983353518  0.21525379362473973  1.0000
  C   C27       1.0  0.2404870605823463  0.9571902818666796  0.7216490060376017  1.0000
  C   C28       1.0  0.7595208201144034  0.04280939581291679  0.2783502321387061  1.0000
  N   N1        1.0  0.23828873113347274  0.5645237407903281  0.2188193658879881  1.0000
  N   N2        1.0  0.7617103172376575  0.4354750352388876  0.7811813540996579  1.0000
  N   N3        1.0  0.8423177131839668  0.9196141044899874  0.911148778750487  1.0000
  N   N4        1.0  0.15768514262379094  0.0803954775391773  0.08884919151496719  1.0000
  O   O1        1.0  0.7042068817115351  0.5831565292445833  0.4395380407666848  1.0000
  O   O2        1.0  0.29579073098728514  0.4168390342156627  0.5604627055031769  1.0000
  O   O3        1.0  0.8846658697129828  0.36430131133504057  0.4212360834447038  1.0000
  O   O4        1.0  0.11533170795574682  0.6356932844094345  0.5787604989644419  1.0000
  O   O5        1.0  0.14863476517279398  0.6345011136329362  0.0432584230864776  1.0000
  O   O6        1.0  0.8513623864716705  0.36550091227586284  0.956743960574947  1.0000
  O   O7        1.0  0.7549731156358632  0.9393746789981988  0.7413195102276333  1.0000
  O   O8        1.0  0.24502762898303843  0.060620922367910196  0.2586769830601411  1.0000
  O   O9        1.0  0.25222756061170776  0.0647600996053583  0.7608701438798204  1.0000
  O   O10       1.0  0.7477871500698472  0.9352360945847167  0.23913144252290405  1.0000
  O   O11       1.0  0.33666941974082953  0.8988085793150447  0.6295265423387945  1.0000
  O   O12       1.0  0.6633359272386202  0.101188874305592  0.3704771645184549  1.0000
  O   O13       1.0  0.6378785688334645  0.3212740997861019  0.5884458682973203  1.0000
  O   O14       1.0  0.36212527564738656  0.6787201663377189  0.41155701050011817  1.0000
  O   O15       1.0  0.5750425029423312  0.39335592476607667  0.3368531383677933  1.0000
  O   O16       1.0  0.42495260381571154  0.6066273635353383  0.6631632806041096  1.0000
  O   O17       1.0  0.3189780194965549  0.1902281487787434  0.46189587621017114  1.0000
  O   O18       1.0  0.6810219261787438  0.8097673480208414  0.5381051673257387  1.0000
  O   O19       1.0  0.47467781659729263  0.9086303254006798  0.3589653553577816  1.0000
  O   O20       1.0  0.5253289628205664  0.0913683802852461  0.6410308518378256  1.0000
