data_image0
_chemical_formula_structural       Cd2H34C44N2O16
_chemical_formula_sum              "Cd2 H34 C44 N2 O16"
_cell_length_a       8.203884835449356
_cell_length_b       10.076446583025525
_cell_length_c       14.293568376859907
_cell_angle_alpha    97.39209541396042
_cell_angle_beta     101.39792368481804
_cell_angle_gamma    112.74978207769749

_space_group_name_H-M_alt    "P 1"
_space_group_IT_number       1

loop_
  _space_group_symop_operation_xyz
  'x, y, z'

loop_
  _atom_site_type_symbol
  _atom_site_label
  _atom_site_symmetry_multiplicity
  _atom_site_fract_x
  _atom_site_fract_y
  _atom_site_fract_z
  _atom_site_occupancy
  Cd  Cd1       1.0  0.1966379592288236  0.9233351456405147  0.5470540451274175  1.0000
  Cd  Cd2       1.0  0.8033619632792862  0.07666795277729932  0.45294690878031935  1.0000
  H   H1        1.0  0.5038215431537836  0.09721056758429113  0.7245614764097539  1.0000
  H   H2        1.0  0.4961820348225815  0.9027947277794086  0.27544149243820476  1.0000
  H   H3        1.0  0.5940115883048733  0.09915191209017853  0.6377953641348952  1.0000
  H   H4        1.0  0.4059894869559886  0.9008533960667652  0.3622059355899268  1.0000
  H   H5        1.0  0.11112661653365313  0.7084121753301034  0.29898083167316974  1.0000
  H   H6        1.0  0.8888747176692748  0.29158656503310715  0.7010170405762892  1.0000
  H   H7        1.0  0.18672055986613864  0.4419730995604638  0.5340811031004478  1.0000
  H   H8        1.0  0.8132823378612882  0.5580333185856432  0.46592050499322823  1.0000
  H   H9        1.0  0.00680711846381853  0.13934507328367127  0.8490928699597475  1.0000
  H   H10       1.0  0.9931771859666939  0.860644684797343  0.15090785722833294  1.0000
  H   H11       1.0  0.3844554739645787  0.21956362974705007  0.3373954251442299  1.0000
  H   H12       1.0  0.6155477143102815  0.7804361515080276  0.6626069500816315  1.0000
  H   H13       1.0  0.3778821352286457  0.6375075229774438  0.3028344459290295  1.0000
  H   H14       1.0  0.6221198739556613  0.3624901061195872  0.6971640879734482  1.0000
  H   H15       1.0  0.1480664480255316  0.7383494405874773  0.7073059337720481  1.0000
  H   H16       1.0  0.8519408524187142  0.2616559046836642  0.29269534415306  1.0000
  H   H17       1.0  0.3646278932952356  0.21293704049986673  0.1620654838147715  1.0000
  H   H18       1.0  0.635377112178638  0.7870638622605811  0.8379365006786799  1.0000
  H   H19       1.0  0.5864725714154986  0.2964384585449125  0.2495703229728647  1.0000
  H   H20       1.0  0.4135344273971243  0.7035591795142795  0.7504294518721083  1.0000
  H   H21       1.0  0.09006942343914673  0.7431680878720003  0.8722776690240295  1.0000
  H   H22       1.0  0.9099332659940913  0.2568284184426304  0.12772222563273067  1.0000
  H   H23       1.0  0.01504197278525526  0.8530702569123395  0.005051969900179642  1.0000
  H   H24       1.0  0.9849551717135299  0.1469250895056931  0.99494930731057  1.0000
  H   H25       1.0  0.07691985322760793  0.12099488601744213  0.6889365579362164  1.0000
  H   H26       1.0  0.9230728004844763  0.8790037263788691  0.31106595890113914  1.0000
  H   H27       1.0  0.959566555398723  0.5959319314473817  0.05712657198076699  1.0000
  H   H28       1.0  0.04043102473094962  0.40406682810569094  0.942868796583987  1.0000
  H   H29       1.0  0.33297237220726567  0.2048203596258773  0.9997107836601843  1.0000
  H   H30       1.0  0.6670278355807184  0.795176113417128  0.00029023827846685175  1.0000
  H   H31       1.0  0.7632205248207243  0.47590657773920264  0.8861102517699211  1.0000
  H   H32       1.0  0.2367708301255647  0.5240921446996795  0.11388513859454721  1.0000
  H   H33       1.0  0.4468421968739875  0.27937493841648836  0.8578505189220353  1.0000
  H   H34       1.0  0.5531498593914819  0.7206226151751238  0.1421490286017431  1.0000
  C   C1        1.0  0.2785253282257258  0.5533789392599857  0.4219739104738879  1.0000
  C   C2        1.0  0.7214764995512651  0.44662308755988533  0.5780257432434084  1.0000
  C   C3        1.0  0.2418939205167021  0.4376434010500958  0.4710110007855093  1.0000
  C   C4        1.0  0.7581109810846058  0.5623597293623207  0.5289897958622021  1.0000
  C   C5        1.0  0.38641837988691924  0.42786253853676487  0.30898462549252065  1.0000
  C   C6        1.0  0.6135927574328978  0.5721406059574151  0.6910175475579905  1.0000
  C   C7        1.0  0.24656595588843544  0.6839338151382962  0.45824105410565613  1.0000
  C   C8        1.0  0.7534346099956792  0.31606824111063503  0.5417563668475509  1.0000
  C   C9        1.0  0.03994559033129261  0.04908947915456002  0.8229209084109712  1.0000
  C   C10       1.0  0.960044170963798  0.9509036319263661  0.1770793456811434  1.0000
  C   C11       1.0  0.353377309844504  0.3130672846936236  0.3582715755590727  1.0000
  C   C12       1.0  0.6466331630290584  0.6869369480343084  0.6417313340409336  1.0000
  C   C13       1.0  0.2790968537779079  0.3185355657724571  0.43857927751473375  1.0000
  C   C14       1.0  0.7209062306243936  0.6814664431345818  0.5614219098653805  1.0000
  C   C15       1.0  0.23756984189885344  0.19260450163654505  0.48863305512877997  1.0000
  C   C16       1.0  0.7624295042328768  0.807397491911708  0.5113677258704072  1.0000
  C   C17       1.0  0.3484514176882386  0.5475705467157327  0.34091084364327173  1.0000
  C   C18       1.0  0.6515505086937524  0.45242926396839783  0.6590892988185004  1.0000
  C   C19       1.0  0.04559926932279986  0.9429066653964426  0.8770560096942148  1.0000
  C   C20       1.0  0.9543966343533583  0.05708866438577332  0.12294583115748739  1.0000
  C   C21       1.0  0.12011441521723752  0.8267386524141928  0.7428914301124295  1.0000
  C   C22       1.0  0.8798844426079954  0.17326004316118573  0.2571082685201845  1.0000
  C   C23       1.0  0.49400868214463867  0.31392624200446323  0.19072828116061663  1.0000
  C   C24       1.0  0.5059968944380416  0.6860757771417669  0.8092731771401207  1.0000
  C   C25       1.0  0.7576229056598649  0.46927981514717504  0.12438241139109613  1.0000
  C   C26       1.0  0.24238033907950307  0.5307178421018861  0.8756148597691791  1.0000
  C   C27       1.0  0.08533613488644695  0.8293024605615218  0.8342499583276962  1.0000
  C   C28       1.0  0.9146609110073455  0.17069510199225854  0.1657508301385775  1.0000
  C   C29       1.0  0.8838928122360558  0.5431898974444281  0.22507768346210363  1.0000
  C   C30       1.0  0.11610931662349348  0.4568054694519861  0.7749241355898848  1.0000
  C   C31       1.0  0.013839468841972432  0.946323219274575  0.9738266378698485  1.0000
  C   C32       1.0  0.9861564242990609  0.053672133540075606  0.026173804779340126  1.0000
  C   C33       1.0  0.077996534214364  0.0400382268629613  0.7326380260636542  1.0000
  C   C34       1.0  0.9220022513436775  0.9599626272670748  0.2673646793307682  1.0000
  C   C35       1.0  0.5790353813989739  0.35692967597505293  0.10859796310911213  1.0000
  C   C36       1.0  0.4209648053187607  0.6430668431328215  0.8914002624245114  1.0000
  C   C37       1.0  0.8214168963331192  0.5097851915676872  0.04355948633635624  1.0000
  C   C38       1.0  0.17858069433168575  0.4902135449529511  0.9564372804309116  1.0000
  C   C39       1.0  0.4717780449650562  0.28956022108520335  0.012041028014913021  1.0000
  C   C40       1.0  0.5282221522878033  0.7104362749902295  0.9879585957212245  1.0000
  C   C41       1.0  0.7125776400839285  0.4413817865324959  0.9479251194301669  1.0000
  C   C42       1.0  0.28741631618285624  0.5586147069773946  0.05207242880191391  1.0000
  C   C43       1.0  0.5363670008164619  0.33066483353714204  0.9321275993941854  1.0000
  C   C44       1.0  0.463626955450323  0.6693316599727481  0.0678699488378953  1.0000
  N   N1        1.0  0.11877057796888134  0.9315685885080429  0.6935433234357762  1.0000
  N   N2        1.0  0.8812301075904826  0.06843120554027145  0.30645738266694883  1.0000
  O   O1        1.0  0.1202361505452743  0.16931181294468442  0.5388422059870095  1.0000
  O   O2        1.0  0.8797649247155803  0.8306934952122591  0.4611590937378125  1.0000
  O   O3        1.0  0.22645974389425322  0.7052638450932422  0.5433829718096987  1.0000
  O   O4        1.0  0.7735407391875526  0.2947403927427886  0.45661605770280295  1.0000
  O   O5        1.0  0.2402458504881296  0.774704144588391  0.4021286378962401  1.0000
  O   O6        1.0  0.7597516521067931  0.22529678503556744  0.5978690383290656  1.0000
  O   O7        1.0  0.45499708585504106  0.43500598609124114  0.22895679408278372  1.0000
  O   O8        1.0  0.5450141500697755  0.564994942267191  0.7710458677122107  1.0000
  O   O9        1.0  0.3208901132170893  0.11013748171257022  0.4773358895244258  1.0000
  O   O10       1.0  0.6791068393392625  0.8898622854607371  0.5226651092986218  1.0000
  O   O11       1.0  0.5049122158572529  0.03268308683721699  0.668170775836991  1.0000
  O   O12       1.0  0.495089441047547  0.9673233146730739  0.33183139589763044  1.0000
  O   O13       1.0  0.026851224347204564  0.669173832373261  0.22791246934785656  1.0000
  O   O14       1.0  0.9731500007156059  0.3308271471581321  0.7720835159546056  1.0000
  O   O15       1.0  0.8637358827294295  0.49283066535652875  0.2980304599121055  1.0000
  O   O16       1.0  0.1362695215023991  0.5071737311524844  0.7019607222265378  1.0000
