data_image0
_chemical_formula_structural       Cd4H40C72S4N8O16
_chemical_formula_sum              "Cd4 H40 C72 S4 N8 O16"
_cell_length_a       7.456851949464076
_cell_length_b       9.93776164266441
_cell_length_c       21.726798935052642
_cell_angle_alpha    89.9998578190578
_cell_angle_beta     90.00025987728927
_cell_angle_gamma    103.80467295471081

_space_group_name_H-M_alt    "P 1"
_space_group_IT_number       1

loop_
  _space_group_symop_operation_xyz
  'x, y, z'

loop_
  _atom_site_type_symbol
  _atom_site_label
  _atom_site_symmetry_multiplicity
  _atom_site_fract_x
  _atom_site_fract_y
  _atom_site_fract_z
  _atom_site_occupancy
  Cd  Cd1       1.0  0.8087649897801581  0.9685799938590879  0.5566568923529547  1.0000
  Cd  Cd2       1.0  0.1912376698090909  0.5314226221073568  0.056655225063899216  1.0000
  Cd  Cd3       1.0  0.19123350534619726  0.031418956907295084  0.4433434085190698  1.0000
  Cd  Cd4       1.0  0.8087620972561637  0.4685721527302179  0.943344155289495  1.0000
  H   H1        1.0  0.4736176110760866  0.1306368900751664  0.5902152005330947  1.0000
  H   H2        1.0  0.5263886688524194  0.36937078652899663  0.0902178411102952  1.0000
  H   H3        1.0  0.5263869273857507  0.8693640695574132  0.4097851003428304  1.0000
  H   H4        1.0  0.473621976880288  0.6306363420750997  0.9097856815947127  1.0000
  H   H5        1.0  0.3244047388284129  0.1994072701773675  0.6840659511186901  1.0000
  H   H6        1.0  0.6756006118549392  0.300602208131899  0.1840693844595123  1.0000
  H   H7        1.0  0.6755913066898315  0.8005844280787856  0.3159352702777198  1.0000
  H   H8        1.0  0.32440812596430385  0.6994111843668804  0.8159345985012723  1.0000
  H   H9        1.0  0.44799957124914147  0.15052828476045477  0.7895547023675178  1.0000
  H   H10       1.0  0.5519968364627132  0.3494747324947198  0.2895574095702714  1.0000
  H   H11       1.0  0.5519964742639941  0.849463413497183  0.21044559850671624  1.0000
  H   H12       1.0  0.44800045065757377  0.6505325543065084  0.7104465733844734  1.0000
  H   H13       1.0  0.11944331922520476  0.8081600844378156  0.8014554685619332  1.0000
  H   H14       1.0  0.880557988329414  0.6918376309382949  0.3014556934202091  1.0000
  H   H15       1.0  0.8805513264961673  0.19182746953281793  0.19854253100815814  1.0000
  H   H16       1.0  0.11945033559947396  0.30817056538545984  0.698543226671383  1.0000
  H   H17       1.0  0.2594072741595852  0.7510841395621597  0.7005917051683141  1.0000
  H   H18       1.0  0.740594662620765  0.7489190808307243  0.20059070638117052  1.0000
  H   H19       1.0  0.740586099617772  0.24890759033875298  0.2994062943982385  1.0000
  H   H20       1.0  0.25941703291805845  0.25109115599955356  0.7994077534509716  1.0000
  H   H21       1.0  0.13124842171003334  0.8166211049108227  0.601870619202039  1.0000
  H   H22       1.0  0.8687538181651886  0.6833865775263205  0.10187037389987103  1.0000
  H   H23       1.0  0.8687500734060976  0.18337784585851583  0.3981278406256479  1.0000
  H   H24       1.0  0.1312500843144164  0.31661647007436505  0.8981280859299545  1.0000
  H   H25       1.0  0.6542539529470872  0.049039319352751  0.8496406395245798  1.0000
  H   H26       1.0  0.3457504375209624  0.45096133744345934  0.3496405782252268  1.0000
  H   H27       1.0  0.3457515075165745  0.9509564282761294  0.15036012161628076  1.0000
  H   H28       1.0  0.6542440500260154  0.5490376607807972  0.6503606431655555  1.0000
  H   H29       1.0  0.904522097995972  0.9181538257319628  0.85428621262831  1.0000
  H   H30       1.0  0.09547578885176485  0.5818437670614359  0.35428340400270747  1.0000
  H   H31       1.0  0.09548167667167456  0.0818409016410584  0.14571638955606403  1.0000
  H   H32       1.0  0.9045173628158165  0.4181552469878014  0.645714595559362  1.0000
  H   H33       1.0  0.33572679789466514  0.6411264984307793  0.42906034838517837  1.0000
  H   H34       1.0  0.6642689618794719  0.858874009359539  0.9290600607783475  1.0000
  H   H35       1.0  0.6642666398078488  0.35886939157841624  0.5709390319622258  1.0000
  H   H36       1.0  0.33572546173724044  0.1411208287579271  0.0709388593094289  1.0000
  H   H37       1.0  0.11529986733614088  0.3863913933390108  0.42655649283165087  1.0000
  H   H38       1.0  0.8846937047702709  0.11361019434023942  0.9265550249908472  1.0000
  H   H39       1.0  0.8846952561802862  0.6136055169208491  0.5734442682998164  1.0000
  H   H40       1.0  0.11529438947091107  0.8863857589525423  0.0734415937855246  1.0000
  C   C1        1.0  0.5199425712043392  0.10950232933539181  0.6362385987175259  1.0000
  C   C2        1.0  0.4800628841212671  0.3905052149563559  0.1362388350136925  1.0000
  C   C3        1.0  0.4800623172073627  0.8904996663683846  0.36376262268024834  1.0000
  C   C4        1.0  0.5199413683209854  0.6094988687118247  0.8637628466433895  1.0000
  C   C5        1.0  0.4377268664589378  0.1487777022542076  0.6894630978925848  1.0000
  C   C6        1.0  0.5622778442850915  0.3512296865397247  0.18946536007408096  1.0000
  C   C7        1.0  0.5622756362544692  0.8512212010520631  0.3105376632439203  1.0000
  C   C8        1.0  0.4377244363338874  0.6487765009104222  0.8105381626244326  1.0000
  C   C9        1.0  0.5025812327804857  0.120811033686671  0.7464177164268196  1.0000
  C   C10       1.0  0.49741870330311844  0.3791920749563644  0.24641937609626305  1.0000
  C   C11       1.0  0.49742155596529597  0.8791847455803037  0.2535839652339433  1.0000
  C   C12       1.0  0.5025768340883232  0.620810031482961  0.7535836863378979  1.0000
  C   C13       1.0  0.6466560017459385  0.051236930109809  0.7501777516104796  1.0000
  C   C14       1.0  0.35334060448833765  0.4487641259269851  0.2501781659569247  1.0000
  C   C15       1.0  0.35334713693691816  0.9487598852320649  0.2498225492667174  1.0000
  C   C16       1.0  0.6466542330059467  0.5512359083692148  0.7498235156946295  1.0000
  C   C17       1.0  0.7216603740945472  0.014829540928033699  0.6941953602623984  1.0000
  C   C18       1.0  0.2783386319031109  0.485172699732594  0.1941960655614636  1.0000
  C   C19       1.0  0.2783428285083573  0.9851714345235933  0.3058054008734743  1.0000
  C   C20       1.0  0.7216588773116113  0.5148273029247717  0.8058051558312657  1.0000
  C   C21       1.0  0.8684352704035305  0.9423222921245725  0.6969348706073788  1.0000
  C   C22       1.0  0.13156726172076108  0.5576788520747513  0.19693307181861291  1.0000
  C   C23       1.0  0.13156990403543026  0.05767657954137919  0.3030663507924772  1.0000
  C   C24       1.0  0.8684359408719118  0.4423221233798386  0.8030658482729294  1.0000
  C   C25       1.0  0.9315949024025441  0.9085796026273982  0.7553761344208141  1.0000
  C   C26       1.0  0.0684042713604853  0.591421400925185  0.2553746496763196  1.0000
  C   C27       1.0  0.06840527853005797  0.0914203683918728  0.24462416645202725  1.0000
  C   C28       1.0  0.9315982952601871  0.4085816624945482  0.7446242704134535  1.0000
  C   C29       1.0  0.07385615096515608  0.8367681859256066  0.7566605034168604  1.0000
  C   C30       1.0  0.926150002403062  0.6632296103554863  0.2566594580513097  1.0000
  C   C31       1.0  0.9261479097092931  0.16322341741552293  0.24333841668093473  1.0000
  C   C32       1.0  0.07385593582753809  0.33677549357076225  0.7433390017790202  1.0000
  C   C33       1.0  0.1478752839075597  0.8040433875673046  0.702009184116271  1.0000
  C   C34       1.0  0.8521276545325305  0.6959587763717395  0.20200751518154195  1.0000
  C   C35       1.0  0.8521244831500282  0.1959513872724941  0.29798881545386996  1.0000
  C   C36       1.0  0.1478779337482052  0.3040452914833196  0.7979900241269319  1.0000
  C   C37       1.0  0.07770056136487109  0.8410761369884412  0.6461996853235804  1.0000
  C   C38       1.0  0.9222991492878518  0.6589303983343842  0.1461986385582179  1.0000
  C   C39       1.0  0.9222992696178735  0.15892279795962594  0.35379969502741204  1.0000
  C   C40       1.0  0.07770208147131535  0.3410726809051425  0.8538002815304183  1.0000
  C   C41       1.0  0.7151383919715144  0.016845565081680995  0.8081527758126157  1.0000
  C   C42       1.0  0.284861879961447  0.4831563087865051  0.3081511931724492  1.0000
  C   C43       1.0  0.2848664325252557  0.983152270510857  0.19184890584864434  1.0000
  C   C44       1.0  0.715133657412096  0.5168457976580074  0.6918486474341352  1.0000
  C   C45       1.0  0.8519259999758332  0.9469967995784003  0.810629467099453  1.0000
  C   C46       1.0  0.1480740736197815  0.5530009020922435  0.31062770163545395  1.0000
  C   C47       1.0  0.1480781246263305  0.0529989638702659  0.18937129404027087  1.0000
  C   C48       1.0  0.8519237855294575  0.4470001366407601  0.6893716787126325  1.0000
  C   C49       1.0  0.49828481943012537  0.738513862891793  0.5487411965906832  1.0000
  C   C50       1.0  0.5017250675202264  0.7614866114840597  0.04874254220172961  1.0000
  C   C51       1.0  0.5017090321269463  0.2614872233027938  0.4512568029707539  1.0000
  C   C52       1.0  0.49827877105723667  0.23851227600168562  0.9512586791969966  1.0000
  C   C53       1.0  0.3595193440034378  0.614645684093212  0.5275488915594623  1.0000
  C   C54       1.0  0.6404843280973292  0.8853570097409502  0.0275489438655327  1.0000
  C   C55       1.0  0.640472885672551  0.3853585419567622  0.4724504887820018  1.0000
  C   C56       1.0  0.3595151529381083  0.1146408891351882  0.972449976224688  1.0000
  C   C57       1.0  0.2956985180460093  0.5745699331133096  0.46893645364037456  1.0000
  C   C58       1.0  0.7042993705111299  0.9254314665816921  0.968935234356785  1.0000
  C   C59       1.0  0.7042946336266878  0.42542908093444254  0.5310624664438636  1.0000
  C   C60       1.0  0.2956957529925148  0.0745654436818697  0.0310632254692678  1.0000
  C   C61       1.0  0.18032717444837223  0.4391684947663776  0.46755427237584973  1.0000
  C   C62       1.0  0.8196698747629723  0.0608339653874808  0.9675518367981866  1.0000
  C   C63       1.0  0.8196686489601035  0.5608304876380927  0.5324469490160697  1.0000
  C   C64       1.0  0.18032327689950006  0.9391650486632341  0.03244524224172102  1.0000
  C   C65       1.0  0.15783959076476614  0.378104566690567  0.5252070529551248  1.0000
  C   C66       1.0  0.8421625314349511  0.12189711854739471  0.025204994410614703  1.0000
  C   C67       1.0  0.8421562965611996  0.6218985758244031  0.47479416843439287  1.0000
  C   C68       1.0  0.15783160614682853  0.8781008436101132  0.9747925448918197  1.0000
  C   C69       1.0  0.053158257367833486  0.2397065425124154  0.5447428281454877  1.0000
  C   C70       1.0  0.9468477394988992  0.2602939963119653  0.0447417030511872  1.0000
  C   C71       1.0  0.9468382659301324  0.7602945120374116  0.4552583932457992  1.0000
  C   C72       1.0  0.05314941975573357  0.7397049702771596  0.9552567567753699  1.0000
  S   S1        1.0  0.2762889159482568  0.4871977536244714  0.580876586776732  1.0000
  S   S2        1.0  0.7237168463569358  0.012804756860276703  0.0808758383084012  1.0000
  S   S3        1.0  0.7237013418993425  0.5128085762089469  0.4191237140840016  1.0000
  S   S4        1.0  0.2762803128925881  0.9871942097303333  0.9191217009959943  1.0000
  N   N1        1.0  0.6580856046510135  0.0461399138030814  0.6388258800006171  1.0000
  N   N2        1.0  0.341917843658777  0.4538655658373615  0.13882488829894163  1.0000
  N   N3        1.0  0.3419216055389356  0.9538610141884405  0.3611753413997363  1.0000
  N   N4        1.0  0.6580864087732506  0.546138517833775  0.8611749523138172  1.0000
  N   N5        1.0  0.9420581842741385  0.9067447075316223  0.6440357665986625  1.0000
  N   N6        1.0  0.05794446009252849  0.5932586790780903  0.1440351825885386  1.0000
  N   N7        1.0  0.05794333251229489  0.0932552476700792  0.3559631534920626  1.0000
  N   N8        1.0  0.9420570566938974  0.4067412761236112  0.8559637375021865  1.0000
  O   O1        1.0  0.544459570431364  0.7441229606880883  0.6046684768383628  1.0000
  O   O2        1.0  0.4555579670645784  0.7558782906478001  0.1046697513061474  1.0000
  O   O3        1.0  0.45553370907374807  0.2558843735813952  0.39532998297998745  1.0000
  O   O4        1.0  0.5444505789843106  0.24412262152467432  0.8953310098342656  1.0000
  O   O5        1.0  0.5686545531093614  0.8308236784811741  0.5077627763925676  1.0000
  O   O6        1.0  0.43135087103149755  0.6691769752510552  0.0077645727167095  1.0000
  O   O7        1.0  0.43134829952833786  0.1691762609037042  0.4922343026549641  1.0000
  O   O8        1.0  0.5686455883540942  0.3308199191867942  0.9922375691991405  1.0000
  O   O9        1.0  0.036671568547184584  0.21313067605391472  0.6011938517338109  1.0000
  O   O10       1.0  0.9633383631290824  0.2868675614654208  0.1011931832987969  1.0000
  O   O11       1.0  0.9633269905017768  0.7868724348214825  0.3988073696579733  1.0000
  O   O12       1.0  0.036660767959055894  0.713129301338775  0.8988052765306662  1.0000
  O   O13       1.0  0.9810870247095947  0.150335297072921  0.5018266176954  1.0000
  O   O14       1.0  0.01891750948445998  0.349666431779319  0.0018252049821185997  1.0000
  O   O15       1.0  0.018911184399726638  0.8496667777283093  0.4981755242188656  1.0000
  O   O16       1.0  0.9810809856342286  0.6503325189892806  0.9981737151066528  1.0000
