data_image0
_chemical_formula_structural       Na2Co2H36C48N10O8
_chemical_formula_sum              "Na2 Co2 H36 C48 N10 O8"
_cell_length_a       8.497758078780917
_cell_length_b       11.608123143463594
_cell_length_c       11.788061521477351
_cell_angle_alpha    72.57206515152716
_cell_angle_beta     77.83183031672871
_cell_angle_gamma    90.6065045159469

_space_group_name_H-M_alt    "P 1"
_space_group_IT_number       1

loop_
  _space_group_symop_operation_xyz
  'x, y, z'

loop_
  _atom_site_type_symbol
  _atom_site_label
  _atom_site_symmetry_multiplicity
  _atom_site_fract_x
  _atom_site_fract_y
  _atom_site_fract_z
  _atom_site_occupancy
  Na  Na1       1.0  0.5875575428423971  0.11788488068548018  0.07251838737502682  1.0000
  Na  Na2       1.0  0.4124363221051722  0.8821104017323121  0.9274846885028439  1.0000
  Co  Co1       1.0  0.2828050481272371  0.28022719277934977  0.16749781565105343  1.0000
  Co  Co2       1.0  0.7171963255456859  0.7197708648172066  0.832504927865635  1.0000
  H   H1        1.0  0.8824626940396455  0.3033904155861719  0.7233579671031903  1.0000
  H   H2        1.0  0.1175388948224168  0.6966112211780243  0.2766360359944143  1.0000
  H   H3        1.0  0.7265394114485844  0.23480201671107895  0.6761081980651582  1.0000
  H   H4        1.0  0.2734582970245398  0.7651824441164835  0.3239000463196433  1.0000
  H   H5        1.0  0.8168709420864175  0.1451987701050825  0.7941226590115633  1.0000
  H   H6        1.0  0.18314404537606777  0.8548021320778288  0.20588384681677496  1.0000
  H   H7        1.0  0.21545640751578793  0.5968183538180227  0.970855992515162  1.0000
  H   H8        1.0  0.7845372654381109  0.40317686073215947  0.029135257014083038  1.0000
  H   H9        1.0  0.0334949286078015  0.1890086682087286  0.496780724911396  1.0000
  H   H10       1.0  0.9664919379052891  0.8109901498386167  0.5032156238013242  1.0000
  H   H11       1.0  0.08912805868849459  0.008543920982084802  0.6274766746941154  1.0000
  H   H12       1.0  0.9108635688238208  0.991454033318611  0.3725208689287456  1.0000
  H   H13       1.0  0.5885103046610352  0.6375959849614077  0.6089840932105801  1.0000
  H   H14       1.0  0.4114968813447745  0.3624002870151557  0.3910157112094481  1.0000
  H   H15       1.0  0.24487291943950137  0.8280225237012575  0.6716372123356891  1.0000
  H   H16       1.0  0.7551277277995609  0.17198007371776916  0.32836768268220606  1.0000
  H   H17       1.0  0.8855974855728093  0.3203161909457036  0.4847378378095968  1.0000
  H   H18       1.0  0.11442260952170359  0.6797001517073297  0.5152666272109131  1.0000
  H   H19       1.0  0.7240279264713932  0.44565243690774986  0.6382002754452145  1.0000
  H   H20       1.0  0.27598655544104383  0.554343907693017  0.3618025841560025  1.0000
  H   H21       1.0  0.7951214489151468  0.6537162875747243  0.23333955792929126  1.0000
  H   H22       1.0  0.20489566294766348  0.3462954571291448  0.7666574266730705  1.0000
  H   H23       1.0  0.7120263605880413  0.8508229716116845  0.206728607381379  1.0000
  H   H24       1.0  0.28794983992036544  0.14916490868314006  0.7932718679110307  1.0000
  H   H25       1.0  0.5519985307243117  0.7561295389075582  0.3231472789388762  1.0000
  H   H26       1.0  0.4479794919714592  0.24386382242828833  0.676858052864972  1.0000
  H   H27       1.0  0.6987156602919741  0.8397074653528948  0.36442575117114  1.0000
  H   H28       1.0  0.301275418158383  0.1602850402095086  0.6355709648837616  1.0000
  H   H29       1.0  0.4552317949227742  0.7914167282331804  0.5073311127279324  1.0000
  H   H30       1.0  0.5447677049857872  0.20858675712538144  0.4926720031224505  1.0000
  H   H31       1.0  0.7324073865967975  0.5022519639019478  0.4403499998435976  1.0000
  H   H32       1.0  0.2676205695505373  0.49777078157435983  0.5596538397885098  1.0000
  H   H33       1.0  0.37527369023585766  0.6652622571546588  0.7780068825015007  1.0000
  H   H34       1.0  0.6247237633231817  0.334733916373736  0.22198856676389062  1.0000
  H   H35       1.0  0.014044853919649812  0.6261831933748  0.07152811812159136  1.0000
  H   H36       1.0  0.9859603486111298  0.37381846758228215  0.928465300718628  1.0000
  C   C1        1.0  0.7789216344536172  0.23523499637718  0.753821624564452  1.0000
  C   C2        1.0  0.22108311264163655  0.764760373162325  0.24618223275884776  1.0000
  C   C3        1.0  0.2632865239562889  0.5075897381460808  0.9941881990997741  1.0000
  C   C4        1.0  0.7367120769332445  0.49240554744277165  0.005809029333129005  1.0000
  C   C5        1.0  0.3400434068405787  0.0630538612093332  0.34316301175002206  1.0000
  C   C6        1.0  0.6599495075109799  0.9369441302417768  0.6568394055555089  1.0000
  C   C7        1.0  0.46810222194118006  0.37811603272722744  0.9217665727563046  1.0000
  C   C8        1.0  0.5319025114402435  0.6218793319645924  0.07823643982780473  1.0000
  C   C9        1.0  0.1234978070583566  0.1836628262410755  0.4175099374572255  1.0000
  C   C10       1.0  0.8764991168013124  0.8163397082035716  0.5824887839045443  1.0000
  C   C11       1.0  0.07546254960505652  0.45656422727123674  0.18574439815915153  1.0000
  C   C12       1.0  0.924535171628051  0.5434346682024583  0.814251042520624  1.0000
  C   C13       1.0  0.039118434491911096  0.3694179748664794  0.30266009479879585  1.0000
  C   C14       1.0  0.9608869624029522  0.630584630571299  0.6973397975133224  1.0000
  C   C15       1.0  0.183992839580398  0.9939331302631231  0.5560205604353214  1.0000
  C   C16       1.0  0.8160043954652423  0.0060730172829722  0.4439753336816707  1.0000
  C   C17       1.0  0.5530962917165921  0.5656878489893842  0.6957391351849155  1.0000
  C   C18       1.0  0.4469145628132836  0.4343084665708119  0.30426346393448966  1.0000
  C   C19       1.0  0.26898517984674436  0.8924495032133066  0.5802593182600261  1.0000
  C   C20       1.0  0.7310056914336371  0.1075521046013961  0.4197440402623938  1.0000
  C   C21       1.0  0.9165003743717648  0.387092971114626  0.3946175651781445  1.0000
  C   C22       1.0  0.0835142002132372  0.6129169606052969  0.6053829120298956  1.0000
  C   C23       1.0  0.6292859982929285  0.4561420463267822  0.7116743425546801  1.0000
  C   C24       1.0  0.3707236105392013  0.5438542466260614  0.28832591709961963  1.0000
  C   C25       1.0  0.21618009730448048  0.0809693239498586  0.4377241837564512  1.0000
  C   C26       1.0  0.7838053953455457  0.9190276746347835  0.5622729285919305  1.0000
  C   C27       1.0  0.3888748930692287  0.48784495891563756  0.9026746794023737  1.0000
  C   C28       1.0  0.6111311456060803  0.5121522010004612  0.09732334585014256  1.0000
  C   C29       1.0  0.9668057460888945  0.17918843423241526  0.10514601428314312  1.0000
  C   C30       1.0  0.0331959089719263  0.8208123501571195  0.89485756538712  1.0000
  C   C31       1.0  0.8657602327439661  0.5753820482037851  0.25356821941270613  1.0000
  C   C32       1.0  0.1342517085663957  0.4246260365983901  0.7464298372266994  1.0000
  C   C33       1.0  0.6299771792051487  0.8409351333252817  0.2947498261742182  1.0000
  C   C34       1.0  0.3700031840339406  0.1590582199007287  0.7052508924287721  1.0000
  C   C35       1.0  0.4242896385336649  0.9550994593093021  0.37099940612969834  1.0000
  C   C36       1.0  0.5757082359220149  0.04490036610202709  0.6289999738044186  1.0000
  C   C37       1.0  0.389241812160641  0.872237260475636  0.4868270488033203  1.0000
  C   C38       1.0  0.6107489470386653  0.12776343194449416  0.513174904682316  1.0000
  C   C39       1.0  0.5892008069027594  0.3646223930647778  0.8222434483386536  1.0000
  C   C40       1.0  0.4108089551519427  0.6353748298257001  0.17776075056998047  1.0000
  C   C41       1.0  0.8304452650640997  0.48990336128773027  0.369777493731938  1.0000
  C   C42       1.0  0.16956922486749448  0.5101056647329899  0.6302232679177064  1.0000
  C   C43       1.0  0.43633024760390526  0.5817993424650182  0.7894580871408934  1.0000
  C   C44       1.0  0.5636732424501787  0.41819687623254265  0.21053723310139097  1.0000
  C   C45       1.0  0.9875431921892994  0.5590049025045616  0.16145220445785213  1.0000
  C   C46       1.0  0.012464629902289888  0.44099860052258316  0.8385427902118181  1.0000
  C   C47       1.0  0.19949478539280815  0.0898451685701289  0.05499310942536083  1.0000
  C   C48       1.0  0.8004993633130653  0.9101537172537348  0.9450054497293577  1.0000
  N   N1        1.0  0.20279972446982697  0.4286180055076656  0.10222144185718209  1.0000
  N   N2        1.0  0.797201651573502  0.57138092870197  0.8977759487827868  1.0000
  N   N3        1.0  0.1365508498632906  0.2705455402584889  0.3132907750519109  1.0000
  N   N4        1.0  0.8634468850836469  0.7294533600628909  0.6867055103670552  1.0000
  N   N5        1.0  0.11832736444368659  0.1631596060477563  0.10607545214315912  1.0000
  N   N6        1.0  0.881662531183423  0.8368455777179876  0.8939202054518205  1.0000
  N   N7        1.0  0.28487795466131155  0.0268657621480486  0.0125900848669076  1.0000
  N   N8        1.0  0.7151065713084603  0.9731330640091399  0.9874108770466635  1.0000
  N   N9        1.0  0.8310051021711189  0.20157202562148066  0.1086840405271587  1.0000
  N   N10       1.0  0.1689770695415049  0.7984268037978522  0.8913206898480864  1.0000
  O   O1        1.0  0.4404682567035891  0.2901026914393157  0.024632875950679464  1.0000
  O   O2        1.0  0.5595353567749939  0.7098935708874167  0.9753700469442917  1.0000
  O   O3        1.0  0.38281663278363004  0.1387848190531145  0.2329477331175695  1.0000
  O   O4        1.0  0.6171739433950236  0.8612140571209183  0.7670539445120853  1.0000
  O   O5        1.0  0.5376241849123673  0.9443446217857029  0.27388026622295303  1.0000
  O   O6        1.0  0.462364992345968  0.05565330184334269  0.7261151326872621  1.0000
  O   O7        1.0  0.6596157758113677  0.2570882508677812  0.84902907699729  1.0000
  O   O8        1.0  0.34039279540093753  0.7429089688060843  0.15097616140299405  1.0000
