data_image0
_chemical_formula_structural       Cd2H24C26N4Cl4
_chemical_formula_sum              "Cd2 H24 C26 N4 Cl4"
_cell_length_a       6.991481523523747
_cell_length_b       9.656544581568296
_cell_length_c       10.53145871653132
_cell_angle_alpha    98.29647507395276
_cell_angle_beta     105.75497064915889
_cell_angle_gamma    94.47437417968449

_space_group_name_H-M_alt    "P 1"
_space_group_IT_number       1

loop_
  _space_group_symop_operation_xyz
  'x, y, z'

loop_
  _atom_site_type_symbol
  _atom_site_label
  _atom_site_symmetry_multiplicity
  _atom_site_fract_x
  _atom_site_fract_y
  _atom_site_fract_z
  _atom_site_occupancy
  Cd  Cd1       1.0  0.7691688905304235  0.5838954575549876  0.5324913771380296  1.0000
  Cd  Cd2       1.0  0.2308243240039829  0.4161086894786408  0.4675029181081812  1.0000
  H   H1        1.0  0.5689489967530008  0.72135146668046  0.2670618724001912  1.0000
  H   H2        1.0  0.4310502363322968  0.2786611347015224  0.7329412314353476  1.0000
  H   H3        1.0  0.5434408444114426  0.9584315849784134  0.19661045305894478  1.0000
  H   H4        1.0  0.45654841531946033  0.0415831403448266  0.8033959282919626  1.0000
  H   H5        1.0  0.6739639331956583  0.177549257639356  0.3744043995615485  1.0000
  H   H6        1.0  0.3260348542098442  0.8224602042500707  0.6256067613357459  1.0000
  H   H7        1.0  0.8252817912393272  0.14724750647272336  0.6094213996115344  1.0000
  H   H8        1.0  0.17472307465236978  0.8527545592491491  0.39058511093479337  1.0000
  H   H9        1.0  0.9092455320415669  0.9925156752188328  0.7766558929181854  1.0000
  H   H10       1.0  0.09075187722251601  0.007477947078477599  0.2233453566458081  1.0000
  H   H11       1.0  0.2313823065042939  0.6466090471923637  0.7902580924253186  1.0000
  H   H12       1.0  0.7686215646652529  0.3533877298109687  0.2097418541136591  1.0000
  H   H13       1.0  0.3811739850642085  0.5778178524725277  0.011109151298647606  1.0000
  H   H14       1.0  0.6188298981016447  0.4221789272084634  0.9888917472614552  1.0000
  H   H15       1.0  0.21690282702703462  0.6274764443722064  0.19368812636877664  1.0000
  H   H16       1.0  0.7830984171237106  0.37252243676307734  0.8063097359251972  1.0000
  H   H17       1.0  0.9208620369428361  0.7548483553045103  0.15778243249878435  1.0000
  H   H18       1.0  0.07913994307810411  0.24514630481792926  0.8422140567470748  1.0000
  H   H19       1.0  0.6512247036309234  0.8371034534049215  0.014394262089972203  1.0000
  H   H20       1.0  0.3487737746121554  0.1628880489075755  0.9856030991147834  1.0000
  H   H21       1.0  0.6224389119140099  0.8236652439922026  0.8406744316313421  1.0000
  H   H22       1.0  0.377558252819668  0.17632731038627716  0.15932188745090767  1.0000
  H   H23       1.0  0.7649329345420173  0.9748955692894018  0.9545429659845724  1.0000
  H   H24       1.0  0.23506441474052056  0.025098039619585698  0.0454535234738032  1.0000
  C   C1        1.0  0.6246866553607618  0.8188159563929247  0.3392186761879756  1.0000
  C   C2        1.0  0.3753107465574814  0.18119454149649533  0.6607857304600699  1.0000
  C   C3        1.0  0.6111825552483339  0.951347386780441  0.30118281172339323  1.0000
  C   C4        1.0  0.38882280663363405  0.0486662682795327  0.6988215043982606  1.0000
  C   C5        1.0  0.6826240221543645  0.07177467203737112  0.3989980768389074  1.0000
  C   C6        1.0  0.3173747172658994  0.9282347791413984  0.6010092759738868  1.0000
  C   C7        1.0  0.7660268720224083  0.055169756982074596  0.5312169734562673  1.0000
  C   C8        1.0  0.23397833897438866  0.9448344124454878  0.4687879738000476  1.0000
  C   C9        1.0  0.7773456255110462  0.9191750006083552  0.5610411863150517  1.0000
  C   C10       1.0  0.22265935295165212  0.08082810357804249  0.4389597824806444  1.0000
  C   C11       1.0  0.8736845930241588  0.8984854474162559  0.6981466596289465  1.0000
  C   C12       1.0  0.12632149040646823  0.1015155448183265  0.3018532768708866  1.0000
  C   C13       1.0  0.002439054283321657  0.7505496763648764  0.8534907503378762  1.0000
  C   C14       1.0  0.9975564278432361  0.24944182101855017  0.14650418586963107  1.0000
  C   C15       1.0  0.16935894560923262  0.6755512040585073  0.8733977420920311  1.0000
  C   C16       1.0  0.8306434275020537  0.324445570480286  0.12660099194832236  1.0000
  C   C17       1.0  0.2519122201208078  0.6363787889374352  0.9968715738850805  1.0000
  C   C18       1.0  0.7480910614132341  0.36361481644136256  0.0031250054621594038  1.0000
  C   C19       1.0  0.16242019097124683  0.6657016620652385  0.0995365120849314  1.0000
  C   C20       1.0  0.8375804995329191  0.33429405547850893  0.9004608390806793  1.0000
  C   C21       1.0  0.9948745471710652  0.7383800713446718  0.07881584481917508  1.0000
  C   C22       1.0  0.005130970616676189  0.2616177546207012  0.9211826285311702  1.0000
  C   C23       1.0  0.9126649485208631  0.784863077696656  0.9577485415625661  1.0000
  C   C24       1.0  0.08733371427107534  0.21512947914635563  0.042248990018315204  1.0000
  C   C25       1.0  0.7285221314659653  0.8595826925950901  0.9404766459274542  1.0000
  C   C26       1.0  0.27147317810803884  0.14040775293548793  0.059519071925059584  1.0000
  N   N1        1.0  0.7050736325755623  0.8034385456442763  0.466057739497522  1.0000
  N   N2        1.0  0.29492411212255126  0.19656561681594545  0.5339430493079291  1.0000
  N   N3        1.0  0.9194460048726258  0.7768948224514958  0.7227794460077349  1.0000
  N   N4        1.0  0.0805483842823165  0.2230987895614119  0.2772174745167675  1.0000
  Cl  Cl1       1.0  0.4921088717102363  0.44248978806663086  0.3257143558563911  1.0000
  Cl  Cl2       1.0  0.507891842786549  0.5575059348324416  0.6742848993514697  1.0000
  Cl  Cl3       1.0  0.9736422880518704  0.3928048025679445  0.6169990709698183  1.0000
  Cl  Cl4       1.0  0.026361906555393905  0.607202511920633  0.3829994627894919  1.0000
