data_image0
_chemical_formula_structural       Fe4H24C48O16
_chemical_formula_sum              "Fe4 H24 C48 O16"
_cell_length_a       4.660779002151675
_cell_length_b       13.58548465020247
_cell_length_c       15.018297287006622
_cell_angle_alpha    89.999909597335
_cell_angle_beta     90.000063261288
_cell_angle_gamma    90.00563562191977

_space_group_name_H-M_alt    "P 1"
_space_group_IT_number       1

loop_
  _space_group_symop_operation_xyz
  'x, y, z'

loop_
  _atom_site_type_symbol
  _atom_site_label
  _atom_site_symmetry_multiplicity
  _atom_site_fract_x
  _atom_site_fract_y
  _atom_site_fract_z
  _atom_site_occupancy
  Fe  Fe1       1.0  0.7514882933789622  0.4992137099843604  0.5489315124750364  1.0000
  Fe  Fe2       1.0  0.7485110817480629  0.0007878024116295007  0.04893111471866971  1.0000
  Fe  Fe3       1.0  0.24851202068946068  0.5007874622219575  0.45106946080361615  1.0000
  Fe  Fe4       1.0  0.251489212013503  0.9992126337466586  0.9510705244149592  1.0000
  H   H1        1.0  0.1748442644596935  0.37700584082948296  0.7983405953922402  1.0000
  H   H2        1.0  0.3251589980752598  0.12299275071265471  0.2983413810846116  1.0000
  H   H3        1.0  0.8251560089894312  0.6229938592836533  0.20165838032413325  1.0000
  H   H4        1.0  0.674834859281262  0.8770077061302147  0.7016595921933872  1.0000
  H   H5        1.0  0.42409286064512497  0.2673594566454653  0.9071193625635061  1.0000
  H   H6        1.0  0.07591080735438992  0.23264041900799978  0.40711990003894993  1.0000
  H   H7        1.0  0.5759052876473447  0.7326409864080715  0.0928816107152812  1.0000
  H   H8        1.0  0.9240873612438205  0.7673607600941352  0.5928797415304247  1.0000
  H   H9        1.0  0.932755220081894  0.0330471073000709  0.7280027802566382  1.0000
  H   H10       1.0  0.5672403022631015  0.4669482210450582  0.22800497466152345  1.0000
  H   H11       1.0  0.06723645118959351  0.9669518843431392  0.27199752716757797  1.0000
  H   H12       1.0  0.4327599914917713  0.5330522151166831  0.7719926693454369  1.0000
  H   H13       1.0  0.9375961595622259  0.992879234999876  0.5687543433218352  1.0000
  H   H14       1.0  0.5623964084128872  0.5071225531932981  0.0687571982993376  1.0000
  H   H15       1.0  0.062402009039331595  0.007121944100539697  0.43124729581087  1.0000
  H   H16       1.0  0.4375995131741418  0.49287495256797337  0.9312404457089374  1.0000
  H   H17       1.0  0.6828614353321926  0.101276848289956  0.4591146805930678  1.0000
  H   H18       1.0  0.8171329603966767  0.39872692012995253  0.9591145810144399  1.0000
  H   H19       1.0  0.3171366926511894  0.8987228587167024  0.540885626831802  1.0000
  H   H20       1.0  0.18286298149720892  0.6012713216793487  0.040882397138865705  1.0000
  H   H21       1.0  0.4260678170789234  0.2485207420911237  0.5113687872960072  1.0000
  H   H22       1.0  0.07392598229542809  0.2514813171459096  0.0113672993545393  1.0000
  H   H23       1.0  0.573928185743341  0.7514797078582305  0.4886308542734952  1.0000
  H   H24       1.0  0.9260763960057332  0.7485169039776594  0.9886316763632836  1.0000
  C   C1        1.0  0.3489358482192415  0.30474173950467787  0.68399282932765  1.0000
  C   C2        1.0  0.1510628007756836  0.1952592715770507  0.18399344786964633  1.0000
  C   C3        1.0  0.6510644658469502  0.6952594327027909  0.31600681224211513  1.0000
  C   C4        1.0  0.8489396790686925  0.8047426297820552  0.8160075254088711  1.0000
  C   C5        1.0  0.3120175309297792  0.3175633992026903  0.7747967157364999  1.0000
  C   C6        1.0  0.18797925685304048  0.18243672580362613  0.274799363682881  1.0000
  C   C7        1.0  0.6879849286021483  0.6824377661112633  0.2252015941247691  1.0000
  C   C8        1.0  0.8120167459714551  0.8175637241445769  0.7252016095955086  1.0000
  C   C9        1.0  0.45272655205095447  0.2561610320655348  0.8358822721963932  1.0000
  C   C10       1.0  0.0472768770182483  0.24383896669372263  0.3358841148788089  1.0000
  C   C11       1.0  0.5472780326443356  0.743839390304572  0.16411803522913  1.0000
  C   C12       1.0  0.9527169600291858  0.756160754102275  0.6641161925452723  1.0000
  C   C13       1.0  0.6308935631102058  0.18088851785775967  0.8071001344494989  1.0000
  C   C14       1.0  0.869110867322881  0.3191088543625966  0.3070999877258061  1.0000
  C   C15       1.0  0.36910885580913094  0.8191111753595594  0.19290017297615245  1.0000
  C   C16       1.0  0.13089155159422458  0.6808908388558733  0.692898987990965  1.0000
  C   C17       1.0  0.8182542615560564  0.07955318005754458  0.6811512097352976  1.0000
  C   C18       1.0  0.6817368736347333  0.4204444511847639  0.18115351259906737  1.0000
  C   C19       1.0  0.18173743002228088  0.9204465476336947  0.3188484318339491  1.0000
  C   C20       1.0  0.3182633795053036  0.5795545128815007  0.8188447972633883  1.0000
  C   C21       1.0  0.8235995506264969  0.0580334908549673  0.5916250985517308  1.0000
  C   C22       1.0  0.6763870136615182  0.44196504493687166  0.09162736848137602  1.0000
  C   C23       1.0  0.1763964115820542  0.9419654869983276  0.4083758747277174  1.0000
  C   C24       1.0  0.32360678276438654  0.5580332037670955  0.9083696096715386  1.0000
  C   C25       1.0  0.6804606318807558  0.1190881247717783  0.5299455997375304  1.0000
  C   C26       1.0  0.8195343480160915  0.3809119621280601  0.029946011894367103  1.0000
  C   C27       1.0  0.3195353303277956  0.8809108530815238  0.4700553735419178  1.0000
  C   C28       1.0  0.1804615735720532  0.6190855436326358  0.9700522979683515  1.0000
  C   C29       1.0  0.5339247175855562  0.20104153171715208  0.5589907509073557  1.0000
  C   C30       1.0  0.9660682345670113  0.2989592479326006  0.058989336622680404  1.0000
  C   C31       1.0  0.4660669739961278  0.7989581959723607  0.44101088822522183  1.0000
  C   C32       1.0  0.0339363298169602  0.7010404383917787  0.9410089732400311  1.0000
  C   C33       1.0  0.5176171978706776  0.22450297882866718  0.6510837275913204  1.0000
  C   C34       1.0  0.9823717316164107  0.27549618336573906  0.15108368471627645  1.0000
  C   C35       1.0  0.4823787846458458  0.7754967350720818  0.348917245687602  1.0000
  C   C36       1.0  0.017632893692585593  0.7245057111004198  0.8489152909993083  1.0000
  C   C37       1.0  0.6626560604371435  0.16177494297967598  0.7139084975996257  1.0000
  C   C38       1.0  0.8373372894698505  0.3382211526669466  0.21390764598449155  1.0000
  C   C39       1.0  0.3373377969182556  0.8382255138637688  0.2860918098239296  1.0000
  C   C40       1.0  0.1626672749152362  0.6617785336568573  0.7860913297326705  1.0000
  C   C41       1.0  0.214576057585731  0.3775842417533113  0.6227454631485686  1.0000
  C   C42       1.0  0.28543086631498943  0.12241316735573088  0.12274623528373503  1.0000
  C   C43       1.0  0.7854242158667546  0.6224154583580983  0.37725551013113556  1.0000
  C   C44       1.0  0.7145758638482747  0.8775872481197096  0.8772540721421864  1.0000
  C   C45       1.0  0.7734177958170321  0.11894074001406099  0.8760234642992233  1.0000
  C   C46       1.0  0.7265869267117752  0.3810587212403433  0.3760231767201461  1.0000
  C   C47       1.0  0.226588934346232  0.8810596754613798  0.12397684312669101  1.0000
  C   C48       1.0  0.2734112621944078  0.6189431939092457  0.6239764648486955  1.0000
  O   O1        1.0  0.3644849263734642  0.4052073369887453  0.5546924827415298  1.0000
  O   O2        1.0  0.13552178958122602  0.0947909257726991  0.054692574508536  1.0000
  O   O3        1.0  0.6355131813041837  0.5947916339693081  0.44530915639275304  1.0000
  O   O4        1.0  0.8644849405831537  0.9052094897021589  0.9453083987718218  1.0000
  O   O5        1.0  0.9661818794389561  0.41067305781361796  0.6397122125483039  1.0000
  O   O6        1.0  0.5338263414353008  0.0893267980235635  0.1397169363310766  1.0000
  O   O7        1.0  0.0338205394781497  0.589326635404852  0.3602867631684674  1.0000
  O   O8        1.0  0.46618038873019435  0.910673617450726  0.8602847028037248  1.0000
  O   O9        1.0  0.028083864622708204  0.08881154834793387  0.8643495908846435  1.0000
  O   O10       1.0  0.4719218257007753  0.4111891303701114  0.3643500146279735  1.0000
  O   O11       1.0  0.9719228858485349  0.9111896031749539  0.13565071654074498  1.0000
  O   O12       1.0  0.5280784883654164  0.5888120418373576  0.6356496269417917  1.0000
  O   O13       1.0  0.6256205355096752  0.09964880523505569  0.946862374085214  1.0000
  O   O14       1.0  0.8743844652332343  0.40035200569484175  0.4468627781078496  1.0000
  O   O15       1.0  0.3743797379428031  0.9003508948763609  0.05313859919449021  1.0000
  O   O16       1.0  0.12562016007800028  0.5996498887701661  0.5531375293166151  1.0000
