data_image0
_chemical_formula_structural       Sm4H56C44N4O32
_chemical_formula_sum              "Sm4 H56 C44 N4 O32"
_cell_length_a       8.445579545623355
_cell_length_b       11.813878125483797
_cell_length_c       13.413569021001145
_cell_angle_alpha    90.00003654413369
_cell_angle_beta     89.99996630356935
_cell_angle_gamma    95.76307201980458

_space_group_name_H-M_alt    "P 1"
_space_group_IT_number       1

loop_
  _space_group_symop_operation_xyz
  'x, y, z'

loop_
  _atom_site_type_symbol
  _atom_site_label
  _atom_site_symmetry_multiplicity
  _atom_site_fract_x
  _atom_site_fract_y
  _atom_site_fract_z
  _atom_site_occupancy
  Sm  Sm1       1.0  0.006838885580563757  0.8348787715511181  0.40437955913292  1.0000
  Sm  Sm2       1.0  0.49316104050714654  0.16512213514526045  0.904379689991579  1.0000
  Sm  Sm3       1.0  0.9931609348566749  0.1651214442989044  0.5956198633176798  1.0000
  Sm  Sm4       1.0  0.5068387799297795  0.8348780807050105  0.09562047797275852  1.0000
  H   H1        1.0  0.7996024401419104  0.026250433523657093  0.38625127273274984  1.0000
  H   H2        1.0  0.7003982145799552  0.9737492797153633  0.8862519664331074  1.0000
  H   H3        1.0  0.20039843740259036  0.9737489267312894  0.6137481497174094  1.0000
  H   H4        1.0  0.29960278920833616  0.026250931288181793  0.11374820153100983  1.0000
  H   H5        1.0  0.7792602879369709  0.9727859257844212  0.2755688449366644  1.0000
  H   H6        1.0  0.7207394023786974  0.027214569517560995  0.7755697450932362  1.0000
  H   H7        1.0  0.22074084209573638  0.027215135967232098  0.7244305775139352  1.0000
  H   H8        1.0  0.27926041805822877  0.9727856463327099  0.22443042287110165  1.0000
  H   H9        1.0  0.9395023055253091  0.7622781872658493  0.18986822414770194  1.0000
  H   H10       1.0  0.5604973303243312  0.23772140035214304  0.6898685565349681  1.0000
  H   H11       1.0  0.060497388667506896  0.2377211778360717  0.8101319438164227  1.0000
  H   H12       1.0  0.439502490112595  0.7622788154981347  0.3101316114293696  1.0000
  H   H13       1.0  0.1266518775771175  0.7502999804795749  0.20037937000996922  1.0000
  H   H14       1.0  0.3733480931254221  0.24969993994012898  0.7003788473655705  1.0000
  H   H15       1.0  0.8733480691042245  0.24970108611879735  0.7996200524408437  1.0000
  H   H16       1.0  0.6266517273115042  0.7503002759101416  0.2996213205987672  1.0000
  H   H17       1.0  0.6491307028296446  0.45809316000078565  0.5574966733937644  1.0000
  H   H18       1.0  0.8508714105891072  0.5419063299825808  0.05749774122310211  1.0000
  H   H19       1.0  0.3508680605000193  0.5419079114445678  0.4425034945710138  1.0000
  H   H20       1.0  0.1491294669547685  0.4580930302728632  0.9425031722545402  1.0000
  H   H21       1.0  0.8012246739351453  0.4272222573000874  0.7163872342419071  1.0000
  H   H22       1.0  0.6987762492988521  0.5727781938377703  0.21638837591905266  1.0000
  H   H23       1.0  0.19877396315072815  0.5727779633966675  0.28361218820891315  1.0000
  H   H24       1.0  0.30122462824471086  0.42722116641792235  0.7836132830723346  1.0000
  H   H25       1.0  0.05387042733015329  0.5493803943927345  0.7476937658441187  1.0000
  H   H26       1.0  0.4461317442026099  0.45061869701911655  0.24769474701834332  1.0000
  H   H27       1.0  0.9461280835116169  0.4506189755556704  0.2523056566064881  1.0000
  H   H28       1.0  0.5538701904479026  0.5493798076417418  0.7523076574863411  1.0000
  H   H29       1.0  0.1506598216469683  0.6951461972609678  0.6193521075166402  1.0000
  H   H30       1.0  0.3493416527585538  0.3048553659782555  0.11935229729086672  1.0000
  H   H31       1.0  0.849338941682383  0.30485487418463453  0.38064880596187584  1.0000
  H   H32       1.0  0.6506584201662661  0.695146551368964  0.8806486161876493  1.0000
  H   H33       1.0  0.27852433290156137  0.26348031064427596  0.35943008834085793  1.0000
  H   H34       1.0  0.2214744474819739  0.736520571036415  0.8594298954867341  1.0000
  H   H35       1.0  0.7214766708870428  0.7365199003590205  0.6405693341095217  1.0000
  H   H36       1.0  0.7785254991990553  0.2634804955622058  0.14057027247781662  1.0000
  H   H37       1.0  0.3120666546149734  0.17826827967979136  0.2532323715165107  1.0000
  H   H38       1.0  0.18793458141627886  0.8217325217547042  0.7532322389733751  1.0000
  H   H39       1.0  0.6879343491736307  0.8217319313235049  0.746767050933869  1.0000
  H   H40       1.0  0.8120664223720127  0.17826768924884104  0.2467679289907423  1.0000
  H   H41       1.0  0.5224581202757576  0.08699199431803349  0.3471059058448205  1.0000
  H   H42       1.0  0.9775426934764581  0.9130085436627055  0.8471057169471125  1.0000
  H   H43       1.0  0.4775428835125338  0.9130082166855117  0.6528942621192968  1.0000
  H   H44       1.0  0.022457126960773597  0.0869916721873238  0.15289370550348744  1.0000
  H   H45       1.0  0.5666801464442698  0.23506044008253466  0.3292233011331264  1.0000
  H   H46       1.0  0.933320682285405  0.7649400860178229  0.8292230455231934  1.0000
  H   H47       1.0  0.43332073110023117  0.7649389201724118  0.6707761213170329  1.0000
  H   H48       1.0  0.0666801952590959  0.23505927423712336  0.1707763769269661  1.0000
  H   H49       1.0  0.47302113003704693  0.2726103508909857  0.5029690336195785  1.0000
  H   H50       1.0  0.026979132249159873  0.7273902891268091  0.0029680894068917015  1.0000
  H   H51       1.0  0.5269786904001919  0.7273898649590362  0.49703038883102124  1.0000
  H   H52       1.0  0.9730218715391317  0.27260992187673583  0.9970320785572258  1.0000
  H   H53       1.0  0.4301284782494363  0.1265105459982934  0.5244151943115085  1.0000
  H   H54       1.0  0.069871639830275  0.8734892575192459  0.024415061713085606  1.0000
  H   H55       1.0  0.5698714684319057  0.8734905206000787  0.4755842281393044  1.0000
  H   H56       1.0  0.9301280543628606  0.12651010758243328  0.9755843607373013  1.0000
  C   C1        1.0  0.7296587510212192  0.6137738504691724  0.4150812124980305  1.0000
  C   C2        1.0  0.7703420057989375  0.38622673267108343  0.9150808047896037  1.0000
  C   C3        1.0  0.2703410694160127  0.3862263653808497  0.5849182099525692  1.0000
  C   C4        1.0  0.22965768839388553  0.6137726324308446  0.08491936317452092  1.0000
  C   C5        1.0  0.822531027297721  0.5910469296458557  0.507802969177817  1.0000
  C   C6        1.0  0.6774700706343281  0.4089533829184262  0.0078040267805761015  1.0000
  C   C7        1.0  0.17746773603225557  0.4089541417992491  0.4921964532732162  1.0000
  C   C8        1.0  0.32253093315334513  0.5910468280856092  0.9921976322110171  1.0000
  C   C9        1.0  0.7619361785098206  0.5069764432266339  0.5744377203759187  1.0000
  C   C10       1.0  0.7380647373690365  0.49302306285804315  0.07443805715722362  1.0000
  C   C11       1.0  0.2380612752246805  0.4930237823168467  0.42556170207512173  1.0000
  C   C12       1.0  0.2619362664189424  0.5069771481457509  0.9255628563206387  1.0000
  C   C13       1.0  0.8450135325333079  0.49128533763072807  0.6621317361920661  1.0000
  C   C14       1.0  0.6549883670050889  0.5087133711189081  0.1621328581661388  1.0000
  C   C15       1.0  0.1549839212008806  0.5087148879130082  0.33786843177271214  1.0000
  C   C16       1.0  0.34501238429405834  0.49128513838868304  0.837869546338766  1.0000
  C   C17       1.0  0.9867914712605526  0.5594988175706987  0.679561840231891  1.0000
  C   C18       1.0  0.513209482815931  0.4405016091023554  0.17956372209664553  1.0000
  C   C19       1.0  0.013208349176373693  0.4405013982795792  0.32043832773245384  1.0000
  C   C20       1.0  0.4867902113762668  0.55949775600007  0.8204379368949548  1.0000
  C   C21       1.0  0.04020480382268937  0.6405821589300726  0.6085205435975425  1.0000
  C   C22       1.0  0.45979642716620356  0.3594176956167131  0.10852146848279892  1.0000
  C   C23       1.0  0.9597938332628715  0.35941806176693086  0.3914796243670224  1.0000
  C   C24       1.0  0.5402033932704099  0.6405825202338064  0.8914794449952766  1.0000
  C   C25       1.0  0.2018688024067998  0.08569252875365406  0.3756837432134291  1.0000
  C   C26       1.0  0.29813207857780094  0.914306652535316  0.8756843672213037  1.0000
  C   C27       1.0  0.7981322013818043  0.9143076822496424  0.6243156792369433  1.0000
  C   C28       1.0  0.701867615615015  0.08569271256661176  0.12431580074281362  1.0000
  C   C29       1.0  0.3160886585174012  0.18163391100968337  0.3349846628668089  1.0000
  C   C30       1.0  0.18391132569153967  0.818366949583911  0.8349845299284768  1.0000
  C   C31       1.0  0.6839123452708904  0.8183662999938617  0.6650155050973086  1.0000
  C   C32       1.0  0.8160884947453865  0.1816332662663598  0.16501563803586095  1.0000
  C   C33       1.0  0.4878184203926991  0.1706574865693398  0.36939456003806737  1.0000
  C   C34       1.0  0.012182592103748344  0.8293425412895127  0.8693944970714116  1.0000
  C   C35       1.0  0.5121824571517947  0.8293418736856069  0.6306048624120921  1.0000
  C   C36       1.0  0.9878172283331779  0.17065767456075778  0.1306056708929262  1.0000
  C   C37       1.0  0.5086557633760763  0.18909060659878213  0.48146615076377236  1.0000
  C   C38       1.0  0.9913449378441757  0.8109100206443  0.9814651538934032  1.0000
  C   C39       1.0  0.4913453666563186  0.810910455153113  0.5185340172005581  1.0000
  C   C40       1.0  0.008654882593063502  0.1890901952057291  0.018534268557196802  1.0000
  C   C41       1.0  0.6753814980847463  0.18371472364938762  0.5200211068283522  1.0000
  C   C42       1.0  0.8246182800194929  0.8162847511297426  0.0200201019399984  1.0000
  C   C43       1.0  0.3246183223521796  0.8162854922008902  0.4799790611359854  1.0000
  C   C44       1.0  0.17538141417364267  0.1837146139719294  0.9799793205103884  1.0000
  N   N1        1.0  0.9597875640497759  0.6576683336547119  0.5241289677625431  1.0000
  N   N2        1.0  0.5402135202091856  0.3423319897553012  0.0241285479281075  1.0000
  N   N3        1.0  0.04021119927988789  0.34233273779064166  0.4758712002022349  1.0000
  N   N4        1.0  0.4597851168760627  0.6576682309419438  0.9758723655501955  1.0000
  O   O1        1.0  0.8284879066020635  0.9635532484801742  0.34292152647429935  1.0000
  O   O2        1.0  0.6715127844101828  0.036446435972685286  0.8429224501060091  1.0000
  O   O3        1.0  0.171513097186228  0.03644696252337099  0.6570786414898182  1.0000
  O   O4        1.0  0.3284869097823274  0.9635529291294912  0.15707846337185322  1.0000
  O   O5        1.0  0.031552713744311206  0.7749207662040618  0.2361506348357452  1.0000
  O   O6        1.0  0.4684484103493816  0.22507917313389209  0.7361508085443589  1.0000
  O   O7        1.0  0.9684469804485116  0.22507859889785917  0.7638495331283793  1.0000
  O   O8        1.0  0.5315502267361794  0.7749210475631115  0.2638493594201989  1.0000
  O   O9        1.0  0.7774019950579074  0.7077248397506393  0.36805869640486594  1.0000
  O   O10       1.0  0.7225976177939089  0.29227571699703947  0.8680589991946095  1.0000
  O   O11       1.0  0.2225992612192158  0.2922770727491083  0.6319399805322024  1.0000
  O   O12       1.0  0.277401019291652  0.707724503699964  0.13194116876994852  1.0000
  O   O13       1.0  0.6138661918157097  0.5463886276069372  0.3905784150171244  1.0000
  O   O14       1.0  0.8861334021748845  0.45361194410178723  0.8905787476365178  1.0000
  O   O15       1.0  0.3861337548656252  0.4536124389914349  0.6094210074336885  1.0000
  O   O16       1.0  0.11386616577321007  0.5463865702522809  0.1094229113548693  1.0000
  O   O17       1.0  0.19270314899080887  0.9895151413407245  0.3310165429757319  1.0000
  O   O18       1.0  0.3072980218928548  0.010485711769994997  0.8310166560630635  1.0000
  O   O19       1.0  0.8072966714461174  0.010485074509553296  0.6689836249886056  1.0000
  O   O20       1.0  0.6927031081398524  0.9895153499816511  0.16898276638752927  1.0000
  O   O21       1.0  0.12199525918484255  0.09985020709427767  0.4539217014123056  1.0000
  O   O22       1.0  0.3780043729205501  0.9001490310192678  0.9539230333061968  1.0000
  O   O23       1.0  0.8780057446037544  0.9001500039090186  0.5460777210380742  1.0000
  O   O24       1.0  0.6219942641650107  0.09985118967773586  0.04607713465836131  1.0000
  O   O25       1.0  0.7161147388350242  0.2300831926889018  0.6035477261317155  1.0000
  O   O26       1.0  0.7838849693121971  0.769916337581371  0.1035467103415257  1.0000
  O   O27       1.0  0.28388508160190173  0.7699170231613693  0.3964524418326222  1.0000
  O   O28       1.0  0.21611472488093844  0.2300830275203011  0.8964527121088538  1.0000
  O   O29       1.0  0.7775938481383804  0.13382648221620028  0.46997175444933964  1.0000
  O   O30       1.0  0.7224068627085387  0.8661741373908426  0.9699716340523924  1.0000
  O   O31       1.0  0.22240715564991118  0.8661737287873448  0.5300284135147777  1.0000
  O   O32       1.0  0.2775929577283875  0.1338260784594354  0.030028533911945505  1.0000
