data_image0
_chemical_formula_structural       Zn4H16C28S4O25
_chemical_formula_sum              "Zn4 H16 C28 S4 O25"
_cell_length_a       13.076291269140526
_cell_length_b       13.02369286275043
_cell_length_c       15.551116233112383
_cell_angle_alpha    68.03888728958728
_cell_angle_beta     70.7028728689669
_cell_angle_gamma    85.32948726985978

_space_group_name_H-M_alt    "P 1"
_space_group_IT_number       1

loop_
  _space_group_symop_operation_xyz
  'x, y, z'

loop_
  _atom_site_type_symbol
  _atom_site_label
  _atom_site_symmetry_multiplicity
  _atom_site_fract_x
  _atom_site_fract_y
  _atom_site_fract_z
  _atom_site_occupancy
  Zn  Zn1       1.0  0.5900047561734924  0.5591997245567554  0.5556376806951207  1.0000
  Zn  Zn2       1.0  0.5941282185101713  0.4237378485537207  0.4233440918371655  1.0000
  Zn  Zn3       1.0  0.4407690051402113  0.6235249092727386  0.4167180167706094  1.0000
  Zn  Zn4       1.0  0.3786925182450034  0.41143774028738284  0.6155659344654296  1.0000
  H   H1        1.0  0.5713567061431135  0.762893594517337  0.1144261734916298  1.0000
  H   H2        1.0  0.513572676212455  0.76805748609668  0.82205195326938  1.0000
  H   H3        1.0  0.7252913395947971  0.8985932497870193  0.8216600062693545  1.0000
  H   H4        1.0  0.512862645040805  0.4228994035154869  0.16942863066892502  1.0000
  H   H5        1.0  0.4305741495717825  0.0299742651474517  0.9381955896967256  1.0000
  H   H6        1.0  0.47293678294117575  0.1754993114035059  0.24973986616651433  1.0000
  H   H7        1.0  0.4870628054818765  0.626455512813358  0.7642151406024524  1.0000
  H   H8        1.0  0.5581002440906958  0.11735490734336908  0.4515586120490696  1.0000
  H   H9        1.0  0.4562541555757705  0.8847314290808157  0.6030474657028647  1.0000
  H   H10       1.0  0.3951284827187749  0.04720509042174831  0.6618962913761806  1.0000
  H   H11       1.0  0.906006467744639  0.5321582021997531  0.5292339315674538  1.0000
  H   H12       1.0  0.3638382590787686  0.1871306269576891  0.07669349354884496  1.0000
  H   H13       1.0  0.7293729245845741  0.9056619766171536  0.2811933848843181  1.0000
  H   H14       1.0  0.1335844493645268  0.5299381634554335  0.37857948613058306  1.0000
  H   H15       1.0  0.958236821130761  0.4867669358105218  0.33847330906290557  1.0000
  H   H16       1.0  0.04966341232722731  0.5159813117442413  0.5936691515249706  1.0000
  C   C1        1.0  0.4646457164521324  0.21776747885949993  0.5708912447585844  1.0000
  C   C2        1.0  0.5142467923659879  0.5087299005897562  0.12166611329433863  1.0000
  C   C3        1.0  0.5518504846674973  0.7010540020412391  0.09004057056778689  1.0000
  C   C4        1.0  0.5148290682121298  0.7859619902970747  0.4744319670708849  1.0000
  C   C5        1.0  0.4500055000031864  0.40923326501453516  0.8637567926067434  1.0000
  C   C6        1.0  0.5315190816123874  0.9058521608817854  0.456413460736286  1.0000
  C   C7        1.0  0.496770308340551  0.945464032895586  0.5298282733098105  1.0000
  C   C8        1.0  0.4519656058072457  0.0978365891863717  0.5913561323050018  1.0000
  C   C9        1.0  0.5055865347145243  0.05863933123152519  0.5203608726219073  1.0000
  C   C10       1.0  0.10846669997663132  0.5259938341382621  0.5219174551168704  1.0000
  C   C11       1.0  0.0745062654905411  0.5265639504376126  0.44850213913803566  1.0000
  C   C12       1.0  0.39736539914316893  0.2699253188715005  0.027017956378550388  1.0000
  C   C13       1.0  0.9128743411061608  0.5041979440967808  0.40388048688303246  1.0000
  C   C14       1.0  0.9602820666635808  0.5213438113173081  0.4628879682915609  1.0000
  C   C15       1.0  0.7933128010062022  0.5024034780127238  0.4311360930619513  1.0000
  C   C16       1.0  0.22313720789305344  0.5287658650430628  0.5160784289864822  1.0000
  C   C17       1.0  0.5471064597762592  0.5595324236218387  0.2511936590167565  1.0000
  C   C18       1.0  0.4659694339965412  0.44580131875350987  0.7559864943639454  1.0000
  C   C19       1.0  0.5420918128887849  0.7302797454290796  0.9983380001265373  1.0000
  C   C20       1.0  0.5391110535673818  0.5887493919306336  0.1515081477502349  1.0000
  C   C21       1.0  0.41864149352193897  0.30024849272035686  0.9261061992460498  1.0000
  C   C22       1.0  0.41512843560863644  0.3448237203336646  0.0655504104290898  1.0000
  C   C23       1.0  0.4584172355467402  0.45532579256774847  0.003138952462720152  1.0000
  C   C24       1.0  0.46680296033270713  0.4877450813084038  0.9019921497814778  1.0000
  C   C25       1.0  0.4929503736347343  0.5375300794082349  0.0323484752481847  1.0000
  C   C26       1.0  0.511473108387449  0.6514957196377936  0.9665339141700428  1.0000
  C   C27       1.0  0.5032265599361664  0.6816010989389837  0.871148323953129  1.0000
  C   C28       1.0  0.486808651834302  0.6021797089530099  0.8392877301822919  1.0000
  S   S1        1.0  0.5942383947469524  0.9941288089351514  0.33216156839573335  1.0000
  S   S2        1.0  0.5669303188902575  0.8737698325376682  0.9259750894815254  1.0000
  S   S3        1.0  0.39848446848687763  0.20120849692252557  0.8775251663480148  1.0000
  S   S4        1.0  0.3575122285631949  0.2921652656480163  0.1981488274671079  1.0000
  O   O1        1.0  0.5002012511537899  0.502933415671599  0.504085912248449  1.0000
  O   O2        1.0  0.5658903592768283  0.4601708488807077  0.2976075684112232  1.0000
  O   O3        1.0  0.3840494801382663  0.4346972820991367  0.7331555490423226  1.0000
  O   O4        1.0  0.5326903453017239  0.6389401774301007  0.2830685231610487  1.0000
  O   O5        1.0  0.5598143827169224  0.48682671177312636  0.6979661442499392  1.0000
  O   O6        1.0  0.5118817387419413  0.03884017356140391  0.28686654478401147  1.0000
  O   O7        1.0  0.6759946372855696  0.06636371845583258  0.32619497435814543  1.0000
  O   O8        1.0  0.6534484392595985  0.9064781178935913  0.28362482599107625  1.0000
  O   O9        1.0  0.4700769110932086  0.9183798889464113  0.9022290435392223  1.0000
  O   O10       1.0  0.6168914465975632  0.9259180824297314  0.9698171577960863  1.0000
  O   O11       1.0  0.6542453228651015  0.8778599217704793  0.822990377411635  1.0000
  O   O12       1.0  0.7430436594594668  0.5470366645310633  0.4933628294616311  1.0000
  O   O13       1.0  0.2892866096134696  0.20479390583100357  0.8750347611482425  1.0000
  O   O14       1.0  0.48861113595292943  0.21450860137664313  0.7892530987134521  1.0000
  O   O15       1.0  0.4104825384237572  0.09172683536431243  0.9635894376383901  1.0000
  O   O16       1.0  0.3127200839910246  0.382881660056448  0.2275675622508687  1.0000
  O   O17       1.0  0.29142680260834203  0.19421945845020622  0.22699788079328442  1.0000
  O   O18       1.0  0.45943216027600897  0.2559505495150347  0.23598683589189312  1.0000
  O   O19       1.0  0.2426307589398888  0.4765585853096325  0.5964282500278274  1.0000
  O   O20       1.0  0.550974362226107  0.2681292715755106  0.5035947133270469  1.0000
  O   O21       1.0  0.46094899286946145  0.7659795857595242  0.4274496468083484  1.0000
  O   O22       1.0  0.3870629284584908  0.25867672786593227  0.6214968951975095  1.0000
  O   O23       1.0  0.556471624713531  0.7176285110350732  0.5352656442203526  1.0000
  O   O24       1.0  0.749683035504795  0.45682955183853835  0.3909319663255103  1.0000
  O   O25       1.0  0.2927894128464814  0.5833554948928636  0.43311361030038154  1.0000
