data_image0
_chemical_formula_structural       Zn16H128C132N8O60
_chemical_formula_sum              "Zn16 H128 C132 N8 O60"
_cell_length_a       16.193387306000552
_cell_length_b       17.162196938001266
_cell_length_c       18.02063645700099
_cell_angle_alpha    89.99996474017358
_cell_angle_beta     89.99998596065777
_cell_angle_gamma    90.00002635767925

_space_group_name_H-M_alt    "P 1"
_space_group_IT_number       1

loop_
  _space_group_symop_operation_xyz
  'x, y, z'

loop_
  _atom_site_type_symbol
  _atom_site_label
  _atom_site_symmetry_multiplicity
  _atom_site_fract_x
  _atom_site_fract_y
  _atom_site_fract_z
  _atom_site_occupancy
  Zn  Zn1       1.0  0.7205040073906376  0.24677442996001278  0.2379320663956719  1.0000
  Zn  Zn2       1.0  0.7794960437003623  0.7532251761188818  0.737933119773764  1.0000
  Zn  Zn3       1.0  0.27949633265958335  0.7467744155407132  0.2620670761171695  1.0000
  Zn  Zn4       1.0  0.2205035454797439  0.2532249576490812  0.7620662155699092  1.0000
  Zn  Zn5       1.0  0.7770259059453294  0.8581440985692268  0.8786850547787137  1.0000
  Zn  Zn6       1.0  0.722974106727122  0.1418554164751029  0.3786851721313837  1.0000
  Zn  Zn7       1.0  0.22297435186525413  0.35814455488299773  0.6213147740486702  1.0000
  Zn  Zn8       1.0  0.2770261822285676  0.641855492016937  0.12131514165557176  1.0000
  Zn  Zn9       1.0  0.11370397418404113  0.7321597274609175  0.17860278794502443  1.0000
  Zn  Zn10      1.0  0.38629654427333543  0.26784144773903057  0.6786024372895267  1.0000
  Zn  Zn11      1.0  0.8862963587487727  0.2321591772685068  0.32139691804498227  1.0000
  Zn  Zn12      1.0  0.6137036695604791  0.7678403748279621  0.8213974444151045  1.0000
  Zn  Zn13      1.0  0.6887287884551226  0.9196939408080455  0.7267453518572606  1.0000
  Zn  Zn14      1.0  0.8112712656895695  0.0803062551823714  0.22674548582757123  1.0000
  Zn  Zn15      1.0  0.3112714993294574  0.4196943372219337  0.7732549958489301  1.0000
  Zn  Zn16      1.0  0.18872775822027424  0.5803061940834412  0.27325486399973187  1.0000
  H   H1        1.0  0.7834549998625491  0.0655354849639664  0.0039864353070129  1.0000
  H   H2        1.0  0.7165451150844717  0.9344648551004087  0.5039862865688673  1.0000
  H   H3        1.0  0.21654586946206683  0.5655347092035187  0.4960133682499829  1.0000
  H   H4        1.0  0.2834533272852084  0.4344645126762785  0.9960134975692654  1.0000
  H   H5        1.0  0.638003701408074  0.274299513672176  0.019004727668175292  1.0000
  H   H6        1.0  0.8619951743671951  0.7256996513261883  0.5190057790162682  1.0000
  H   H7        1.0  0.3619960345105824  0.7742999761841601  0.4809949536466148  1.0000
  H   H8        1.0  0.13800316633663104  0.22570042076192462  0.9809924626061315  1.0000
  H   H9        1.0  0.6156567783482174  0.12403818161871528  0.8279301433633461  1.0000
  H   H10       1.0  0.884343248177686  0.8759607835763746  0.32793035028277717  1.0000
  H   H11       1.0  0.3843439829912896  0.6240382709697131  0.672069822545019  1.0000
  H   H12       1.0  0.11565344956855483  0.3759594123995882  0.1720676067469569  1.0000
  H   H13       1.0  0.5352042135505215  0.24229749816596785  0.8314716129264851  1.0000
  H   H14       1.0  0.9647951944726287  0.7577014647382755  0.3314724263150381  1.0000
  H   H15       1.0  0.4647959878442407  0.7422987901207989  0.6685282837347444  1.0000
  H   H16       1.0  0.035204533362794214  0.25770122624328456  0.16852726471896054  1.0000
  H   H17       1.0  0.5816200862014967  0.3209890496325869  0.8800225891872201  1.0000
  H   H18       1.0  0.9183799261054874  0.6790092991944549  0.38002345886389577  1.0000
  H   H19       1.0  0.4183795359792414  0.820990352818349  0.6199767064768054  1.0000
  H   H20       1.0  0.08162038094374681  0.17900911227115301  0.1199762782482878  1.0000
  H   H21       1.0  0.5018770229498345  0.2665717430442314  0.9223907068160456  1.0000
  H   H22       1.0  0.9981223602569927  0.7334277437322143  0.4223915270872637  1.0000
  H   H23       1.0  0.4981231902660923  0.7665725256095117  0.5776091756315223  1.0000
  H   H24       1.0  0.0018755031488311  0.23342580152981907  0.0776087330802895  1.0000
  H   H25       1.0  0.9686985784865244  0.4707399731489804  0.2678387973661387  1.0000
  H   H26       1.0  0.5313020819778984  0.5292613616153333  0.7678394815628946  1.0000
  H   H27       1.0  0.03130187063199231  0.9707387048648359  0.23216132384254  1.0000
  H   H28       1.0  0.46869863320628724  0.0292618530188378  0.7321616496807265  1.0000
  H   H29       1.0  0.7043178264763911  0.4825490157220642  0.2497911807307388  1.0000
  H   H30       1.0  0.7956822213777103  0.5174505826868414  0.7497918136870254  1.0000
  H   H31       1.0  0.2956826283932372  0.9825490160062813  0.2502094884821346  1.0000
  H   H32       1.0  0.2043178705187785  0.017450947528722296  0.7502087695531614  1.0000
  H   H33       1.0  0.851457571845593  0.68948410303085  0.21860352624575086  1.0000
  H   H34       1.0  0.648542484521407  0.3105160982254205  0.7186037578198635  1.0000
  H   H35       1.0  0.14854274030436446  0.18948325811116723  0.2813978694911654  1.0000
  H   H36       1.0  0.35145836763075516  0.8105172679278568  0.781398318573295  1.0000
  H   H37       1.0  0.6349562125658892  0.6018332704086049  0.22651506099602153  1.0000
  H   H38       1.0  0.8650444591776961  0.3981663430552587  0.7265140837836837  1.0000
  H   H39       1.0  0.36504405689946395  0.10183369004077042  0.2734858311452015  1.0000
  H   H40       1.0  0.13495643565916274  0.8981662584395879  0.7734857216087291  1.0000
  H   H41       1.0  0.6895884136227084  0.669779146876749  0.1707767151745401  1.0000
  H   H42       1.0  0.8104116557990508  0.3302216679890222  0.6707752348457772  1.0000
  H   H43       1.0  0.3104125064672587  0.16977892404185724  0.3292252470197424  1.0000
  H   H44       1.0  0.18958858841348564  0.8302209883885541  0.8292235004932278  1.0000
  H   H45       1.0  0.683810736806784  0.6838763770811414  0.2676068100070949  1.0000
  H   H46       1.0  0.8161893061846685  0.3161226271298433  0.7676053366625978  1.0000
  H   H47       1.0  0.3161889550765622  0.18387680205972157  0.2323945890131255  1.0000
  H   H48       1.0  0.1838121662343468  0.8161243383495035  0.7323939618506399  1.0000
  H   H49       1.0  0.4733772185199002  0.2986109783869537  0.2425761985002949  1.0000
  H   H50       1.0  0.026622664939651496  0.7013895727606468  0.7425762280168795  1.0000
  H   H51       1.0  0.5266243818456503  0.7986093263346631  0.25742402349866467  1.0000
  H   H52       1.0  0.9733768989973086  0.20139026713830793  0.7574231376789127  1.0000
  H   H53       1.0  0.2757057812120395  0.34805676994596985  0.3957999837698835  1.0000
  H   H54       1.0  0.22429406042490999  0.6519436821010203  0.8957999987577376  1.0000
  H   H55       1.0  0.724294608161344  0.8480564682460496  0.10420020927578118  1.0000
  H   H56       1.0  0.7757048618958464  0.15194264165077703  0.6042005057304249  1.0000
  H   H57       1.0  0.49586351066543705  0.23393445743362667  0.4720747684611197  1.0000
  H   H58       1.0  0.0041369276884637  0.7660671106330241  0.9720753199716227  1.0000
  H   H59       1.0  0.5041374406674424  0.7339329440425928  0.02792493648990299  1.0000
  H   H60       1.0  0.9958614326735998  0.2660673805390559  0.5279240078524339  1.0000
  H   H61       1.0  0.3504573112460605  0.3567509594189958  0.19522270656589305  1.0000
  H   H62       1.0  0.1495432026746215  0.6432496223553912  0.6952232980069792  1.0000
  H   H63       1.0  0.6495455525047759  0.8567487474798624  0.3047785912278868  1.0000
  H   H64       1.0  0.850457568020275  0.14324848466220172  0.8047772115718315  1.0000
  H   H65       1.0  0.29593629719109066  0.4180327086360976  0.25791137949006065  1.0000
  H   H66       1.0  0.20406358208256145  0.5819672499171632  0.7579114399026352  1.0000
  H   H67       1.0  0.7040678314754985  0.9180305609354209  0.24208877258126182  1.0000
  H   H68       1.0  0.7959359236968097  0.0819672944283028  0.7420885506405595  1.0000
  H   H69       1.0  0.259815359469414  0.3233845675450979  0.24034821351642674  1.0000
  H   H70       1.0  0.24018514213400272  0.6766154023672969  0.7403493204008169  1.0000
  H   H71       1.0  0.7401850178885995  0.8233818415056859  0.25964977429934777  1.0000
  H   H72       1.0  0.7598150272737669  0.17661541982243284  0.7596522794790699  1.0000
  H   H73       1.0  0.8153771903295849  0.007293329760855701  0.6268201665571593  1.0000
  H   H74       1.0  0.684621656016951  0.9927046001534454  0.12682201380754773  1.0000
  H   H75       1.0  0.18462104401361762  0.5072972809814686  0.8731776480329783  1.0000
  H   H76       1.0  0.3153763336543777  0.4927060990755053  0.37318031421661857  1.0000
  H   H77       1.0  0.9030339753972145  0.027900295387460996  0.5411433767200079  1.0000
  H   H78       1.0  0.5969673644798519  0.9721000206452362  0.0411430356402818  1.0000
  H   H79       1.0  0.09696612158810321  0.5279000743705566  0.9588566454821499  1.0000
  H   H80       1.0  0.4030343203734433  0.4720997542176308  0.45885597493287383  1.0000
  H   H81       1.0  0.9517398857567444  0.9407583879082182  0.5089516772670704  1.0000
  H   H82       1.0  0.548262080442953  0.059241948944894304  0.008952436345353497  1.0000
  H   H83       1.0  0.04826164735784741  0.4407573638142425  0.9910475482663794  1.0000
  H   H84       1.0  0.45174002088877063  0.5592412786017747  0.4910479258160123  1.0000
  H   H85       1.0  0.0087325023532543  0.009641359199335401  0.56346566649038  1.0000
  H   H86       1.0  0.4912686650666132  0.9903581424402785  0.0634646730655106  1.0000
  H   H87       1.0  0.9912675857401113  0.5096415412468859  0.936535476241914  1.0000
  H   H88       1.0  0.5087324111421766  0.490357936381912  0.43653432681664117  1.0000
  H   H89       1.0  0.9448864238583925  0.8536261236611936  0.6987002736306138  1.0000
  H   H90       1.0  0.555114255477051  0.1463729251162817  0.19869987034276446  1.0000
  H   H91       1.0  0.055115066824484395  0.35362813864912124  0.8012990029223274  1.0000
  H   H92       1.0  0.4448854181427464  0.6463723745186982  0.3012982211217831  1.0000
  H   H93       1.0  0.03555353040274411  0.9011979356771604  0.6631294739964984  1.0000
  H   H94       1.0  0.4644469922779634  0.09880266685451741  0.16312900852296505  1.0000
  H   H95       1.0  0.9644473659102174  0.4011968267622236  0.8368703296210568  1.0000
  H   H96       1.0  0.5355526581755682  0.5988021326509028  0.3368696657157457  1.0000
  H   H97       1.0  0.9789225472776906  0.8344934123280155  0.6062279588768147  1.0000
  H   H98       1.0  0.5210793923702824  0.16550627893389702  0.10622810679175387  1.0000
  H   H99       1.0  0.021080169159368698  0.3344936046891718  0.893771328879701  1.0000
  H   H100      1.0  0.4789215256395636  0.6655068486707381  0.3937699734687782  1.0000
  H   H101      1.0  0.5851192396116717  0.9598211075854552  0.5960862593232577  1.0000
  H   H102      1.0  0.9148808501966244  0.0401803382628216  0.09608805875677717  1.0000
  H   H103      1.0  0.41487983264241995  0.4598214645173826  0.9039135099672178  1.0000
  H   H104      1.0  0.0851187717081174  0.5401795649579456  0.40391286948579347  1.0000
  H   H105      1.0  0.645922867632109  0.15304560404722883  0.6507194094000608  1.0000
  H   H106      1.0  0.8540784423356912  0.8469540584384063  0.15072074980081135  1.0000
  H   H107      1.0  0.354076672761984  0.6530461483074106  0.8492788747649129  1.0000
  H   H108      1.0  0.1459231815728756  0.34695433382788116  0.3492794438902392  1.0000
  H   H109      1.0  0.5435564020137633  0.18845189320670389  0.6346611539325762  1.0000
  H   H110      1.0  0.9564461474097076  0.8115495276933374  0.1346619376279463  1.0000
  H   H111      1.0  0.4564443906946423  0.6884518888893467  0.8653376644195985  1.0000
  H   H112      1.0  0.04355607679290329  0.31154800018390466  0.3653377218753703  1.0000
  H   H113      1.0  0.6174180433627755  0.18899149111165062  0.5607725233940286  1.0000
  H   H114      1.0  0.8825839086924249  0.8110093949010702  0.06077387857229157  1.0000
  H   H115      1.0  0.3825827496085239  0.6889919895840038  0.9392262946420331  1.0000
  H   H116      1.0  0.11741769771118271  0.31100843437626224  0.4392263361665555  1.0000
  H   H117      1.0  0.48524059265074726  0.008500592686999701  0.5339960670293633  1.0000
  H   H118      1.0  0.014760582812762404  0.9915000933637187  0.033997952350461  1.0000
  H   H119      1.0  0.5147619650313473  0.5084999659286993  0.9660023017740828  1.0000
  H   H120      1.0  0.9852398764157185  0.49149949264155146  0.4660032665406319  1.0000
  H   H121      1.0  0.512647486788957  0.0964083571401275  0.48647829371624596  1.0000
  H   H122      1.0  0.98735311399755  0.9035928362145497  0.9864792133246209  1.0000
  H   H123      1.0  0.4873552501790286  0.5964085938002626  0.013519272085169098  1.0000
  H   H124      1.0  0.0126465484094638  0.4035909401425927  0.5135205888909694  1.0000
  H   H125      1.0  0.44617836948931  0.1002557265451998  0.5658861500845659  1.0000
  H   H126      1.0  0.05382217973403411  0.899745521556156  0.06588697070162648  1.0000
  H   H127      1.0  0.5538223802686842  0.6002557200631173  0.9341116100722426  1.0000
  H   H128      1.0  0.9461776172749694  0.3997443418084714  0.4341131920779658  1.0000
  C   C1        1.0  0.7217852513599683  0.013730634417910902  0.8719952003068555  1.0000
  C   C2        1.0  0.7782147631385572  0.9862688849533826  0.3719948110611709  1.0000
  C   C3        1.0  0.2782148387248781  0.5137307061493672  0.6280053851116276  1.0000
  C   C4        1.0  0.22178198832643403  0.4862687537464581  0.1280058559739743  1.0000
  C   C5        1.0  0.7022705082684126  0.08835975751709671  0.9115071035980615  1.0000
  C   C6        1.0  0.7977294954452887  0.9116397362990584  0.4115067537588714  1.0000
  C   C7        1.0  0.2977302356961005  0.588359863284339  0.5884928832018375  1.0000
  C   C8        1.0  0.202266602140412  0.4116396221675275  0.08849173729807797  1.0000
  C   C9        1.0  0.7387526787686554  0.1055096456128837  0.9798093436519364  1.0000
  C   C10       1.0  0.7612473063019324  0.8944903867032041  0.4798095667990621  1.0000
  C   C11       1.0  0.26124807354752744  0.6055091970263293  0.5201906331059972  1.0000
  C   C12       1.0  0.23874940046825088  0.394490915277352  0.0201900441381611  1.0000
  C   C13       1.0  0.7150184468310953  0.17268142158734182  0.018286128381347997  1.0000
  C   C14       1.0  0.7849810466762649  0.8273177438757601  0.5182876920870996  1.0000
  C   C15       1.0  0.28498123960080335  0.672682432842997  0.4817136124358541  1.0000
  C   C16       1.0  0.21501734351424062  0.3273179636381656  0.9817110449522485  1.0000
  C   C17       1.0  0.6560664854104631  0.22287630077010334  0.9873589962395215  1.0000
  C   C18       1.0  0.8439322625269553  0.7771225613104704  0.4873603797615117  1.0000
  C   C19       1.0  0.3439330889903117  0.7228770583504486  0.5126403568746767  1.0000
  C   C20       1.0  0.15606438708640272  0.2771218934854219  0.012637080223477396  1.0000
  C   C21       1.0  0.619902964023339  0.2074161733684647  0.9182238217006496  1.0000
  C   C22       1.0  0.8800970378567995  0.792582733427331  0.4182240783761911  1.0000
  C   C23       1.0  0.3800972203843216  0.7074163192733991  0.581776095385706  1.0000
  C   C24       1.0  0.1199002368215645  0.2925825878471642  0.08177392747521849  1.0000
  C   C25       1.0  0.6435255580285711  0.13939867479473383  0.8810780921612461  1.0000
  C   C26       1.0  0.8564738364543772  0.860599673349718  0.3810783142055668  1.0000
  C   C27       1.0  0.35647459325545583  0.639399369085446  0.6189218647526644  1.0000
  C   C28       1.0  0.14352223627565053  0.3606006793620011  0.11892020673761285  1.0000
  C   C29       1.0  0.5563881665827922  0.2618421856256177  0.8861960871285388  1.0000
  C   C30       1.0  0.9436112265033926  0.7381573245604331  0.3861969166211735  1.0000
  C   C31       1.0  0.44361204432995993  0.7618429210931197  0.6138032431690872  1.0000
  C   C32       1.0  0.05638725674221941  0.23815654798942634  0.11380167601848966  1.0000
  C   C33       1.0  0.0010215233189754  0.6219657490365479  0.23966726851128328  1.0000
  C   C34       1.0  0.49897774339830636  0.3780348039917598  0.7396690482225876  1.0000
  C   C35       1.0  0.9989775208786398  0.12196528730597582  0.2603319470836638  1.0000
  C   C36       1.0  0.5010237591704012  0.878034886961416  0.7603335435545373  1.0000
  C   C37       1.0  0.9177049548264122  0.5841834882225568  0.24312044191174198  1.0000
  C   C38       1.0  0.5822957123847703  0.4158172798528526  0.7431211813185498  1.0000
  C   C39       1.0  0.08229592357940872  0.08418263037152228  0.2568804605646306  1.0000
  C   C40       1.0  0.41770457351167783  0.9158179115243428  0.7568813883349887  1.0000
  C   C41       1.0  0.9126133487638555  0.5043696910723696  0.2586293520357542  1.0000
  C   C42       1.0  0.5873866966780524  0.4956310669720383  0.758630598506947  1.0000
  C   C43       1.0  0.08738749077367199  0.0043688454649811  0.24137048733694388  1.0000
  C   C44       1.0  0.41261362808690194  0.9956317064624263  0.7413713694921852  1.0000
  C   C45       1.0  0.8354553013390599  0.46815869213312317  0.2599617325004431  1.0000
  C   C46       1.0  0.6645453612751455  0.5318414823738848  0.7599623858765339  1.0000
  C   C47       1.0  0.1645451465224852  0.9681580593322964  0.24003894513888463  1.0000
  C   C48       1.0  0.33545535516558533  0.03184249345635239  0.7400392987754996  1.0000
  C   C49       1.0  0.7637254169119674  0.5123878662712827  0.24835003988992804  1.0000
  C   C50       1.0  0.7362752488717348  0.4876123157459986  0.7483501484666701  1.0000
  C   C51       1.0  0.23627480899423864  0.012387661391557  0.25165145954567686  1.0000
  C   C52       1.0  0.2637250719882402  0.9876128838864987  0.7516512693085103  1.0000
  C   C53       1.0  0.7675782454932829  0.5923683078698333  0.23474006389388788  1.0000
  C   C54       1.0  0.7324218064693967  0.4076318829501845  0.7347391103121124  1.0000
  C   C55       1.0  0.23242201936235327  0.0923680925129631  0.2652624985478055  1.0000
  C   C56       1.0  0.2675790929771509  0.9076330266381164  0.7652623542954585  1.0000
  C   C57       1.0  0.8456928562919758  0.6274454203799991  0.23084340130611025  1.0000
  C   C58       1.0  0.6543071967342088  0.3725553556356972  0.7308441502045396  1.0000
  C   C59       1.0  0.15430742564583264  0.1274445858818041  0.26915803075761596  1.0000
  C   C60       1.0  0.3456930680942847  0.8725565307494492  0.7691584447808992  1.0000
  C   C61       1.0  0.6899725062607729  0.6391268768015692  0.2243009157909625  1.0000
  C   C62       1.0  0.8100275485510624  0.36087273809401677  0.7243005274372932  1.0000
  C   C63       1.0  0.3100283989019558  0.13912668841780376  0.2757005094324185  1.0000
  C   C64       1.0  0.18997271058812967  0.8608726759544896  0.7756998547118455  1.0000
  C   C65       1.0  0.5764093692033467  0.23106367345442186  0.3388086571211558  1.0000
  C   C66       1.0  0.9235906543535677  0.7689370327324597  0.8388096696029803  1.0000
  C   C67       1.0  0.4235909631955864  0.7310626215446804  0.16119104951079774  1.0000
  C   C68       1.0  0.07640956001406349  0.2689368168890455  0.6611896565405286  1.0000
  C   C69       1.0  0.49248808165604163  0.2625467986668397  0.355374109786453  1.0000
  C   C70       1.0  0.0075117710152597  0.7374542622022134  0.8553746773086528  1.0000
  C   C71       1.0  0.5075128836105661  0.762545211263756  0.1446266882493248  1.0000
  C   C72       1.0  0.9924871929485876  0.23745445516311042  0.644625222188992  1.0000
  C   C73       1.0  0.4463945914639282  0.29656809261199163  0.29795881867795515  1.0000
  C   C74       1.0  0.0536046593427741  0.7034324227154586  0.7979593959823956  1.0000
  C   C75       1.0  0.5536051552984844  0.7965659054285297  0.20204195943693284  1.0000
  C   C76       1.0  0.9463949055887398  0.203432558511679  0.7020410783560747  1.0000
  C   C77       1.0  0.36743458851082533  0.3265869554322336  0.310568251128437  1.0000
  C   C78       1.0  0.13256589392616286  0.6734135517400758  0.8105688286414858  1.0000
  C   C79       1.0  0.6325670254790978  0.8265865587457454  0.18943139956943605  1.0000
  C   C80       1.0  0.8674342739225838  0.1734136613786319  0.6894311083551512  1.0000
  C   C81       1.0  0.3364311819467006  0.3241123002972941  0.3832110835627275  1.0000
  C   C82       1.0  0.16356866312646903  0.6758887425676293  0.8832116528068281  1.0000
  C   C83       1.0  0.6635691957657032  0.8241107987144503  0.11678912350399875  1.0000
  C   C84       1.0  0.8364308883914403  0.1758883030405585  0.6167888376600457  1.0000
  C   C85       1.0  0.38215106296273404  0.29083683138060934  0.441092506754046  1.0000
  C   C86       1.0  0.1178493838478829  0.7091647567246254  0.9410925116510851  1.0000
  C   C87       1.0  0.6178486810087167  0.7908347646896062  0.05890771979739638  1.0000
  C   C88       1.0  0.8821495663392865  0.20916495717698072  0.5589074044115065  1.0000
  C   C89       1.0  0.46022428402486787  0.2593472946480518  0.42704305909960266  1.0000
  C   C90       1.0  0.0397767841564445  0.7406537198680995  0.9270430627317906  1.0000
  C   C91       1.0  0.539777297219949  0.7593463502953455  0.07295663097067258  1.0000
  C   C92       1.0  0.9602221813656512  0.2406545278368881  0.5729568348922385  1.0000
  C   C93       1.0  0.31636190547099824  0.3580607906157667  0.24781796661278577  1.0000
  C   C94       1.0  0.1836379765578044  0.6419397571416072  0.7478179964016005  1.0000
  C   C95       1.0  0.6836409589174507  0.8580568794825824  0.25218222057580414  1.0000
  C   C96       1.0  0.8163621759631783  0.14193863864876022  0.7521825139442624  1.0000
  C   C97       1.0  0.8271617700443484  0.38240684449871054  0.27184868607034923  1.0000
  C   C98       1.0  0.6728382717892812  0.6175933223200474  0.7718492874101128  1.0000
  C   C99       1.0  0.17283925359331684  0.8824068056664985  0.2281509319420962  1.0000
  C   C100      1.0  0.327161251339689  0.11759375481116047  0.7281506822720871  1.0000
  C   C101      1.0  0.7468172223148244  0.18719819310657473  0.09519794354900307  1.0000
  C   C102      1.0  0.7531822501995933  0.8128015052883981  0.5951989678303278  1.0000
  C   C103      1.0  0.2531818536503465  0.6871986576117521  0.40480234368747137  1.0000
  C   C104      1.0  0.24681675045776796  0.312802371289152  0.9048003326281131  1.0000
  C   C105      1.0  0.3484286451147867  0.29028617023523395  0.5184388353961535  1.0000
  C   C106      1.0  0.15157253459551615  0.7097151085540999  0.0184386359449178  1.0000
  C   C107      1.0  0.6515728147213835  0.7902850101912334  0.9815610331658386  1.0000
  C   C108      1.0  0.8484259347991312  0.2097156036675045  0.4815616381068109  1.0000
  C   C109      1.0  0.850556593344244  0.9612568596891221  0.6554481730315088  1.0000
  C   C110      1.0  0.6494434802602954  0.03874046903407451  0.15544892185648249  1.0000
  C   C111      1.0  0.1494424796098812  0.46126005304646617  0.8445504855787218  1.0000
  C   C112      1.0  0.35055614094391524  0.5387427628501842  0.3445525621476618  1.0000
  C   C113      1.0  0.9479247520458712  0.982448256153738  0.5551903209239766  1.0000
  C   C114      1.0  0.5520759664609614  0.017552050793497604  0.055190548655367884  1.0000
  C   C115      1.0  0.052076183835552604  0.482449011651106  0.944809435116838  1.0000
  C   C116      1.0  0.44792426195996876  0.5175508260218677  0.4448103928372758  1.0000
  C   C117      1.0  0.9734888528437579  0.8794305344398409  0.6495122111030085  1.0000
  C   C118      1.0  0.5265112223818775  0.12056971150284573  0.14951182921635103  1.0000
  C   C119      1.0  0.026512032869121103  0.37943075715684677  0.8504870503407245  1.0000
  C   C120      1.0  0.473489056207903  0.6205691415213935  0.35048738719594036  1.0000
  C   C121      1.0  0.610823944208626  0.015908153684513603  0.6146502501088377  1.0000
  C   C122      1.0  0.8891767580682811  0.9840915321294831  0.11465150248798035  1.0000
  C   C123      1.0  0.38917614693691155  0.515908689868553  0.8853492241957496  1.0000
  C   C124      1.0  0.11082308001643072  0.484091186261587  0.3853491658218359  1.0000
  C   C125      1.0  0.5958796074599491  0.15714065313883904  0.6100721257057486  1.0000
  C   C126      1.0  0.9041235662109984  0.8428602009888096  0.11007290257643378  1.0000
  C   C127      1.0  0.4041242576801807  0.6571406101807752  0.889927820819132  1.0000
  C   C128      1.0  0.0958774381675056  0.3428592629885686  0.3899278484315686  1.0000
  C   C129      1.0  0.4995655899224047  0.07052120800577912  0.5410413034553939  1.0000
  C   C130      1.0  0.0004368186902894  0.929480056164529  0.0410432282434812  1.0000
  C   C131      1.0  0.5004369979639023  0.5705240756349852  0.9589570290307986  1.0000
  C   C132      1.0  0.9995642278707919  0.4294777181959049  0.458957472044588  1.0000
  N   N1        1.0  0.5708947011523551  0.07853766400474882  0.5895795345227625  1.0000
  N   N2        1.0  0.9291060079676897  0.9214626207000408  0.0895813697106149  1.0000
  N   N3        1.0  0.4291048029574753  0.5785393666776457  0.9104187932700681  1.0000
  N   N4        1.0  0.07089379961728072  0.4214616585898838  0.4104193352718042  1.0000
  N   N5        1.0  0.9219202912455843  0.9427441044481245  0.6225519961853648  1.0000
  N   N6        1.0  0.5780804088744631  0.05725441090380201  0.12255164002892369  1.0000
  N   N7        1.0  0.0780800077645694  0.4427454974895397  0.8774472281847776  1.0000
  N   N8        1.0  0.42192045641812115  0.5572561317796385  0.37744705853761207  1.0000
  O   O1        1.0  0.7781652841978044  0.9702754235179115  0.9007680376459676  1.0000
  O   O2        1.0  0.7218347224471343  0.0297240772439551  0.40076766598851066  1.0000
  O   O3        1.0  0.22183441068332138  0.47027589361871236  0.5992328353615903  1.0000
  O   O4        1.0  0.2781618066853966  0.5297235848860423  0.09923382329634478  1.0000
  O   O5        1.0  0.6801753042046031  0.9984577194879735  0.8144603227001139  1.0000
  O   O6        1.0  0.8198253435339282  0.0015412544191449  0.314460500909405  1.0000
  O   O7        1.0  0.3198250219370919  0.49845817635032563  0.6855399788858562  1.0000
  O   O8        1.0  0.1801717894093784  0.5015389156295316  0.18554155979776246  1.0000
  O   O9        1.0  0.0594478288462739  0.5887083536375856  0.27342468108195556  1.0000
  O   O10       1.0  0.44055266372907204  0.4112927602336782  0.7734264541711012  1.0000
  O   O11       1.0  0.9405524342272641  0.08870730567485911  0.2265745539869286  1.0000
  O   O12       1.0  0.5594476199638693  0.9112923077499319  0.7265750082933734  1.0000
  O   O13       1.0  0.0059840634339565  0.6858864829936593  0.20253426554114634  1.0000
  O   O14       1.0  0.4940158309551991  0.31411525940344376  0.7025355288531329  1.0000
  O   O15       1.0  0.9940162469641791  0.1858854124141658  0.29746546754435593  1.0000
  O   O16       1.0  0.5059837878776178  0.8141159031884158  0.7974659905134656  1.0000
  O   O17       1.0  0.6118441868769864  0.18958412709882572  0.3884645142130764  1.0000
  O   O18       1.0  0.8881558231263894  0.8104165469722988  0.888464955281762  1.0000
  O   O19       1.0  0.38815612532179233  0.689583091906286  0.11153577162661318  1.0000
  O   O20       1.0  0.11184379390515178  0.3104157959668967  0.6115343465735987  1.0000
  O   O21       1.0  0.6057546938643625  0.2482153506345668  0.2753575048056902  1.0000
  O   O22       1.0  0.894244729475453  0.7517848139145258  0.7753585337860115  1.0000
  O   O23       1.0  0.3942456468873771  0.748214827610191  0.22464219178291953  1.0000
  O   O24       1.0  0.1057542414671886  0.2517845697850802  0.7246408024011399  1.0000
  O   O25       1.0  0.891911645330751  0.3433110425633856  0.2887343315169629  1.0000
  O   O26       1.0  0.608088391893922  0.6566891133342381  0.7887349242071833  1.0000
  O   O27       1.0  0.10808935926768021  0.8433109865146095  0.21126530938807514  1.0000
  O   O28       1.0  0.39191176781051945  0.15669016756048387  0.7112644676628361  1.0000
  O   O29       1.0  0.7548655869549066  0.35430495125586964  0.26402378439276925  1.0000
  O   O30       1.0  0.7451344570142454  0.6456946379474715  0.7640254632133361  1.0000
  O   O31       1.0  0.2451354229975209  0.854304938779926  0.2359752951553985  1.0000
  O   O32       1.0  0.2548650797998206  0.14569503396153752  0.7359739350947618  1.0000
  O   O33       1.0  0.7084355140835116  0.24115630000213176  0.13122163188756988  1.0000
  O   O34       1.0  0.7915620959900594  0.7588427924175748  0.6312221244023134  1.0000
  O   O35       1.0  0.2915629706226497  0.7411568044853851  0.3687786237537408  1.0000
  O   O36       1.0  0.2084374959257431  0.25884249968684964  0.8687772076519733  1.0000
  O   O37       1.0  0.8047247967265037  0.1457845018388824  0.12067596175448606  1.0000
  O   O38       1.0  0.6952746688337329  0.8542151800778444  0.6206764196045709  1.0000
  O   O39       1.0  0.19527364153469765  0.6457855403338472  0.37932490465107077  1.0000
  O   O40       1.0  0.30472373445554274  0.35421608772065843  0.8793234115234723  1.0000
  O   O41       1.0  0.39368475821034105  0.2592639118199145  0.5683749226216575  1.0000
  O   O42       1.0  0.1063164078698549  0.7407373346722393  0.06837471496030637  1.0000
  O   O43       1.0  0.6063160689823733  0.7592633470822748  0.9316255190247059  1.0000
  O   O44       1.0  0.8936826941683903  0.24073788174963084  0.4316249860068878  1.0000
  O   O45       1.0  0.2777473307366876  0.32125712839751946  0.5280045339828233  1.0000
  O   O46       1.0  0.22225446389887796  0.6787453095569235  0.028004892037834794  1.0000
  O   O47       1.0  0.7222541441818607  0.8212554225796114  0.9719953164442567  1.0000
  O   O48       1.0  0.7777446079496926  0.1787451974661138  0.4719954001484011  1.0000
  O   O49       1.0  0.7884415902024314  0.17395333036787267  0.2930278035479574  1.0000
  O   O50       1.0  0.7115584458502868  0.8260462400770976  0.7930277193911193  1.0000
  O   O51       1.0  0.21155809684861993  0.6739533220595816  0.20697193652476636  1.0000
  O   O52       1.0  0.28844179632898204  0.3260466694397621  0.7069721282312071  1.0000
  O   O53       1.0  0.8233133585461943  0.9296507416133153  0.7133351529525098  1.0000
  O   O54       1.0  0.6766866992578856  0.07034654966994938  0.21333698711652715  1.0000
  O   O55       1.0  0.1766863165521357  0.4296539842491784  0.7866635241646306  1.0000
  O   O56       1.0  0.3233123198020493  0.5703488690872335  0.2866650333000677  1.0000
  O   O57       1.0  0.6729400350681589  0.018459691733227108  0.6566581927933441  1.0000
  O   O58       1.0  0.8270594206706575  0.9815399669111787  0.15665890541100674  1.0000
  O   O59       1.0  0.32705882224796323  0.5184608107691417  0.8433418349365096  1.0000
  O   O60       1.0  0.17294041617169847  0.4815402578822869  0.343341209473337  1.0000
