data_image0
_chemical_formula_structural       Ba4H16C32N24O8
_chemical_formula_sum              "Ba4 H16 C32 N24 O8"
_cell_length_a       6.7670337302112005
_cell_length_b       10.899089016013445
_cell_length_c       17.613089121895705
_cell_angle_alpha    90.00014174791595
_cell_angle_beta     96.92748447552968
_cell_angle_gamma    90.00009458113583

_space_group_name_H-M_alt    "P 1"
_space_group_IT_number       1

loop_
  _space_group_symop_operation_xyz
  'x, y, z'

loop_
  _atom_site_type_symbol
  _atom_site_label
  _atom_site_symmetry_multiplicity
  _atom_site_fract_x
  _atom_site_fract_y
  _atom_site_fract_z
  _atom_site_occupancy
  Ba  Ba1       1.0  0.7531752680689294  0.8532626441213085  0.973398919741946  1.0000
  Ba  Ba2       1.0  0.7468247841782586  0.3532639942699874  0.5266011575803304  1.0000
  Ba  Ba3       1.0  0.24682606758003806  0.1467362981768332  0.0266013438213193  1.0000
  Ba  Ba4       1.0  0.2531750720036854  0.6467386180576044  0.47339846620010206  1.0000
  H   H1        1.0  0.11223962596775999  0.9815086197847693  0.8784512246960645  1.0000
  H   H2        1.0  0.38776019102048315  0.4815095790388144  0.6215491070838935  1.0000
  H   H3        1.0  0.8877602028524478  0.018491240022591206  0.1215501010610893  1.0000
  H   H4        1.0  0.612239646923193  0.5184930332910442  0.37845165134922354  1.0000
  H   H5        1.0  0.20414145227656633  0.8768541544457948  0.9309772767432918  1.0000
  H   H6        1.0  0.2958580347570674  0.3768575604453446  0.5690228798990731  1.0000
  H   H7        1.0  0.7958628605562766  0.12314478785418001  0.06902313173907967  1.0000
  H   H8        1.0  0.704143310021152  0.6231478044067914  0.4309768163432253  1.0000
  H   H9        1.0  0.4514621026757908  0.06341279198623793  0.8752758500231366  1.0000
  H   H10       1.0  0.048537893835174414  0.5634135024822201  0.624723287204894  1.0000
  H   H11       1.0  0.5485377443826777  0.9365870678188631  0.12472434108133967  1.0000
  H   H12       1.0  0.9514634509372614  0.4365881923384124  0.3752764090343277  1.0000
  H   H13       1.0  0.6392116357648306  0.1305984103047564  0.9198642071317167  1.0000
  H   H14       1.0  0.8607891939318151  0.6306001834339484  0.580136137347381  1.0000
  H   H15       1.0  0.3607896998841369  0.8694005319933856  0.08013605643154158  1.0000
  H   H16       1.0  0.1392121326023528  0.3694015113889506  0.4198646935445253  1.0000
  C   C1        1.0  0.6656063920870068  0.9126082213193386  0.6630741925023428  1.0000
  C   C2        1.0  0.8343893632507785  0.4126081532599033  0.8369269014078071  1.0000
  C   C3        1.0  0.334397902506126  0.08738980347502691  0.33692735063193874  1.0000
  C   C4        1.0  0.165604529437033  0.5873898715257796  0.163072999856908  1.0000
  C   C5        1.0  0.6937625574968251  0.9022478974627152  0.7431649369635094  1.0000
  C   C6        1.0  0.8062317130649248  0.40225023179084485  0.7568337978456938  1.0000
  C   C7        1.0  0.30624171885660456  0.09774920982604134  0.25683774082268934  1.0000
  C   C8        1.0  0.1937637046927989  0.5977487104991043  0.243163906573983  1.0000
  C   C9        1.0  0.6598482610477914  0.0278764055486391  0.6272252680239205  1.0000
  C   C10       1.0  0.8401507561857711  0.5278747423780035  0.8727748320870886  1.0000
  C   C11       1.0  0.34015752214596523  0.9721271242938986  0.3727763475745292  1.0000
  C   C12       1.0  0.1598446524513761  0.47212328240519963  0.1272234396581595  1.0000
  C   C13       1.0  0.6414449794194326  0.8063845631972272  0.6187026257507355  1.0000
  C   C14       1.0  0.8585474911704053  0.30637460540236827  0.8812964434873152  1.0000
  C   C15       1.0  0.358559296949899  0.19362263667815685  0.3813000520439118  1.0000
  C   C16       1.0  0.14144195396972487  0.6936169968231739  0.11870210574067389  1.0000
  C   C17       1.0  0.32783778679648634  0.5458676777049974  0.8498261046851852  1.0000
  C   C18       1.0  0.172160656692526  0.045872198124506304  0.6501734980510036  1.0000
  C   C19       1.0  0.6721590830780997  0.4541321820982701  0.1501739415001779  1.0000
  C   C20       1.0  0.8278362405466878  0.9541322492147447  0.34982484615917286  1.0000
  C   C21       1.0  0.2926267867856537  0.5432342520401293  0.770064185120475  1.0000
  C   C22       1.0  0.20736868945554218  0.04323912858407651  0.7299341336371723  1.0000
  C   C23       1.0  0.707368621852936  0.4567646902509496  0.22993408662554057  1.0000
  C   C24       1.0  0.7926326735508196  0.9567598137106686  0.2700644279470694  1.0000
  C   C25       1.0  0.3484449518616941  0.659188241945593  0.8864863829079113  1.0000
  C   C26       1.0  0.15155237855319112  0.15919167658336875  0.6135122023575192  1.0000
  C   C27       1.0  0.6515504567754534  0.34080978283761  0.11351188883733696  1.0000
  C   C28       1.0  0.8484474593919344  0.8408118532543583  0.3864885560763653  1.0000
  C   C29       1.0  0.3344276905904736  0.4370834460015233  0.8927755524861425  1.0000
  C   C30       1.0  0.1655749543997729  0.9370860427556952  0.6072254171949467  1.0000
  C   C31       1.0  0.6655706678746112  0.5629154962947852  0.1072245661580027  1.0000
  C   C32       1.0  0.8344204451211396  0.06291381704438952  0.39277342187818215  1.0000
  N   N1        1.0  0.7176664641784924  0.8916150446983767  0.8098474702438737  1.0000
  N   N2        1.0  0.7823307682798486  0.3916161695254063  0.6901502570366276  1.0000
  N   N3        1.0  0.28234080759708036  0.1083820625899534  0.19015421780876093  1.0000
  N   N4        1.0  0.2176676449000254  0.6083827727641095  0.30984645764947766  1.0000
  N   N5        1.0  0.6531187869310814  0.12375591411473152  0.5968502371071267  1.0000
  N   N6        1.0  0.8468819755928649  0.6237552971537853  0.903152932550725  1.0000
  N   N7        1.0  0.3468884666047813  0.8762402756679823  0.4031525855974109  1.0000
  N   N8        1.0  0.1531148942773797  0.37624181012585495  0.0968471136323359  1.0000
  N   N9        1.0  0.6213763709999897  0.7164154911387471  0.5815343085828032  1.0000
  N   N10       1.0  0.8786099345349498  0.2164167131737643  0.9184597816520679  1.0000
  N   N11       1.0  0.37862501024607553  0.2835843686616074  0.4184631183495213  1.0000
  N   N12       1.0  0.1213751086806312  0.7835858991356022  0.0815345789220814  1.0000
  N   N13       1.0  0.2617309106177359  0.543297409784529  0.7030435697674662  1.0000
  N   N14       1.0  0.23826600881211146  0.04329799939360161  0.7969576581835439  1.0000
  N   N15       1.0  0.738267420494296  0.4567042850387964  0.2969582508580046  1.0000
  N   N16       1.0  0.7617398108465993  0.9566981903814027  0.20304168810340426  1.0000
  N   N17       1.0  0.36673165365785115  0.755341302064274  0.9166212989182937  1.0000
  N   N18       1.0  0.1332689297353227  0.25534276197495853  0.5833792941561242  1.0000
  N   N19       1.0  0.6332711705859495  0.24465947525053627  0.0833790371060559  1.0000
  N   N20       1.0  0.8667323968060785  0.7446635203873132  0.41662153673961905  1.0000
  N   N21       1.0  0.33975634020179507  0.34689800252198216  0.9291109846807898  1.0000
  N   N22       1.0  0.16024751816217994  0.8469022831650227  0.5708893392092378  1.0000
  N   N23       1.0  0.6602420182618403  0.6531000222664575  0.07088913396258789  1.0000
  N   N24       1.0  0.8397478722410484  0.15309849414406784  0.42911006719099015  1.0000
  O   O1        1.0  0.108735108687732  0.946745265601159  0.9301095157047213  1.0000
  O   O2        1.0  0.3912675667646397  0.44674785650664045  0.5698914701454499  1.0000
  O   O3        1.0  0.8912706562590813  0.05325275919638982  0.0698932345418015  1.0000
  O   O4        1.0  0.6087322894158547  0.5532538383130758  0.4301081536342153  1.0000
  O   O5        1.0  0.5319863248526886  0.07076400804697872  0.9257946726212508  1.0000
  O   O6        1.0  0.9680172751372638  0.5707631160813946  0.5742068512943133  1.0000
  O   O7        1.0  0.46801352220578  0.9292358517581221  0.0742055184832253  1.0000
  O   O8        1.0  0.0319855399888453  0.429238578742421  0.42579405205714943  1.0000
