data_image0
_chemical_formula_structural       ZnH16C16N4O4
_chemical_formula_sum              "Zn1 H16 C16 N4 O4"
_cell_length_a       8.176693957295766
_cell_length_b       7.4721091165463305
_cell_length_c       8.67962239161695
_cell_angle_alpha    110.95757289804072
_cell_angle_beta     95.97971935851052
_cell_angle_gamma    117.40771770327298

_space_group_name_H-M_alt    "P 1"
_space_group_IT_number       1

loop_
  _space_group_symop_operation_xyz
  'x, y, z'

loop_
  _atom_site_type_symbol
  _atom_site_label
  _atom_site_symmetry_multiplicity
  _atom_site_fract_x
  _atom_site_fract_y
  _atom_site_fract_z
  _atom_site_occupancy
  Zn  Zn1       1.0  0.49999833439700586  0.4999992871868172  0.4999994310893499  1.0000
  H   H1        1.0  0.8033330179597017  0.47191149352141076  0.8487764913369916  1.0000
  H   H2        1.0  0.19668811475598605  0.5281204936744784  0.1512226714397826  1.0000
  H   H3        1.0  0.562101253280652  0.3612447625511522  0.8527942649881624  1.0000
  H   H4        1.0  0.4379256027061942  0.6387639260283889  0.14721850390608185  1.0000
  H   H5        1.0  0.8374590844335402  0.7804793697182504  0.1414778771136724  1.0000
  H   H6        1.0  0.16252715595744857  0.21951831774371297  0.858521443459253  1.0000
  H   H7        1.0  0.8821952986326095  0.1653633746403145  0.26496968627662904  1.0000
  H   H8        1.0  0.11778569449442251  0.8346312868005085  0.7350293321880769  1.0000
  H   H9        1.0  0.7678980595371527  0.28255940250038947  0.061625158028583385  1.0000
  H   H10       1.0  0.23209664470252284  0.7174423316975974  0.9383717067913011  1.0000
  H   H11       1.0  0.619310610640916  0.011413561283752906  0.7400925475046449  1.0000
  H   H12       1.0  0.3806913622143286  0.988592645492112  0.25990407876860644  1.0000
  H   H13       1.0  0.46844589954078225  0.17818777471112673  0.5683526535839079  1.0000
  H   H14       1.0  0.531561663987745  0.8218164159627577  0.4316549211344239  1.0000
  H   H15       1.0  0.6915708544534808  0.3125014714478667  0.5609979930671898  1.0000
  H   H16       1.0  0.3084327768571741  0.6875088526248871  0.43900438672539366  1.0000
  C   C1        1.0  0.6662663824694236  0.45871407928692065  0.7998365281641712  1.0000
  C   C2        1.0  0.33374370066589876  0.541299403714646  0.20016753715456298  1.0000
  C   C3        1.0  0.7020318561511092  0.6954095553413211  0.8774810193489982  1.0000
  C   C4        1.0  0.2979624727555504  0.3045941045974416  0.12251733881262082  1.0000
  C   C5        1.0  0.7898456465157366  0.837832676270608  0.05708301909949395  1.0000
  C   C6        1.0  0.21014381667838217  0.16216640440591587  0.9429159440283995  1.0000
  C   C7        1.0  0.8157747678594163  0.051807827655189015  0.12541801392134028  1.0000
  C   C8        1.0  0.1842167166863221  0.9481926995780725  0.8745804085516938  1.0000
  C   C9        1.0  0.7530346893009963  0.11788679027834802  0.01194791050657068  1.0000
  C   C10       1.0  0.24696765888725036  0.882117490756741  0.9880472224249459  1.0000
  C   C11       1.0  0.668684100091099  0.9678179883936978  0.8348029138931994  1.0000
  C   C12       1.0  0.33131787276414576  0.032188218382167094  0.16519371238005218  1.0000
  C   C13       1.0  0.8989200980867338  0.8314163569381986  0.4709533380827651  1.0000
  C   C14       1.0  0.10107389397710159  0.168561104847754  0.5290373066092755  1.0000
  C   C15       1.0  0.10958362185066069  0.9643632115094719  0.4964446689254914  1.0000
  C   C16       1.0  0.8904127793346104  0.03561451609181892  0.503548742602419  1.0000
  N   N1        1.0  0.5906784295363253  0.3387640133962292  0.6089651071256128  1.0000
  N   N2        1.0  0.4093251418678463  0.6612415180455926  0.3910386104725277  1.0000
  N   N3        1.0  0.6440651331952695  0.7611444513956513  0.7693322718112797  1.0000
  N   N4        1.0  0.3559327969567363  0.23885886226673136  0.2306654357716837  1.0000
  O   O1        1.0  0.7803919208399395  0.6279548287188846  0.4354134611756493  1.0000
  O   O2        1.0  0.2196036697728303  0.37202195773301844  0.5645842748412875  1.0000
  O   O3        1.0  0.24160227343307394  0.9211884158692527  0.4948463430745846  1.0000
  O   O4        1.0  0.7583979172129245  0.0788026482141007  0.505170146842076  1.0000
