data_image0
_chemical_formula_structural       Cd2H32C36N4O8
_chemical_formula_sum              "Cd2 H32 C36 N4 O8"
_cell_length_a       7.774295300314223
_cell_length_b       9.400070575960331
_cell_length_c       11.854112004473354
_cell_angle_alpha    112.87971288598273
_cell_angle_beta     100.78198825563572
_cell_angle_gamma    92.85458481150434

_space_group_name_H-M_alt    "P 1"
_space_group_IT_number       1

loop_
  _space_group_symop_operation_xyz
  'x, y, z'

loop_
  _atom_site_type_symbol
  _atom_site_label
  _atom_site_symmetry_multiplicity
  _atom_site_fract_x
  _atom_site_fract_y
  _atom_site_fract_z
  _atom_site_occupancy
  Cd  Cd1       1.0  0.6643587153950533  0.8515452396574333  0.5099088453113652  1.0000
  Cd  Cd2       1.0  0.33563691608043195  0.14846003887205236  0.4900910967489054  1.0000
  H   H1        1.0  0.4739894635442424  0.6254444101292692  0.003221233670935068  1.0000
  H   H2        1.0  0.52601156859712  0.3745538457908566  0.9967762794349964  1.0000
  H   H3        1.0  0.47360963876509726  0.6487339371119064  0.21874936590250374  1.0000
  H   H4        1.0  0.526391393376265  0.3512643188082194  0.7812481472034278  1.0000
  H   H5        1.0  0.8209732219839477  0.06480291410564122  0.1743700839738266  1.0000
  H   H6        1.0  0.1790360295558173  0.9351894622752611  0.825626526256137  1.0000
  H   H7        1.0  0.8083831591139725  0.0678134709166329  0.3801669975724806  1.0000
  H   H8        1.0  0.19162014428756183  0.93218242482034  0.6198317224367501  1.0000
  H   H9        1.0  0.048856579963406  0.2988482806540561  0.2569214246213463  1.0000
  H   H10       1.0  0.951138834023588  0.7011558469241947  0.7430764437447975  1.0000
  H   H11       1.0  0.8492168825500739  0.3341462708939532  0.3056538839842631  1.0000
  H   H12       1.0  0.15077852712524734  0.6658496916859634  0.6943414200945525  1.0000
  H   H13       1.0  0.1301014086308356  0.5363531756631944  0.4393054291332561  1.0000
  H   H14       1.0  0.8698839860482648  0.4636451419434309  0.5606936834080045  1.0000
  H   H15       1.0  0.9238126227202127  0.7379356365286327  0.23273479247292528  1.0000
  H   H16       1.0  0.0761906999920186  0.2620684170067307  0.7672673349532528  1.0000
  H   H17       1.0  0.07228736304555385  0.6823175671788776  0.13447670147655094  1.0000
  H   H18       1.0  0.9277179052546597  0.3176899388696199  0.8655309516593162  1.0000
  H   H19       1.0  0.21945951484006795  0.5394165659316172  0.2520188644033539  1.0000
  H   H20       1.0  0.7805395985207608  0.46058513632345216  0.7479871036599448  1.0000
  H   H21       1.0  0.46221069949540794  0.6257740434595149  0.8286420755444012  1.0000
  H   H22       1.0  0.5377977720845023  0.374213685916807  0.17135129868675136  1.0000
  H   H23       1.0  0.853094952397434  0.040379543166558604  0.007531633169683995  1.0000
  H   H24       1.0  0.1469016272176802  0.9596233899202321  0.9924685249073447  1.0000
  H   H25       1.0  0.47888908050754936  0.6320923768751712  0.6270729305548883  1.0000
  H   H26       1.0  0.5211076672873316  0.3679035637643508  0.3729242075400876  1.0000
  H   H27       1.0  0.8475311168265733  0.03010323372178192  0.7950481768212825  1.0000
  H   H28       1.0  0.1524637646870772  0.969897383403243  0.2049502154994159  1.0000
  H   H29       1.0  0.8106229342513553  0.48471359842513806  0.016214202136786926  1.0000
  H   H30       1.0  0.18938562525865174  0.5152985899464683  0.9837910806044334  1.0000
  H   H31       1.0  0.7751067950004539  0.2680378028164654  0.07483576260259639  1.0000
  H   H32       1.0  0.22489193588269524  0.7319628276866865  0.925158857340804  1.0000
  C   C1        1.0  0.549426388735192  0.7265570863937258  0.08343464763799359  1.0000
  C   C2        1.0  0.4505774878250575  0.27343413319832877  0.9165635135182058  1.0000
  C   C3        1.0  0.6486284223669754  0.8433938758155936  0.0671466388530534  1.0000
  C   C4        1.0  0.35137732478617767  0.1566008322892856  0.9328528323647588  1.0000
  C   C5        1.0  0.5471503707525185  0.7394149883898822  0.20396615693253048  1.0000
  C   C6        1.0  0.4528506763878609  0.2605832603303072  0.7960321993030205  1.0000
  C   C7        1.0  0.740506019572244  0.968718488976144  0.17711427051886372  1.0000
  C   C8        1.0  0.2594991094251355  0.0312809168734702  0.8228832301631285  1.0000
  C   C9        1.0  0.7325163022270329  0.9728610730696945  0.2946702363365432  1.0000
  C   C10       1.0  0.26748380746106176  0.0271313488949119  0.7053261827245335  1.0000
  C   C11       1.0  0.9477371202532079  0.37834342527730064  0.26737069362251015  1.0000
  C   C12       1.0  0.05226386370051733  0.6216617654905933  0.7326365845024013  1.0000
  C   C13       1.0  0.8811304284446989  0.4941855374194688  0.10822588596115416  1.0000
  C   C14       1.0  0.1188688542224838  0.5058267613352997  0.8917716174446396  1.0000
  C   C15       1.0  0.8614769645922421  0.3743880421026732  0.14144801901834106  1.0000
  C   C16       1.0  0.1385162488179859  0.6256102446606989  0.8585502938052514  1.0000
  C   C17       1.0  0.896156725603845  0.6424032589734382  0.4209156952768183  1.0000
  C   C18       1.0  0.103843047724709  0.35760314788571895  0.5790867637483643  1.0000
  C   C19       1.0  0.031983549429085725  0.5424328894936536  0.3618430063207541  1.0000
  C   C20       1.0  0.9680076702055301  0.45756887960435216  0.6381595458121295  1.0000
  C   C21       1.0  0.00022284611264921465  0.6430937719478607  0.19098714138170436  1.0000
  C   C22       1.0  0.9997760197616541  0.3569067937558403  0.8090150667282359  1.0000
  C   C23       1.0  0.13013425370060358  0.6220037241985068  0.2951181789123111  1.0000
  C   C24       1.0  0.8698636940321048  0.37799917254800874  0.7048854994401024  1.0000
  C   C25       1.0  0.25272734082527387  0.770781289486635  0.385073940691548  1.0000
  C   C26       1.0  0.7472758993896135  0.22922154829804245  0.6149337012070432  1.0000
  C   C27       1.0  0.656145701906382  0.8350106277637792  0.9406490658402263  1.0000
  C   C28       1.0  0.34385738400666094  0.16498411702195886  0.05934758047487781  1.0000
  C   C29       1.0  0.553469815091681  0.7180833085240154  0.8293445858849893  1.0000
  C   C30       1.0  0.4465333158184135  0.28191141466190567  0.17065458981896597  1.0000
  C   C31       1.0  0.7666445903693171  0.9472938573312747  0.926857431994513  1.0000
  C   C32       1.0  0.23335774989357103  0.05270439104833001  0.07314022886834688  1.0000
  C   C33       1.0  0.5611342267392415  0.7205552019104361  0.7135396842101897  1.0000
  C   C34       1.0  0.43886740855887035  0.279438363464891  0.2864589563019421  1.0000
  C   C35       1.0  0.7666290676546763  0.9421260719406207  0.8082658571184709  1.0000
  C   C36       1.0  0.23336657450814607  0.05787103439059391  0.1917323637840838  1.0000
  N   N1        1.0  0.6365098234169722  0.8599401510299033  0.3082763067652792  1.0000
  N   N2        1.0  0.3634932624960781  0.1400545937558348  0.6917203395498248  1.0000
  N   N3        1.0  0.6646475331316636  0.8314073036640509  0.7028477904365572  1.0000
  N   N4        1.0  0.3353471908895641  0.16859213370997855  0.297151900708478  1.0000
  O   O1        1.0  0.7341490811196252  0.5854737885479295  0.39193664177531656  1.0000
  O   O2        1.0  0.26584553153281826  0.4145420364222617  0.6080614329074479  1.0000
  O   O3        1.0  0.9531614955604011  0.7835405324055812  0.4975241969258519  1.0000
  O   O4        1.0  0.04683924090680589  0.216463521810951  0.5024793212457012  1.0000
  O   O5        1.0  0.2311591916665918  0.8945370530526165  0.3677632840074524  1.0000
  O   O6        1.0  0.7688439885522269  0.10546581353181492  0.6322409853726823  1.0000
  O   O7        1.0  0.37424786880817607  0.7566492487045268  0.46680660888823416  1.0000
  O   O8        1.0  0.6257559788751335  0.24335706353368644  0.5332047247038857  1.0000
