data_image0
_chemical_formula_structural       Ho4H12C16O36
_chemical_formula_sum              "Ho4 H12 C16 O36"
_cell_length_a       10.569642278673621
_cell_length_b       9.908244751361114
_cell_length_c       12.001464372224182
_cell_angle_alpha    90.00233819935843
_cell_angle_beta     106.94912469539125
_cell_angle_gamma    89.99146645746951

_space_group_name_H-M_alt    "P 1"
_space_group_IT_number       1

loop_
  _space_group_symop_operation_xyz
  'x, y, z'

loop_
  _atom_site_type_symbol
  _atom_site_label
  _atom_site_symmetry_multiplicity
  _atom_site_fract_x
  _atom_site_fract_y
  _atom_site_fract_z
  _atom_site_occupancy
  Ho  Ho1       1.0  0.20665731834451154  0.4268570587740754  0.8853362106526391  1.0000
  Ho  Ho2       1.0  0.29336646165683083  0.9268274843021445  0.614645126163964  1.0000
  Ho  Ho3       1.0  0.7932451371596587  0.5731400734282062  0.1145975816480203  1.0000
  Ho  Ho4       1.0  0.706746458171594  0.0731575372596396  0.385438035228276  1.0000
  H   H1        1.0  0.09275522398822032  0.23997559632385185  0.663814378590132  1.0000
  H   H2        1.0  0.40720985026856493  0.7399515242520635  0.8361481105201066  1.0000
  H   H3        1.0  0.9072414362771253  0.7600417222115892  0.33620580134194  1.0000
  H   H4        1.0  0.5927287588116884  0.26009304418818147  0.16383098079661812  1.0000
  H   H5        1.0  0.9835172807492185  0.33597556173665305  0.6884150307850022  1.0000
  H   H6        1.0  0.5164682399017977  0.835873215589828  0.8116117063156095  1.0000
  H   H7        1.0  0.016407772489742505  0.6640387263930022  0.3115013089736038  1.0000
  H   H8        1.0  0.48357104624798114  0.16409061617114415  0.18852354205617425  1.0000
  H   H9        1.0  0.1306455714690316  0.44726006967182735  0.6132667046972671  1.0000
  H   H10       1.0  0.36934225637305945  0.9472369492201977  0.8866824936395687  1.0000
  H   H11       1.0  0.8693234114361701  0.5527744029805247  0.3866638076431244  1.0000
  H   H12       1.0  0.6306700145715639  0.052814684723323096  0.11335986858598804  1.0000
  C   C1        1.0  0.3458265191948016  0.1807063831103477  0.8006609420040149  1.0000
  C   C2        1.0  0.15420252037539234  0.680717404033338  0.6992951688220472  1.0000
  C   C3        1.0  0.6541698689919998  0.8193099245810059  0.19932491501139535  1.0000
  C   C4        1.0  0.8458196618798441  0.31927871796257523  0.3006972462028656  1.0000
  C   C5        1.0  0.4957893594746495  0.5589223578307595  0.9571169862127392  1.0000
  C   C6        1.0  0.004210068038652511  0.05890631739804057  0.5428843338831798  1.0000
  C   C7        1.0  0.504123547303486  0.44109394892990395  0.04279370910801819  1.0000
  C   C8        1.0  0.995889401933191  0.9410807236373555  0.4572104898075366  1.0000
  C   C9        1.0  0.28607070690252817  0.1212378423680747  0.8942842245958289  1.0000
  C   C10       1.0  0.2139357076148443  0.6212223919560458  0.6056817077798797  1.0000
  C   C11       1.0  0.713895116883066  0.8787845215533351  0.1056958426389372  1.0000
  C   C12       1.0  0.7860858420495662  0.3787737307127443  0.39432479750075095  1.0000
  C   C13       1.0  0.9472318403702362  0.45889772123454975  0.9535160000733924  1.0000
  C   C14       1.0  0.5527770915856182  0.9588563664012497  0.5464852361109679  1.0000
  C   C15       1.0  0.0526475069999535  0.5410782172728756  0.0464192662497425  1.0000
  C   C16       1.0  0.44735803837640037  0.04107516363658449  0.45359711750035814  1.0000
  O   O1        1.0  0.3448862953654058  0.3075288323722701  0.7953781274913184  1.0000
  O   O2        1.0  0.15514043617851314  0.8075362497574968  0.7045985519211442  1.0000
  O   O3        1.0  0.6550214847767465  0.6924783915434529  0.20453995563277522  1.0000
  O   O4        1.0  0.8449622713182807  0.1924467528470898  0.29546846489943596  1.0000
  O   O5        1.0  0.3856687951631201  0.0988905802126752  0.7377525620936325  1.0000
  O   O6        1.0  0.11436138348071274  0.5989260248030063  0.7622239982118941  1.0000
  O   O7        1.0  0.6144143091113464  0.9011257279898498  0.26230154636747477  1.0000
  O   O8        1.0  0.8855566885143916  0.4010771625439347  0.2377110804721312  1.0000
  O   O9        1.0  0.38089491335388465  0.5865027915761375  0.8893102788247447  1.0000
  O   O10       1.0  0.11911578555623951  0.08647389542746707  0.6106853135264814  1.0000
  O   O11       1.0  0.6190184625162233  0.4135236089811585  0.11062641780242188  1.0000
  O   O12       1.0  0.8809889306405693  0.913501034522483  0.389413847568676  1.0000
  O   O13       1.0  0.6005268914453339  0.6204973118283376  0.9603284852176515  1.0000
  O   O14       1.0  0.8994607851338332  0.12051026699728597  0.539677074777977  1.0000
  O   O15       1.0  0.399397454998855  0.3794988092787718  0.03958019777977028  1.0000
  O   O16       1.0  0.10062705298544473  0.8794868655400729  0.460386289396574  1.0000
  O   O17       1.0  0.3172020937670866  0.9981669366512093  0.9322991192956068  1.0000
  O   O18       1.0  0.1827965337101105  0.4981674942804447  0.5676473177386754  1.0000
  O   O19       1.0  0.6827905801375637  0.0018867148453196995  0.06770943874924035  1.0000
  O   O20       1.0  0.8172039966748416  0.5018649601316341  0.43231006776492376  1.0000
  O   O21       1.0  0.21111127689281525  0.19281053855383587  0.931388654686465  1.0000
  O   O22       1.0  0.288900016886629  0.6927638435379959  0.5685639457577594  1.0000
  O   O23       1.0  0.7887973676038912  0.8072148524585214  0.06853878681981476  1.0000
  O   O24       1.0  0.7111941326601326  0.3072363158677476  0.4314838962090022  1.0000
  O   O25       1.0  0.830324166475407  0.46121789546985076  0.9609081907704038  1.0000
  O   O26       1.0  0.6696946080067435  0.9611767720123577  0.5391007324731376  1.0000
  O   O27       1.0  0.16955100320490862  0.5387388670629034  0.03902377663863631  1.0000
  O   O28       1.0  0.3304419878536535  0.038714386836780086  0.4609660172079728  1.0000
  O   O29       1.0  0.9878956989582266  0.39695568122095887  0.8783226158856579  1.0000
  O   O30       1.0  0.5121324660739078  0.8968975492574742  0.6216738324044186  1.0000
  O   O31       1.0  0.011970435640321903  0.6030353962885187  0.1216059680425943  1.0000
  O   O32       1.0  0.4880336928091824  0.10307536098561342  0.3784403111977355  1.0000
  O   O33       1.0  0.07654094616911783  0.33330564047291483  0.6899165128120117  1.0000
  O   O34       1.0  0.42346012145319634  0.8332236534429  0.8100483008747902  1.0000
  O   O35       1.0  0.9234188829226471  0.6667389263023864  0.31004068565246007  1.0000
  O   O36       1.0  0.5765841790457459  0.16676843366457916  0.1900051443260438  1.0000
