data_image0
_chemical_formula_structural       Na4H44Pd2C40N4O16
_chemical_formula_sum              "Na4 H44 Pd2 C40 N4 O16"
_cell_length_a       10.738877904873046
_cell_length_b       10.707623750711168
_cell_length_c       12.734409217040701
_cell_angle_alpha    110.7646378934448
_cell_angle_beta     114.27154409772653
_cell_angle_gamma    95.56191034428625

_space_group_name_H-M_alt    "P 1"
_space_group_IT_number       1

loop_
  _space_group_symop_operation_xyz
  'x, y, z'

loop_
  _atom_site_type_symbol
  _atom_site_label
  _atom_site_symmetry_multiplicity
  _atom_site_fract_x
  _atom_site_fract_y
  _atom_site_fract_z
  _atom_site_occupancy
  Na  Na1       1.0  0.05435049842246552  0.9500026814361889  0.13442264588663744  1.0000
  Na  Na2       1.0  0.3156570045197854  0.9183730458784398  0.36375484089947463  1.0000
  Na  Na3       1.0  0.9456594005730636  0.05002231045632749  0.8655857469316571  1.0000
  Na  Na4       1.0  0.684321660903926  0.08165727579444851  0.6362646203474682  1.0000
  H   H1        1.0  0.8768766902560046  0.11620914128621249  0.5068563576940975  1.0000
  H   H2        1.0  0.1091814398842175  0.36997930363546067  0.9935642813923378  1.0000
  H   H3        1.0  0.12310080879352368  0.8837743130281266  0.4931459703976059  1.0000
  H   H4        1.0  0.8908506656648426  0.6300448778227122  0.006461046279639632  1.0000
  H   H5        1.0  0.8839854515247438  0.8780885928593561  0.4894223500700363  1.0000
  H   H6        1.0  0.8891043172526025  0.3952343720705471  0.010574151499042716  1.0000
  H   H7        1.0  0.1160068357196238  0.121899995997687  0.5105764155376349  1.0000
  H   H8        1.0  0.1109254489261744  0.6048135602689158  0.9894446795573516  1.0000
  H   H9        1.0  0.691707733199479  0.6705820062102389  0.30127223773791206  1.0000
  H   H10       1.0  0.8701027736930695  0.3908897920846002  0.1979150830676842  1.0000
  H   H11       1.0  0.3083077306470798  0.32939804129607353  0.6987077915595208  1.0000
  H   H12       1.0  0.12989343914831153  0.6091195082068523  0.8020824168013831  1.0000
  H   H13       1.0  0.6959791829704401  0.2044928949313203  0.26521223902096125  1.0000
  H   H14       1.0  0.4386251048238067  0.4306737056470027  0.23519871500021594  1.0000
  H   H15       1.0  0.3040001878069347  0.7954862801252531  0.7347800777588418  1.0000
  H   H16       1.0  0.5613842323556993  0.5693314310876119  0.7647974440675113  1.0000
  H   H17       1.0  0.7634104094277774  0.2676416350248799  0.4341325314255612  1.0000
  H   H18       1.0  0.33256318828308196  0.3276109437351736  0.06623373875033423  1.0000
  H   H19       1.0  0.23656095060214716  0.7323416854024459  0.5658597633088291  1.0000
  H   H20       1.0  0.6674263687651418  0.67236114311617  0.9337710709882285  1.0000
  H   H21       1.0  0.5768698693619996  0.20601343007813  0.3276657293157683  1.0000
  H   H22       1.0  0.3777796615719282  0.2482645017487926  0.17314597755240155  1.0000
  H   H23       1.0  0.4231046406358701  0.7939594691015514  0.672322287503313  1.0000
  H   H24       1.0  0.6222377389878561  0.751744214790044  0.8268854444691839  1.0000
  H   H25       1.0  0.4835981150692703  0.568832828915923  0.10135110344776882  1.0000
  H   H26       1.0  0.9688559699138537  0.38266864906418613  0.3975001038437752  1.0000
  H   H27       1.0  0.5163862477469578  0.43114975379167936  0.8986635753008727  1.0000
  H   H28       1.0  0.031146256182601903  0.617343968969152  0.6025130202935641  1.0000
  H   H29       1.0  0.44525136556072203  0.6667193957776618  0.009559757146874537  1.0000
  H   H30       1.0  0.1587869718064354  0.43637634844898804  0.489271717205078  1.0000
  H   H31       1.0  0.5547784581219516  0.3332431891392105  0.9904319990916973  1.0000
  H   H32       1.0  0.8412171252852119  0.5636319482427083  0.5107282418978158  1.0000
  H   H33       1.0  0.3579246326629075  0.6658276310349365  0.10086382205943778  1.0000
  H   H34       1.0  0.0657735506779531  0.2568014658731386  0.3979950549766968  1.0000
  H   H35       1.0  0.6420805271049517  0.3341876591435735  0.8991165459825439  1.0000
  H   H36       1.0  0.9342236879586707  0.7432080075333474  0.602015417957702  1.0000
  H   H37       1.0  0.8740545122499769  0.8582657470374356  0.2516545085315514  1.0000
  H   H38       1.0  0.10646642692347541  0.6209736616887227  0.24851458070943278  1.0000
  H   H39       1.0  0.12592349781435533  0.14172994246951023  0.748332696708637  1.0000
  H   H40       1.0  0.89351132813173  0.3790281956295871  0.7514688261706012  1.0000
  H   H41       1.0  0.8148059224787403  0.91565620752538  0.15021622795749306  1.0000
  H   H42       1.0  0.2656914320222086  0.6638447364247425  0.3498501082998473  1.0000
  H   H43       1.0  0.18517800619835606  0.08432795958961489  0.849761848710969  1.0000
  H   H44       1.0  0.7342903303702855  0.33616741778359227  0.650128257262068  1.0000
  Pd  Pd1       1.0  0.4999929062471296  0.9999727752639203  0.9999787306975421  1.0000
  Pd  Pd2       1.0  0.4999964296075063  0.5000167704393306  0.5000138506591085  1.0000
  C   C1        1.0  0.2367307916785109  0.9612064182270429  0.9980187266955624  1.0000
  C   C2        1.0  0.46226282760868287  0.2383281774277037  0.5024430895811065  1.0000
  C   C3        1.0  0.763275559563084  0.0387883422293527  0.0019765244203497623  1.0000
  C   C4        1.0  0.5377361223889707  0.7616980246662096  0.4975783265212429  1.0000
  C   C5        1.0  0.3324107897406705  0.9258283860751106  0.1053056413870693  1.0000
  C   C6        1.0  0.3197355182426023  0.2260176762256023  0.3943330671310221  1.0000
  C   C7        1.0  0.6675962398426663  0.0741580014254595  0.8946834927616577  1.0000
  C   C8        1.0  0.6802776566685722  0.7739937210853682  0.6056662452916369  1.0000
  C   C9        1.0  0.5747202766814895  0.9260647002444176  0.22375015771188358  1.0000
  C   C10       1.0  0.2021483195502896  0.3498956821870678  0.2754500441622483  1.0000
  C   C11       1.0  0.4252833399680895  0.0739133057030656  0.7762322151996626  1.0000
  C   C12       1.0  0.7978531823485612  0.6501179729029261  0.7245631279673646  1.0000
  C   C13       1.0  0.6834354331114624  0.04468653792802971  0.3293433884993461  1.0000
  C   C14       1.0  0.21494142471395614  0.3531477736286135  0.17035157392390946  1.0000
  C   C15       1.0  0.3165543366508317  0.9552967633216481  0.670647469081537  1.0000
  C   C16       1.0  0.7850683873320392  0.6468628200107033  0.8296651801410987  1.0000
  C   C17       1.0  0.7942961090006904  0.024825406804964697  0.4237661578194433  1.0000
  C   C18       1.0  0.1008868226736084  0.3701296452597518  0.07615467460560416  1.0000
  C   C19       1.0  0.205689571134549  0.9751579805361529  0.5762311513671676  1.0000
  C   C20       1.0  0.8991307906002461  0.6298902856774191  0.9238627952582946  1.0000
  C   C21       1.0  0.7982199640195161  0.8912276179385116  0.41380195006498605  1.0000
  C   C22       1.0  0.9776019933213433  0.3844003044047711  0.08588145988913004  1.0000
  C   C23       1.0  0.2017768394814254  0.1087588690600327  0.5861946403610574  1.0000
  C   C24       1.0  0.02241404377798519  0.6156247687699263  0.9141330241332994  1.0000
  C   C25       1.0  0.6898437590697809  0.7751421029481449  0.3087440004927657  1.0000
  C   C26       1.0  0.9667823138090128  0.3809766763612216  0.19047436018159672  1.0000
  C   C27       1.0  0.31016135238036907  0.22484119634810892  0.691246710701037  1.0000
  C   C28       1.0  0.033219313304883306  0.6190337633109947  0.8095308557451517  1.0000
  C   C29       1.0  0.5765595365281511  0.7904451471797315  0.2125402408116769  1.0000
  C   C30       1.0  0.07814238323140903  0.36344003701449884  0.2864362631466051  1.0000
  C   C31       1.0  0.42344804563239796  0.2095360512198852  0.787448367280831  1.0000
  C   C32       1.0  0.9218545554560365  0.6365683209090065  0.7135682846059126  1.0000
  C   C33       1.0  0.6801953522958114  0.18855795498766528  0.3402364845728058  1.0000
  C   C34       1.0  0.347673420772999  0.3389397644552972  0.16003829124591826  1.0000
  C   C35       1.0  0.31978269676667287  0.8114201629321656  0.6597542794337699  1.0000
  C   C36       1.0  0.6523351523973558  0.6610594206287174  0.8399778650501586  1.0000
  C   C37       1.0  0.45990832959755323  0.6657000985792649  0.10000548308590855  1.0000
  C   C38       1.0  0.0667082236031789  0.35997715786154316  0.3988835745396385  1.0000
  C   C39       1.0  0.5400985290980317  0.33428217896086204  0.8999863267214109  1.0000
  C   C40       1.0  0.933289738132089  0.640031215362491  0.601122119818676  1.0000
  N   N1        1.0  0.4661806279503794  0.9457278903118436  0.12505673188895383  1.0000
  N   N2        1.0  0.3204086267838946  0.34003269720462725  0.3742101358637483  1.0000
  N   N3        1.0  0.533822815979839  0.054245900465524195  0.8749204323748216  1.0000
  N   N4        1.0  0.6795918977398331  0.659988267963051  0.6258071702043464  1.0000
  O   O1        1.0  0.29168814795887943  0.992671912121331  0.9333135838849813  1.0000
  O   O2        1.0  0.5590384081664865  0.3584264681483944  0.5668636044120489  1.0000
  O   O3        1.0  0.7082995646373363  0.007286209058754899  0.06665433637115825  1.0000
  O   O4        1.0  0.4409576448575693  0.6416038716511565  0.43315721522876766  1.0000
  O   O5        1.0  0.11406165223741742  0.9632334679619277  0.9789765509551814  1.0000
  O   O6        1.0  0.48265565640643626  0.1349049867468679  0.5224626036106343  1.0000
  O   O7        1.0  0.8859586490399423  0.0367958395011101  0.021044574415640047  1.0000
  O   O8        1.0  0.5173397224885862  0.8651339679907649  0.47758246690199974  1.0000
  O   O9        1.0  0.2811942896000588  0.8877849475824391  0.16567555811291612  1.0000
  O   O10       1.0  0.22097448078018536  0.1139168971573312  0.333835219308753  1.0000
  O   O11       1.0  0.7188226705123597  0.11220047744039618  0.8343191169118638  1.0000
  O   O12       1.0  0.7790567114697922  0.8860786516107878  0.6661414391061412  1.0000
  O   O13       1.0  0.8852731408223207  0.8673216413860912  0.18227371780475476  1.0000
  O   O14       1.0  0.18531243395190702  0.7022342890751929  0.3177476750454886  1.0000
  O   O15       1.0  0.11472746287742551  0.132688761943669  0.8177287746549239  1.0000
  O   O16       1.0  0.8146691548054149  0.29777359735818715  0.6822215397154847  1.0000
