data_image0
_chemical_formula_structural       Nd4H32C56N8O34
_chemical_formula_sum              "Nd4 H32 C56 N8 O34"
_cell_length_a       10.508273129682108
_cell_length_b       12.131749048430592
_cell_length_c       12.689
_cell_angle_alpha    109.94334549128043
_cell_angle_beta     100.71686639651162
_cell_angle_gamma    90.6609355102177

_space_group_name_H-M_alt    "P 1"
_space_group_IT_number       1

loop_
  _space_group_symop_operation_xyz
  'x, y, z'

loop_
  _atom_site_type_symbol
  _atom_site_label
  _atom_site_symmetry_multiplicity
  _atom_site_fract_x
  _atom_site_fract_y
  _atom_site_fract_z
  _atom_site_occupancy
  Nd  Nd1       1.0  0.9913537229119385  0.322054374036064  0.8900574941589456  1.0000
  Nd  Nd2       1.0  0.008644168797310704  0.6779456334419862  0.10994163194919082  1.0000
  Nd  Nd3       1.0  0.14388214885256184  0.05988867418377449  0.6438101915575984  1.0000
  Nd  Nd4       1.0  0.8561196169528814  0.9401113332942828  0.356190319236056  1.0000
  H   H1        1.0  0.6605529798266048  0.2270390697032525  0.890470808698929  1.0000
  H   H2        1.0  0.3394467700641997  0.7729600580034628  0.10952831666113383  1.0000
  H   H3        1.0  0.8682577563214978  0.86307415622111  0.8724955315393857  1.0000
  H   H4        1.0  0.1317460253985843  0.1369267310282822  0.12750478851952352  1.0000
  H   H5        1.0  0.6281117192605308  0.8665474934572757  0.8748179682457292  1.0000
  H   H6        1.0  0.37189287325050907  0.1334516342494467  0.12518190286601796  1.0000
  H   H7        1.0  0.5227307266677528  0.053079244039921  0.886035025830978  1.0000
  H   H8        1.0  0.47727088140459967  0.9469190038954594  0.11396567494934125  1.0000
  H   H9        1.0  0.28054493686367715  0.873663963797533  0.7256861685150185  1.0000
  H   H10       1.0  0.7194576397327239  0.1263342841378474  0.2743154694998111  1.0000
  H   H11       1.0  0.2153685863864183  0.9558126123352793  0.8223654916100216  1.0000
  H   H12       1.0  0.7846332582855665  0.0441882749141129  0.17763531823237602  1.0000
  H   H13       1.0  0.2136961639620196  0.514447168739963  0.799131934775062  1.0000
  H   H14       1.0  0.7863029328709102  0.485555478052099  0.20086508529298905  1.0000
  H   H15       1.0  0.5411498893550757  0.3139085712322043  0.8394727659579432  1.0000
  H   H16       1.0  0.45884904974476365  0.6860923160171879  0.16052838451761187  1.0000
  H   H17       1.0  0.6003037628846144  0.6892885252823859  0.9304731494330485  1.0000
  H   H18       1.0  0.399695176215232  0.3107123619670062  0.069532729547511  1.0000
  H   H19       1.0  0.6396381855126236  0.2938568229326322  0.6704341357586757  1.0000
  H   H20       1.0  0.3603614066450903  0.7061405452314133  0.3295683319247261  1.0000
  H   H21       1.0  0.4060383259527143  0.2609736096914546  0.5602770467294746  1.0000
  H   H22       1.0  0.5939632821196383  0.739024638243933  0.4397228659666794  1.0000
  H   H23       1.0  0.5210595250446205  0.9589841880030576  0.3090127522196796  1.0000
  H   H24       1.0  0.4789441778089126  0.0410158194749997  0.6909872687904867  1.0000
  H   H25       1.0  0.3478705262199994  0.0907642492352565  0.3757033732569823  1.0000
  H   H26       1.0  0.6521302710613953  0.9092357582428007  0.6242946241338317  1.0000
  H   H27       1.0  0.2219052452429366  0.39342934278807457  0.5761794568978403  1.0000
  H   H28       1.0  0.7780941891816866  0.6065662658333011  0.42381689609889156  1.0000
  H   H29       1.0  0.1336030879402159  0.584889579875373  0.343276058988046  1.0000
  H   H30       1.0  0.8663976304746297  0.41510954783134935  0.6567240036065201  1.0000
  H   H31       1.0  0.9955629867787008  0.21912464676086776  0.23649922509071794  1.0000
  H   H32       1.0  0.004437810502693694  0.7808753607171894  0.763496408047594  1.0000
  C   C1        1.0  0.7001639097767125  0.1427807295007852  0.8825686380748365  1.0000
  C   C2        1.0  0.2998378560287307  0.8572192779772648  0.11743108463464585  1.0000
  C   C3        1.0  0.8819984768601968  0.0391911737232746  0.8700894749696887  1.0000
  C   C4        1.0  0.11800232042119767  0.9608088337547827  0.12991009858946276  1.0000
  C   C5        1.0  0.8155986609736914  0.9396916823668136  0.8717236540659742  1.0000
  C   C6        1.0  0.18440504187984166  0.0603083251112437  0.1282755788600198  1.0000
  C   C7        1.0  0.6841122688634584  0.9427972751843612  0.8752295850591809  1.0000
  C   C8        1.0  0.3158903865994844  0.0572018525223612  0.1247676234993946  1.0000
  C   C9        1.0  0.6251711936124947  0.0466472357993908  0.8817305515027839  1.0000
  C   C10       1.0  0.3748304933264065  0.9533518919073245  0.11826966024212025  1.0000
  C   C11       1.0  0.2842736444207361  0.290156504691673  0.775162563048127  1.0000
  C   C12       1.0  0.7157261843366101  0.7098435027863844  0.2248384375290158  1.0000
  C   C13       1.0  0.8369131939951515  0.1614661929149079  0.6053126942147813  1.0000
  C   C14       1.0  0.1630866347621946  0.8385338145631493  0.39468909444653383  1.0000
  C   C15       1.0  0.6973894473763308  0.144534993545598  0.5448672972380351  1.0000
  C   C16       1.0  0.30261231842911224  0.8554650139324593  0.4551355778081217  1.0000
  C   C17       1.0  0.3177736196080474  0.5095837927922631  0.8231653785685396  1.0000
  C   C18       1.0  0.6822235401767927  0.4904188539997989  0.17683449553550906  1.0000
  C   C19       1.0  0.36922939536128047  0.402623833024947  0.8168642623741179  1.0000
  C   C20       1.0  0.6307684963479758  0.5973761744531103  0.1831364399023556  1.0000
  C   C21       1.0  0.5037297893440709  0.3989235147839878  0.8481300703086988  1.0000
  C   C22       1.0  0.49626930748885906  0.6010791320080813  0.1518724663485216  1.0000
  C   C23       1.0  0.5878086031952349  0.5010790432831413  0.8913280169916931  1.0000
  C   C24       1.0  0.41218936738056294  0.4989218439662508  0.10867613667019779  1.0000
  C   C25       1.0  0.4037572594030152  0.6098997194269771  0.860738756627704  1.0000
  C   C26       1.0  0.5962416796968312  0.39010116782241505  0.13926239384785793  1.0000
  C   C27       1.0  0.7313751024021187  0.4979593741242141  0.9336473824741844  1.0000
  C   C28       1.0  0.268621820783089  0.5020406333538432  0.06635553490445296  1.0000
  C   C29       1.0  0.5367613029916356  0.6085008830020797  0.8975833820656263  1.0000
  C   C30       1.0  0.4632376361082109  0.39150000424731957  0.1024209207466029  1.0000
  C   C31       1.0  0.6074849593589704  0.2217270103739821  0.5894951335206216  1.0000
  C   C32       1.0  0.3925146327987434  0.7782703577900634  0.41050496991027796  1.0000
  C   C33       1.0  0.479764897584289  0.2036213162705636  0.528331413064187  1.0000
  C   C34       1.0  0.5202377578786539  0.7963778114361588  0.4716697359152208  1.0000
  C   C35       1.0  0.542277037284542  0.0348046338399115  0.3879677319718696  1.0000
  C   C36       1.0  0.4577248073874428  0.9651962534094807  0.6120346540388653  1.0000
  C   C37       1.0  0.44675664717565405  0.1085673019989457  0.4257057712101684  1.0000
  C   C38       1.0  0.553245929420747  0.8914309459364346  0.5742935025521589  1.0000
  C   C39       1.0  0.08714561126438268  0.184239073958004  0.4362097491578325  1.0000
  C   C40       1.0  0.9128510753211926  0.8157582942060415  0.5637875425695569  1.0000
  C   C41       1.0  0.10435776860719409  0.2949433405331021  0.40980587187569034  1.0000
  C   C42       1.0  0.895638996844923  0.7050549074022783  0.5901885665637749  1.0000
  C   C43       1.0  0.17576148221689175  0.39491615634661764  0.4925277981698812  1.0000
  C   C44       1.0  0.8242381888073707  0.6050820915887698  0.5074710281414312  1.0000
  C   C45       1.0  0.0637789514988469  0.3999634045036302  0.27566148801808055  1.0000
  C   C46       1.0  0.9362207983919574  0.6000357232030922  0.7243360611736449  1.0000
  C   C47       1.0  0.1258074461710734  0.503318941105654  0.36071125042180807  1.0000
  C   C48       1.0  0.8741943985009114  0.4966819461437381  0.639290347504762  1.0000
  C   C49       1.0  0.0496767580145629  0.2976002499690793  0.3015273290327301  1.0000
  C   C50       1.0  0.95032396040029  0.7023988777376431  0.698472733561836  1.0000
  C   C51       1.0  0.18259575384445978  0.4974508662917643  0.4668792978984301  1.0000
  C   C52       1.0  0.817403838313254  0.5025465018722812  0.5331176531958022  1.0000
  C   C53       1.0  0.0223037453792969  0.0390847213915677  0.8624822178849882  1.0000
  C   C54       1.0  0.9776989889501877  0.9609152860864896  0.13751686589067466  1.0000
  C   C55       1.0  0.019221214079934202  0.3951792079762058  0.15471135010848514  1.0000
  C   C56       1.0  0.980777803886454  0.6048225590445284  0.8452877351633178  1.0000
  N   N1        1.0  0.825575098839799  0.1393548999167891  0.8743967325288224  1.0000
  N   N2        1.0  0.17442577730813716  0.860645987332603  0.12560235199490685  1.0000
  N   N3        1.0  0.6657467252150652  0.0524510873057196  0.44598889589219953  1.0000
  N   N4        1.0  0.3342539931997877  0.9475480404009957  0.5540103786182016  1.0000
  N   N5        1.0  0.3528824963500483  0.7210289155575681  0.8577300579590245  1.0000
  N   N6        1.0  0.6471163638832566  0.2789710919204893  0.1422692172994502  1.0000
  N   N7        1.0  0.2565361482442299  0.6022976153090127  0.554539780153064  1.0000
  N   N8        1.0  0.743463443913484  0.3976997528550328  0.44545874710949823  1.0000
  O   O1        1.0  0.1603199406003526  0.2915711770006268  0.7609218127787969  1.0000
  O   O2        1.0  0.8396778722423546  0.7084279507060955  0.23907701428058914  1.0000
  O   O3        1.0  0.3395357285399854  0.1944760932285305  0.7508539520732144  1.0000
  O   O4        1.0  0.6604632894264028  0.8055256737921966  0.24914828553525595  1.0000
  O   O5        1.0  0.9127790016027929  0.0850853252586958  0.5606394582604254  1.0000
  O   O6        1.0  0.08722276420265018  0.9149146822193615  0.4393665691223988  1.0000
  O   O7        1.0  0.8713667767325717  0.249101095506532  0.6958391789960104  1.0000
  O   O8        1.0  0.1286324778334489  0.7509033108282068  0.3041631676745382  1.0000
  O   O9        1.0  0.234909702240202  0.7210421121276127  0.821808150805282  1.0000
  O   O10       1.0  0.7650903631167836  0.2789605346644564  0.1781921707497744  1.0000
  O   O11       1.0  0.7944686438126991  0.5961576911521718  0.9924657997920507  1.0000
  O   O12       1.0  0.2055294056296475  0.4038440758685553  0.007534712497751211  1.0000
  O   O13       1.0  0.7773941094211594  0.3977578177632353  0.9080313170060919  1.0000
  O   O14       1.0  0.22260176637345805  0.6022413099434871  0.09197351642595925  1.0000
  O   O15       1.0  0.4312132171243945  0.809042999595185  0.8898719798866142  1.0000
  O   O16       1.0  0.5687875801570001  0.1909570078828722  0.11012680558837225  1.0000
  O   O17       1.0  0.06594467623773431  0.12155448646710451  0.8300068336153927  1.0000
  O   O18       1.0  0.9340552313861535  0.8784464007822876  0.16999052558966116  1.0000
  O   O19       1.0  0.1645230832802227  0.1753489846035308  0.5224572032486209  1.0000
  O   O20       1.0  0.8354729502474783  0.8246519026458615  0.4775427116917543  1.0000
  O   O21       1.0  0.9968054520522144  0.108554105428901  0.3702161353533527  1.0000
  O   O22       1.0  0.003193408181083201  0.8914459020491562  0.6297831399051219  1.0000
  O   O23       1.0  0.3560135554459194  0.587326546477243  0.6165671749408261  1.0000
  O   O24       1.0  0.6439860367117944  0.41267082168680247  0.3834321404059083  1.0000
  O   O25       1.0  0.2159890944099132  0.6999795065624994  0.5616552673371304  1.0000
  O   O26       1.0  0.7840095292237592  0.3000178616015461  0.43834468694343093  1.0000
  O   O27       1.0  0.08937767892117418  0.96280855400245  0.8842697961257429  1.0000
  O   O28       1.0  0.9106243234838941  0.0371940927896119  0.11573003564581802  1.0000
  O   O29       1.0  0.27002654723076347  0.9565287462031193  0.7650181148926906  1.0000
  O   O30       1.0  0.7299750608415891  0.0434695017322611  0.2349810097192986  1.0000
  O   O31       1.0  0.008036857362640095  0.2955134323591011  0.07582610761517829  1.0000
  O   O32       1.0  0.9919629713947061  0.7044865751189562  0.9241741048778067  1.0000
  O   O33       1.0  0.9982484901838474  0.49076900299169773  0.13506094210479352  1.0000
  O   O34       1.0  0.0017503700494572037  0.5092310044863595  0.8649391212378533  1.0000
