data_image0
_chemical_formula_structural       Nd4H36C24O36
_chemical_formula_sum              "Nd4 H36 C24 O36"
_cell_length_a       10.018303953026612
_cell_length_b       8.540766506588316
_cell_length_c       12.044904630995056
_cell_angle_alpha    110.27079154881027
_cell_angle_beta     89.99975151884527
_cell_angle_gamma    90.00017869551624

_space_group_name_H-M_alt    "P 1"
_space_group_IT_number       1

loop_
  _space_group_symop_operation_xyz
  'x, y, z'

loop_
  _atom_site_type_symbol
  _atom_site_label
  _atom_site_symmetry_multiplicity
  _atom_site_fract_x
  _atom_site_fract_y
  _atom_site_fract_z
  _atom_site_occupancy
  Nd  Nd1       1.0  0.18436344906584887  0.9672693559968978  0.9172891975691259  1.0000
  Nd  Nd2       1.0  0.6843598622150681  0.032726870251629216  0.5827100273856232  1.0000
  Nd  Nd3       1.0  0.8156408818149998  0.0327332493994206  0.0827090876351519  1.0000
  Nd  Nd4       1.0  0.31563947779358165  0.967274320957124  0.4172903615174945  1.0000
  H   H1        1.0  0.14310632845750604  0.508148670573931  0.5412575763114305  1.0000
  H   H2        1.0  0.6431010196392181  0.4918446421410678  0.9587459828044942  1.0000
  H   H3        1.0  0.8568950078980182  0.4918574525324715  0.4587450019290528  1.0000
  H   H4        1.0  0.35689732219186965  0.5081527525711637  0.04125419157052332  1.0000
  H   H5        1.0  0.22954575035247166  0.4442110267108034  0.6448031646696535  1.0000
  H   H6        1.0  0.729542157982145  0.5557751502338987  0.8551956212685995  1.0000
  H   H7        1.0  0.7704555860003099  0.5557839856914201  0.3551946914799515  1.0000
  H   H8        1.0  0.2704521911631802  0.4442248498131606  0.14480360853178104  1.0000
  H   H9        1.0  0.44423203713657944  0.5330274393699598  0.59682037077161  1.0000
  H   H10       1.0  0.9442219615300259  0.46696785337888247  0.9031809750522655  1.0000
  H   H11       1.0  0.555774290066829  0.46696599158561714  0.4031820361626899  1.0000
  H   H12       1.0  0.05577438396359472  0.5330358874092767  0.09681928497507639  1.0000
  H   H13       1.0  0.3623932013865244  0.5763584633942501  0.47990728691748796  1.0000
  H   H14       1.0  0.8623870164964558  0.42363753519919806  0.020095453493574677  1.0000
  H   H15       1.0  0.6376071367852277  0.42363757289409415  0.5200941754452444  1.0000
  H   H16       1.0  0.13760633447733991  0.5763612736902816  0.9799026171979364  1.0000
  H   H17       1.0  0.3745821986057224  0.6687278555845495  0.7908467575156877  1.0000
  H   H18       1.0  0.8745827540617483  0.3312632738759689  0.709157850586024  1.0000
  H   H19       1.0  0.6254191377323155  0.33126801343542667  0.209157151946691  1.0000
  H   H20       1.0  0.1254165859497434  0.6687355350196996  0.2908402200962854  1.0000
  H   H21       1.0  0.12118708612402433  0.23346202958990858  0.156723869931426  1.0000
  H   H22       1.0  0.6211851291210381  0.7665402074601461  0.3432739874054036  1.0000
  H   H23       1.0  0.8788132520612139  0.7665380262197985  0.8432745441593639  1.0000
  H   H24       1.0  0.3788132127197202  0.23345865719095124  0.6567232675780375  1.0000
  H   H25       1.0  0.4442455154762684  0.18716298055526445  0.9862093561148199  1.0000
  H   H26       1.0  0.9442494082745868  0.8128321449664284  0.5137944367473608  1.0000
  H   H27       1.0  0.5557538245285657  0.8128356610710057  0.01379116166867085  1.0000
  H   H28       1.0  0.0557559207619107  0.18716389132707434  0.4862070256076976  1.0000
  H   H29       1.0  0.2554501576995137  0.1465063472594821  0.1776939081233024  1.0000
  H   H30       1.0  0.7554515424365819  0.8534874943182301  0.3223003170701233  1.0000
  H   H31       1.0  0.744547185962894  0.853487473982078  0.8223027889220376  1.0000
  H   H32       1.0  0.2445497939153967  0.1465062711709848  0.6776971956694737  1.0000
  H   H33       1.0  0.4800521021491734  0.04912488476210804  0.8663592028685584  1.0000
  H   H34       1.0  0.9800537453181876  0.9508755811070561  0.6336417751075345  1.0000
  H   H35       1.0  0.519950232381163  0.9508739241366512  0.13363886780914666  1.0000
  H   H36       1.0  0.0199455946934819  0.0491269127711789  0.36635814150520224  1.0000
  C   C1        1.0  0.49939742680589927  0.7644655289635695  0.5785465970113252  1.0000
  C   C2        1.0  0.9993936114764428  0.23554126715597332  0.9214552228778885  1.0000
  C   C3        1.0  0.5006049077165359  0.2355379888049072  0.4214569258083998  1.0000
  C   C4        1.0  0.0006027340222374002  0.7644601470755532  0.07854190322824908  1.0000
  C   C5        1.0  0.27681954211833937  0.69476247534039  0.6526545524271086  1.0000
  C   C6        1.0  0.7768153079357419  0.3052323045560144  0.8473497549193852  1.0000
  C   C7        1.0  0.723185786916112  0.30523719017921286  0.3473495715587731  1.0000
  C   C8        1.0  0.22317704486590637  0.6947677512454504  0.15264865918366868  1.0000
  C   C9        1.0  0.0531795794965504  0.5812468363302371  0.712370040293642  1.0000
  C   C10       1.0  0.5531779648331111  0.41874379692705327  0.7876331083263466  1.0000
  C   C11       1.0  0.9468207586747467  0.4187553230102381  0.2876347705199294  1.0000
  C   C12       1.0  0.44682037699131893  0.5812534305157798  0.21236951314985927  1.0000
  C   C13       1.0  0.17689729276363414  0.5511932948599281  0.6338486321173704  1.0000
  C   C14       1.0  0.6768873621545312  0.4487990079612559  0.8661520326605155  1.0000
  C   C15       1.0  0.8231120289797433  0.4488092547850755  0.36615046877962953  1.0000
  C   C16       1.0  0.3231059888192648  0.5511998009282236  0.1338460380309954  1.0000
  C   C17       1.0  0.20478865086302284  0.835201448224055  0.6253102945787674  1.0000
  C   C18       1.0  0.7047769029727747  0.16478999979707254  0.874685046884082  1.0000
  C   C19       1.0  0.7952226672127625  0.16479708190164644  0.3746918545871125  1.0000
  C   C20       1.0  0.2952174461816029  0.8352139082584172  0.1253127660451412  1.0000
  C   C21       1.0  0.3973151140694356  0.6315029866640034  0.5717627314974649  1.0000
  C   C22       1.0  0.8973146200865902  0.368494591557372  0.9282410767003028  1.0000
  C   C23       1.0  0.6026852240962769  0.3684904442853849  0.42823967544603647  1.0000
  C   C24       1.0  0.10268372175815439  0.6315105076587884  0.07175789533319228  1.0000
  O   O1        1.0  0.40426077507965624  0.10486162265637941  0.9162442324820148  1.0000
  O   O2        1.0  0.9042635265420033  0.8951412920970867  0.5837560338055923  1.0000
  O   O3        1.0  0.5957405612845649  0.8951410384933141  0.083753237026464  1.0000
  O   O4        1.0  0.0957388079831034  0.10485615837572483  0.4162433248628972  1.0000
  O   O5        1.0  0.4588748245824165  0.9009208773145828  0.5637062245641857  1.0000
  O   O6        1.0  0.9588755501481786  0.09908090326338481  0.9362935304967479  1.0000
  O   O7        1.0  0.5411215209035732  0.0990777643085963  0.4362942932239093  1.0000
  O   O8        1.0  0.041118799014896  0.9009195428353893  0.06369917370047061  1.0000
  O   O9        1.0  0.21015527120031416  0.1884456423527752  0.12119337909608419  1.0000
  O   O10       1.0  0.7101542484422724  0.8115568341114425  0.37880338915466183  1.0000
  O   O11       1.0  0.7898430706396483  0.8115519753853138  0.878803532477349  1.0000
  O   O12       1.0  0.28984409339626893  0.18844197478318853  0.6211946815291824  1.0000
  O   O13       1.0  0.6209498654761917  0.7457710574218408  0.5963266058278194  1.0000
  O   O14       1.0  0.12094559092275863  0.2542326309125258  0.9036732430465122  1.0000
  O   O15       1.0  0.37905147086806323  0.2542311019196717  0.40367820498421736  1.0000
  O   O16       1.0  0.8790497563950624  0.745773492187695  0.09632933520317273  1.0000
  O   O17       1.0  0.16180327500777744  0.9602219187025582  0.711501870756493  1.0000
  O   O18       1.0  0.6617876463902306  0.03977556363212641  0.7884969512499821  1.0000
  O   O19       1.0  0.8382190229923553  0.03978697703383461  0.2884973157698312  1.0000
  O   O20       1.0  0.33820071372422694  0.9602282886607227  0.21150167738883846  1.0000
  O   O21       1.0  0.18436628961939763  0.8169866418260554  0.5179052110086033  1.0000
  O   O22       1.0  0.6843600161711408  0.1830019914345584  0.9820935848822715  1.0000
  O   O23       1.0  0.8156360449034851  0.18301075289029  0.482094963360275  1.0000
  O   O24       1.0  0.31563932384034393  0.8169968174611102  0.01790448580003813  1.0000
  O   O25       1.0  0.3235627555074246  0.7593902598549461  0.7728553975687973  1.0000
  O   O26       1.0  0.8235609729424027  0.24059599965769246  0.7271447308690496  1.0000
  O   O27       1.0  0.6764435717040629  0.24060214721347253  0.2271434031539172  1.0000
  O   O28       1.0  0.17643637072461626  0.7594016180793588  0.2728521807059252  1.0000
  O   O29       1.0  0.04168655721883851  0.7153392136127933  0.80439672679735  1.0000
  O   O30       1.0  0.5416840622902086  0.28465926769190025  0.695602807697405  1.0000
  O   O31       1.0  0.958318771835309  0.2846707617496946  0.1956052502662402  1.0000
  O   O32       1.0  0.4583122832026092  0.7153432261832435  0.3043971089199288  1.0000
  O   O33       1.0  0.9670647348651472  0.4670611375649117  0.6810594903495968  1.0000
  O   O34       1.0  0.46706166523038933  0.5329299597774052  0.8189480963760047  1.0000
  O   O35       1.0  0.0329356033075783  0.5329398306190214  0.31894416135357057  1.0000
  O   O36       1.0  0.5329316857182037  0.46706698887795284  0.1810586036098343  1.0000
