data_image0
_chemical_formula_structural       Cu2H4C4N16O2
_chemical_formula_sum              "Cu2 H4 C4 N16 O2"
_cell_length_a       6.804269403436762
_cell_length_b       6.803951965189043
_cell_length_c       7.74823808443367
_cell_angle_alpha    105.76545547829377
_cell_angle_beta     106.55622921388388
_cell_angle_gamma    111.47214544957957

_space_group_name_H-M_alt    "P 1"
_space_group_IT_number       1

loop_
  _space_group_symop_operation_xyz
  'x, y, z'

loop_
  _atom_site_type_symbol
  _atom_site_label
  _atom_site_symmetry_multiplicity
  _atom_site_fract_x
  _atom_site_fract_y
  _atom_site_fract_z
  _atom_site_occupancy
  Cu  Cu1       1.0  0.5000002201401939  0.9999997609429413  0.9999996418508558  1.0000
  Cu  Cu2       1.0  0.49999961769323426  0.4999985997385323  0.4999990231141567  1.0000
  H   H1        1.0  0.34913314726277617  0.4728336723561524  0.8014953254886947  1.0000
  H   H2        1.0  0.17162831724909466  0.5476093323905006  0.6986244011890933  1.0000
  H   H3        1.0  0.650867772253477  0.5271670038648892  0.19850784675470828  1.0000
  H   H4        1.0  0.8283709005574237  0.4523878584369997  0.3013788010240148  1.0000
  C   C1        1.0  0.750420774174792  0.12895962184818896  0.7358997827128919  1.0000
  C   C2        1.0  0.8930635675760995  0.014403694986995697  0.7641044333580568  1.0000
  C   C3        1.0  0.24957304664534508  0.8710515970087725  0.26409250019235486  1.0000
  C   C4        1.0  0.1069455073888647  0.9855916920914821  0.2358995326160027  1.0000
  N   N1        1.0  0.5150469492925324  0.2656968120851103  0.759769210049143  1.0000
  N   N2        1.0  0.006013379038144232  0.7552445111367802  0.7402182359136306  1.0000
  N   N3        1.0  0.48495313035632387  0.7343021268451366  0.24023075468862487  1.0000
  N   N4        1.0  0.9939851718363072  0.24475443697858873  0.2597813456426507  1.0000
  N   N5        1.0  0.6017107020778736  0.3229209417420193  0.6386082848317615  1.0000
  N   N6        1.0  0.18434833181194668  0.9630786004269678  0.8613955613531701  1.0000
  N   N7        1.0  0.39828938196596647  0.6770779993506223  0.3613903909098041  1.0000
  N   N8        1.0  0.8156510721148607  0.0369220914663586  0.1386033607201611  1.0000
  N   N9        1.0  0.6062671579147008  0.14183734944226248  0.8234480935291588  1.0000
  N   N10       1.0  0.8184416275031339  0.7827352691047055  0.6765217931529577  1.0000
  N   N11       1.0  0.3937344549035443  0.8581615824652572  0.17655096539390056  1.0000
  N   N12       1.0  0.1815593095930623  0.217265415765894  0.3234762231056649  1.0000
  N   N13       1.0  0.7505733966872724  0.24255680951735306  0.6195691324572863  1.0000
  N   N14       1.0  0.1229831918501745  0.13095043265148124  0.8804439888415488  1.0000
  N   N15       1.0  0.2494266785665929  0.7574421272504993  0.38043212127667664  1.0000
  N   N16       1.0  0.87701451915688  0.8690467781730858  0.1195523852090901  1.0000
  O   O1        1.0  0.3373713955131307  0.5871788261576825  0.7500779754086296  1.0000
  O   O2        1.0  0.6626286753457504  0.4128201084477822  0.24992456732152143  1.0000
