data_image0
_chemical_formula_structural       Cu12H36C84N72
_chemical_formula_sum              "Cu12 H36 C84 N72"
_cell_length_a       32.498707767055315
_cell_length_b       32.733450317893876
_cell_length_c       32.77127132694307
_cell_angle_alpha    90.01469659404567
_cell_angle_beta     90.12042400275759
_cell_angle_gamma    89.89793297201712

_space_group_name_H-M_alt    "P 1"
_space_group_IT_number       1

loop_
  _space_group_symop_operation_xyz
  'x, y, z'

loop_
  _atom_site_type_symbol
  _atom_site_label
  _atom_site_symmetry_multiplicity
  _atom_site_fract_x
  _atom_site_fract_y
  _atom_site_fract_z
  _atom_site_occupancy
  Cu  Cu1       1.0  0.37442998667291494  0.5862553350851203  0.6639322308587978  1.0000
  Cu  Cu2       1.0  0.33446996253417177  0.6255510501993555  0.5840683829945519  1.0000
  Cu  Cu3       1.0  0.4146985104454046  0.6645190844018033  0.6238198756615461  1.0000
  Cu  Cu4       1.0  0.6237673132811989  0.9149060329948214  0.16298050497240985  1.0000
  Cu  Cu5       1.0  0.6651629228509607  0.8738227174654939  0.08549593995839193  1.0000
  Cu  Cu6       1.0  0.5847996826921714  0.8345690723884049  0.12429954899566552  1.0000
  Cu  Cu7       1.0  0.8754104888554295  0.41409571803684025  0.8362373460912025  1.0000
  Cu  Cu8       1.0  0.8352249107840989  0.3739967197965798  0.9148994132127228  1.0000
  Cu  Cu9       1.0  0.9148872970630747  0.33425808480593844  0.8752396536988556  1.0000
  Cu  Cu10      1.0  0.12399154929948249  0.0856848287728553  0.3370220615891313  1.0000
  Cu  Cu11      1.0  0.16507541362171446  0.12635265749872104  0.4148956961054253  1.0000
  Cu  Cu12      1.0  0.08447601725169557  0.16571925229717274  0.3758842882904858  1.0000
  H   H1        1.0  0.30945495144995766  0.5159377487579067  0.6820474574732673  1.0000
  H   H2        1.0  0.26449506383178795  0.5597831244943022  0.5653005929054871  1.0000
  H   H3        1.0  0.4863484520253962  0.6827637321253167  0.6882167913537602  1.0000
  H   H4        1.0  0.43901062467740803  0.5684332285654037  0.7355475308511289  1.0000
  H   H5        1.0  0.31571917414543543  0.6913356727373741  0.5143463897004494  1.0000
  H   H6        1.0  0.4335613130880347  0.734586820434224  0.5590209734061207  1.0000
  H   H7        1.0  0.6877558137255518  0.9868697760672167  0.18053982765903953  1.0000
  H   H8        1.0  0.7375199471765299  0.9373264413304269  0.06821234275736292  1.0000
  H   H9        1.0  0.5155451448885061  0.8151711403929769  0.1905164463608884  1.0000
  H   H10       1.0  0.5581314463939291  0.9333448299684123  0.2328460861162611  1.0000
  H   H11       1.0  0.6838335527296237  0.8088228015968255  0.015325947257650803  1.0000
  H   H12       1.0  0.5657487593489491  0.7651225861102943  0.0584252961461686  1.0000
  H   H13       1.0  0.8096494088126318  0.4842968688554734  0.8176731827097967  1.0000
  H   H14       1.0  0.7650844386153108  0.4395632053108899  0.9340092200751046  1.0000
  H   H15       1.0  0.9847890403113412  0.3152446002074499  0.8094574235261477  1.0000
  H   H16       1.0  0.9416184359321632  0.4333072844540596  0.767042327636112  1.0000
  H   H17       1.0  0.8161213020560466  0.30842923662272187  0.9844004370927095  1.0000
  H   H18       1.0  0.933904360723751  0.26423044456358014  0.9405724069998556  1.0000
  H   H19       1.0  0.18838557258204247  0.0141147395968773  0.319167568124236  1.0000
  H   H20       1.0  0.23734215843568757  0.06232939931872751  0.432545168698752  1.0000
  H   H21       1.0  0.014466757985978497  0.18468709911642386  0.3100196081691706  1.0000
  H   H22       1.0  0.058491742118349094  0.06724499349503078  0.2668750468211344  1.0000
  H   H23       1.0  0.18366248416722186  0.1914258414346648  0.4850776354212628  1.0000
  H   H24       1.0  0.06558990855165801  0.23543387925008125  0.4413818238128471  1.0000
  H   H25       1.0  0.8212268042959109  0.12410280712607859  0.0705215209450856  1.0000
  H   H26       1.0  0.9287581326337246  0.17882394238830565  0.12493501484620141  1.0000
  H   H27       1.0  0.874888363440064  0.07147428204543621  0.17892597720685197  1.0000
  H   H28       1.0  0.17861140338537498  0.3751822254060502  0.5712912445345852  1.0000
  H   H29       1.0  0.07118179878391118  0.3211115972760369  0.6260380344939805  1.0000
  H   H30       1.0  0.1254340750869147  0.4288946109827735  0.6791602401646841  1.0000
  H   H31       1.0  0.32173365029849776  0.8758942844518104  0.4290782894347985  1.0000
  H   H32       1.0  0.42928149793034714  0.8210018698129959  0.3749658115670655  1.0000
  H   H33       1.0  0.3752589276246923  0.9286097047929049  0.3209840025743064  1.0000
  H   H34       1.0  0.6250937039168746  0.5710010122645672  0.8214271719219681  1.0000
  H   H35       1.0  0.5714605244351745  0.6793547266687838  0.8741375213507538  1.0000
  H   H36       1.0  0.6788716170490403  0.6246520788550782  0.9291716940658645  1.0000
  C   C1        1.0  0.303736489352211  0.5322679026463819  0.6537920995547496  1.0000
  C   C2        1.0  0.27390962625421617  0.5246668093514657  0.6236644506893114  1.0000
  C   C3        1.0  0.2810321319428439  0.5543779668105486  0.5935882343303334  1.0000
  C   C4        1.0  0.46920990380519356  0.6550597815292251  0.6944969640113997  1.0000
  C   C5        1.0  0.47585096046282144  0.6256459273121849  0.7250446003286868  1.0000
  C   C6        1.0  0.44524870612801226  0.5960872940382343  0.7184212210985095  1.0000
  C   C7        1.0  0.34423478092159593  0.6966266148253059  0.5307769672012768  1.0000
  C   C8        1.0  0.37471449098603665  0.7261473312446401  0.523651810373643  1.0000
  C   C9        1.0  0.40499457578858505  0.7184387645537386  0.5533430048881485  1.0000
  C   C10       1.0  0.6945591825683407  0.9692392952498566  0.1533386194971698  1.0000
  C   C11       1.0  0.7257859941762702  0.9752315696018458  0.12437006633700781  1.0000
  C   C12       1.0  0.7197607588119579  0.9441721218108728  0.09537131135076751  1.0000
  C   C13       1.0  0.5314795985560818  0.8438341194506481  0.19558013406464173  1.0000
  C   C14       1.0  0.5237818255135522  0.8741902653449287  0.22492217091520672  1.0000
  C   C15       1.0  0.5529602226798147  0.9047579650098144  0.21689006571762093  1.0000
  C   C16       1.0  0.6552410641025899  0.8033827844791974  0.0314529924143088  1.0000
  C   C17       1.0  0.6248002595131581  0.7739372177082803  0.0237191801341083  1.0000
  C   C18       1.0  0.5943552386452778  0.7813292977939527  0.05320080730086831  1.0000
  C   C19       1.0  0.8040846213009232  0.46779853187134535  0.845826517786584  1.0000
  C   C20       1.0  0.7742603180338675  0.47513269407475195  0.8759234151620278  1.0000
  C   C21       1.0  0.7815869615537137  0.44526286971814244  0.9058373678023772  1.0000
  C   C22       1.0  0.9686470959359922  0.343839024655935  0.8043347362374648  1.0000
  C   C23       1.0  0.9763605224615544  0.37429541392813803  0.7751458297686966  1.0000
  C   C24       1.0  0.9468548094127484  0.4047060650134924  0.7829597883101087  1.0000
  C   C25       1.0  0.8446341666921241  0.3028822892914321  0.9681365038693743  1.0000
  C   C26       1.0  0.8750106575980255  0.2731918866449377  0.9755481764438443  1.0000
  C   C27       1.0  0.9053623981351676  0.28057644458046843  0.9460066870404944  1.0000
  C   C28       1.0  0.19500196078902118  0.03142962350177212  0.346624648820324  1.0000
  C   C29       1.0  0.2260883539821634  0.025090464903371402  0.3758201396473738  1.0000
  C   C30       1.0  0.21979939275926336  0.05582602123789121  0.405103270666345  1.0000
  C   C31       1.0  0.03080419402491689  0.15623995713210093  0.30476283242585833  1.0000
  C   C32       1.0  0.0234258946391321  0.12602371480289076  0.2752033314970532  1.0000
  C   C33       1.0  0.053011870794605884  0.09566441528391319  0.2830269972916782  1.0000
  C   C34       1.0  0.15506232509377327  0.19690828694665194  0.46882664536610014  1.0000
  C   C35       1.0  0.12461601489908251  0.2264667110143463  0.4763901366401201  1.0000
  C   C36       1.0  0.09418972626182409  0.2191395282061848  0.4467757352932367  1.0000
  C   C37       1.0  0.8447071027296215  0.09442142165993771  0.12472009254638289  1.0000
  C   C38       1.0  0.8447206432106353  0.12438866666108342  0.09427668074191331  1.0000
  C   C39       1.0  0.8749537206131563  0.1547989498122391  0.0943857280713019  1.0000
  C   C40       1.0  0.9051970056323952  0.15519708445878425  0.12485796185227832  1.0000
  C   C41       1.0  0.9051136702377107  0.1251953038910685  0.15526707306436555  1.0000
  C   C42       1.0  0.874864273719666  0.0948097628610824  0.15524680232011434  1.0000
  C   C43       1.0  0.15530245926694158  0.405382156017332  0.6251474968527406  1.0000
  C   C44       1.0  0.15516398719681485  0.3751154525688919  0.594982962101831  1.0000
  C   C45       1.0  0.12486875513581451  0.34480047261894253  0.5953147711890665  1.0000
  C   C46       1.0  0.09476128935705219  0.3447158518132626  0.6257852500076383  1.0000
  C   C47       1.0  0.0949905602214471  0.37497493630409917  0.6559740395855584  1.0000
  C   C48       1.0  0.12526016815453286  0.4053409293160257  0.6556821751160129  1.0000
  C   C49       1.0  0.34513186196956963  0.9056279845568512  0.37503818509338066  1.0000
  C   C50       1.0  0.34519354416602965  0.8755709382496235  0.40539686813056625  1.0000
  C   C51       1.0  0.3754345447240013  0.8450666545129268  0.4053228938777877  1.0000
  C   C52       1.0  0.40569993347443045  0.8446866443582337  0.37499902790672485  1.0000
  C   C53       1.0  0.40560064410144037  0.8747791208409268  0.3446488357152901  1.0000
  C   C54       1.0  0.37527972032988527  0.9052213720348236  0.3446219639252561  1.0000
  C   C55       1.0  0.6553015417283489  0.5945342529553131  0.8753111062701535  1.0000
  C   C56       1.0  0.6250600373081311  0.594628887750453  0.8448319825609687  1.0000
  C   C57       1.0  0.5948836758086029  0.6251762595996911  0.8444465258798461  1.0000
  C   C58       1.0  0.5949421451228714  0.6555682010498032  0.8744812733307228  1.0000
  C   C59       1.0  0.6251515715619433  0.6553651077787704  0.9049926617377082  1.0000
  C   C60       1.0  0.6553522199866036  0.6248418753007671  0.9054388886872644  1.0000
  C   C61       1.0  0.7571817846308305  0.0064692174204595  0.12447105292680759  1.0000
  C   C62       1.0  0.8129405979442197  0.062391378752209896  0.1246364732808161  1.0000
  C   C63       1.0  0.24281822212468276  0.49317183201635845  0.6239088957115513  1.0000
  C   C64       1.0  0.18717373792862443  0.4372246438055711  0.6247247005040109  1.0000
  C   C65       1.0  0.2575260142686631  0.9937867916570229  0.3756327236083622  1.0000
  C   C66       1.0  0.31333317537558963  0.937730624864294  0.375196649407691  1.0000
  C   C67       1.0  0.7428993944387015  0.5064741211019168  0.8758862017589948  1.0000
  C   C68       1.0  0.6871144133143973  0.5625107399656886  0.8755853816821502  1.0000
  C   C69       1.0  0.9923324923340076  0.12593624194068545  0.2436270045295856  1.0000
  C   C70       1.0  0.9368630720259145  0.12552562018312596  0.187316637541393  1.0000
  C   C71       1.0  0.5072232419304754  0.6256080406158163  0.7564001566418312  1.0000
  C   C72       1.0  0.5630618879338981  0.6253466406198244  0.8124039874229751  1.0000
  C   C73       1.0  0.007684863285774701  0.3744433764164796  0.7439074694092086  1.0000
  C   C74       1.0  0.06334417873497958  0.3748108791996359  0.6880052106686707  1.0000
  C   C75       1.0  0.49278016789800455  0.874193141356649  0.2564961232995344  1.0000
  C   C76       1.0  0.4373611898087971  0.8744968679385323  0.31270012919501516  1.0000
  C   C77       1.0  0.8749814286851816  0.2419582248243017  0.006725061231627201  1.0000
  C   C78       1.0  0.8749448777078682  0.18640182814564812  0.06245480697136681  1.0000
  C   C79       1.0  0.3749005931417385  0.7575645068729743  0.49266436891694104  1.0000
  C   C80       1.0  0.37529770958990116  0.8133559054772589  0.4371583410466258  1.0000
  C   C81       1.0  0.6248782649551997  0.7429008240815452  0.9923281765713696  1.0000
  C   C82       1.0  0.6250944800272933  0.6872698554618994  0.9366332779180127  1.0000
  C   C83       1.0  0.12463313231430108  0.25751546679865817  0.5077517548496999  1.0000
  C   C84       1.0  0.12473758820592447  0.3129965010284507  0.5635615755868529  1.0000
  N   N1        1.0  0.3126109433774786  0.5781527994361754  0.6052030196709097  1.0000
  N   N2        1.0  0.32711416798458964  0.564009976940632  0.6422879029917752  1.0000
  N   N3        1.0  0.42191256722231424  0.6073123386448599  0.6864425346568624  1.0000
  N   N4        1.0  0.4371653073887811  0.6436181255343101  0.6712057201345658  1.0000
  N   N5        1.0  0.3932022958634747  0.6868075097306559  0.5766334199486423  1.0000
  N   N6        1.0  0.35576973486869434  0.6728654799781069  0.5622129614732003  1.0000
  N   N7        1.0  0.687463788800983  0.9211926777524158  0.10649680195345473  1.0000
  N   N8        1.0  0.671444360569076  0.9371272991495233  0.1421699422725382  1.0000
  N   N9        1.0  0.5765153384135501  0.8932494157057961  0.18527125963399982  1.0000
  N   N10       1.0  0.562756220965035  0.8557066427936705  0.1716221214200999  1.0000
  N   N11       1.0  0.6060516807653328  0.8126840914948803  0.0769699836694855  1.0000
  N   N12       1.0  0.6435598625489617  0.8267907795502085  0.06306549246597373  1.0000
  N   N13       1.0  0.813286420421001  0.42164083917403167  0.8941549485432106  1.0000
  N   N14       1.0  0.8276832908525904  0.43605594069741477  0.8572192764617412  1.0000
  N   N15       1.0  0.923094021542738  0.39299271459312735  0.8143151037541614  1.0000
  N   N16       1.0  0.9370469598332393  0.35549990137213433  0.8280217437485363  1.0000
  N   N17       1.0  0.8936847797596454  0.31216503882558305  0.9225004308867781  1.0000
  N   N18       1.0  0.856288892733275  0.3264275757471609  0.9366677379032212  1.0000
  N   N19       1.0  0.18751702964081574  0.07897531013350091  0.3939167073759578  1.0000
  N   N20       1.0  0.17175203291868968  0.06345030596560973  0.357915822627426  1.0000
  N   N21       1.0  0.07652025828914329  0.1071810195657577  0.3147444519219107  1.0000
  N   N22       1.0  0.062316958966611886  0.14448866998063892  0.32864659618407194  1.0000
  N   N23       1.0  0.10589814572792018  0.18770518236018321  0.42311301922164557  1.0000
  N   N24       1.0  0.1434099578921462  0.1734915695303769  0.4371910852202348  1.0000
  N   N25       1.0  0.7668778846921782  0.024072819942667  0.1607617696430594  1.0000
  N   N26       1.0  0.7750357959647827  0.0160914464001962  0.0883015253281698  1.0000
  N   N27       1.0  0.8034121644884635  0.0448247757562896  0.08844063855405442  1.0000
  N   N28       1.0  0.7955073251283056  0.05255691395957741  0.16078070586659277  1.0000
  N   N29       1.0  0.23169606826571956  0.477581533379592  0.6606687374864038  1.0000
  N   N30       1.0  0.22690242458364196  0.4811120663690361  0.5875168370517869  1.0000
  N   N31       1.0  0.1984865299958329  0.4524379961563056  0.5880340411330068  1.0000
  N   N32       1.0  0.20318385520675966  0.44902811534124254  0.661018288072249  1.0000
  N   N33       1.0  0.2750784875924309  0.9835088399281207  0.4118545839746233  1.0000
  N   N34       1.0  0.2674812760314892  0.9767172300457364  0.33917846013436304  1.0000
  N   N35       1.0  0.296137035633663  0.9481659809043493  0.3390169186677739  1.0000
  N   N36       1.0  0.30350633060536575  0.9547287259070105  0.41156169964803274  1.0000
  N   N37       1.0  0.727309543293522  0.5184291015929361  0.9124027666847141  1.0000
  N   N38       1.0  0.7310818785950417  0.5219073054013493  0.8392122406621569  1.0000
  N   N39       1.0  0.702517301940041  0.5505114241813942  0.8391453926463157  1.0000
  N   N40       1.0  0.6988283466227825  0.5471532981339494  0.9121627646914804  1.0000
  N   N41       1.0  0.9805822513359601  0.0891802299991724  0.2283522206035116  1.0000
  N   N42       1.0  0.9769505541704859  0.16249760575016842  0.23125033190664376  1.0000
  N   N43       1.0  0.9486312399278701  0.16219976203519343  0.20239949387063666  1.0000
  N   N44       1.0  0.9521841686999365  0.0890571154670141  0.19960657182843994  1.0000
  N   N45       1.0  0.5240958230627796  0.6619981884518469  0.7671210975225693  1.0000
  N   N46       1.0  0.5177969419255177  0.5890848047952205  0.7730900439215276  1.0000
  N   N47       1.0  0.5464337801941996  0.5890200862066595  0.8016261000464342  1.0000
  N   N48       1.0  0.5525496439418304  0.6617898484509227  0.7958575997977065  1.0000
  N   N49       1.0  0.01975883225765779  0.41121195753923  0.7289721824889952  1.0000
  N   N50       1.0  0.023044056461934297  0.337866714931245  0.7315935699436338  1.0000
  N   N51       1.0  0.051469412827991286  0.3381452916583996  0.7029777761083764  1.0000
  N   N52       1.0  0.048246421016194994  0.41131305235561655  0.7004220527164406  1.0000
  N   N53       1.0  0.47793123349202205  0.8375856022769598  0.26916145922130147  1.0000
  N   N54       1.0  0.4806068823291341  0.9109375611910198  0.2715344887778742  1.0000
  N   N55       1.0  0.45227255676092426  0.9110081878423132  0.30022650338614204  1.0000
  N   N56       1.0  0.44963566397392896  0.8378340370033825  0.2979295644404233  1.0000
  N   N57       1.0  0.8380506715134928  0.23004605101933615  0.0219123722229853  1.0000
  N   N58       1.0  0.9118858131935994  0.22653501823608485  0.0187426930733281  1.0000
  N   N59       1.0  0.9117838911014216  0.19819117289718244  0.047300268554352  1.0000
  N   N60       1.0  0.838121559500827  0.20158279086490444  0.0503524172198766  1.0000
  N   N61       1.0  0.33808611749047657  0.769734170151338  0.47714970210105184  1.0000
  N   N62       1.0  0.41188569493846927  0.7729578498899559  0.4811745649638795  1.0000
  N   N63       1.0  0.4120129759214705  0.8014165679116234  0.4527296593366686  1.0000
  N   N64       1.0  0.33838152525527926  0.7983148164012662  0.4488332668373972  1.0000
  N   N65       1.0  0.5880039763094231  0.7276944512947738  0.9800870579626635  1.0000
  N   N66       1.0  0.6618246791853506  0.7311075391727472  0.9769807572754631  1.0000
  N   N67       1.0  0.661859471184087  0.7025953501896112  0.9485727623526474  1.0000
  N   N68       1.0  0.588205866318866  0.69930388465324  0.9515640256364437  1.0000
  N   N69       1.0  0.16154949072841868  0.2690509806605377  0.5234172649373863  1.0000
  N   N70       1.0  0.08775215042874152  0.2730511190831848  0.5195565824104449  1.0000
  N   N71       1.0  0.08789262995056649  0.3013607983969067  0.5481707889781617  1.0000
  N   N72       1.0  0.16152256316230756  0.2974904626457047  0.5518856731430333  1.0000
