data_image0
_chemical_formula_structural       Mn8P8H40C20N4O48
_chemical_formula_sum              "Mn8 P8 H40 C20 N4 O48"
_cell_length_a       5.680102136028057
_cell_length_b       14.855479749439167
_cell_length_c       14.862068343889824
_cell_angle_alpha    89.98418954922911
_cell_angle_beta     90.00534553025064
_cell_angle_gamma    90.00146981997437

_space_group_name_H-M_alt    "P 1"
_space_group_IT_number       1

loop_
  _space_group_symop_operation_xyz
  'x, y, z'

loop_
  _atom_site_type_symbol
  _atom_site_label
  _atom_site_symmetry_multiplicity
  _atom_site_fract_x
  _atom_site_fract_y
  _atom_site_fract_z
  _atom_site_occupancy
  Mn  Mn1       1.0  0.013298109316679102  0.7031051918101029  0.6606733748402502  1.0000
  Mn  Mn2       1.0  0.0135461348626507  0.2968557402181561  0.339505702296151  1.0000
  Mn  Mn3       1.0  0.5132418809171924  0.33940114343494804  0.7030693472240442  1.0000
  Mn  Mn4       1.0  0.513668882324872  0.6606820014278513  0.2970230725376553  1.0000
  Mn  Mn5       1.0  0.3696483693768755  0.817304951092723  0.8014229488164799  1.0000
  Mn  Mn6       1.0  0.3697851350621875  0.1826212699502534  0.1984307449473448  1.0000
  Mn  Mn7       1.0  0.8698800448908417  0.19838418393842266  0.8175049760909159  1.0000
  Mn  Mn8       1.0  0.8701974534846499  0.8015861408189409  0.1824558637121356  1.0000
  P   P1        1.0  0.5060853474694939  0.7946742426829161  0.5790705964316912  1.0000
  P   P2        1.0  0.5061320057955144  0.20539066585899235  0.4209239928317316  1.0000
  P   P3        1.0  0.006062038573851701  0.42081194987913056  0.7946469602737167  1.0000
  P   P4        1.0  0.006469077232750902  0.579176516066454  0.2054786952887895  1.0000
  P   P5        1.0  0.8631891568422959  0.7264233871588817  0.8738148406967312  1.0000
  P   P6        1.0  0.8633744930699977  0.2735529356105105  0.126085866650314  1.0000
  P   P7        1.0  0.363317907579507  0.12602879308027332  0.7264579160394787  1.0000
  P   P8        1.0  0.3636193552174801  0.873955243433045  0.27348570308200937  1.0000
  H   H1        1.0  0.43895186933235664  0.8947945566802247  0.42562113856359923  1.0000
  H   H2        1.0  0.43861473296344405  0.10523735983519344  0.574356858081785  1.0000
  H   H3        1.0  0.9389617522478559  0.5742508174898477  0.89468789864911  1.0000
  H   H4        1.0  0.9390798148341589  0.42567779682802614  0.10528489495069947  1.0000
  H   H5        1.0  0.813400636131668  0.6870847954544959  0.4633657871134957  1.0000
  H   H6        1.0  0.8134746915356745  0.312929362750211  0.5367450372526646  1.0000
  H   H7        1.0  0.3133204088849197  0.5367806334164344  0.6872213141482462  1.0000
  H   H8        1.0  0.31365565608704327  0.4632896980682944  0.3129768185725226  1.0000
  H   H9        1.0  0.7005978375631657  0.5797915043404062  0.07511916374900099  1.0000
  H   H10       1.0  0.7001107938825372  0.4201696584164198  0.9251059460964866  1.0000
  H   H11       1.0  0.19998955904265608  0.9251920732585079  0.5800425647150504  1.0000
  H   H12       1.0  0.20006099007930092  0.0749377144789349  0.41998251526005953  1.0000
  H   H13       1.0  0.5568764000864946  0.816242772677427  0.0069718230451628  1.0000
  H   H14       1.0  0.5569799501375885  0.183692078652598  0.9928846931988601  1.0000
  H   H15       1.0  0.05690087633654171  0.992735593460907  0.8163085170491797  1.0000
  H   H16       1.0  0.05714423389457581  0.007199562336545301  0.18361782277247574  1.0000
  H   H17       1.0  0.514411459834932  0.634411002417906  0.553321505412697  1.0000
  H   H18       1.0  0.5146383420112031  0.3656640837058874  0.4467103978230185  1.0000
  H   H19       1.0  0.014600056303535799  0.4467003468748275  0.6344881295019886  1.0000
  H   H20       1.0  0.014774069402129403  0.5533070501592904  0.36565667194825824  1.0000
  H   H21       1.0  0.8597623508707954  0.8774119054993932  0.9296324658506163  1.0000
  H   H22       1.0  0.8598454363865785  0.12256573041725012  0.0702526382168855  1.0000
  H   H23       1.0  0.35991680755501676  0.07008610932532382  0.87733633212148  1.0000
  H   H24       1.0  0.36023888442935004  0.9298696223346711  0.12259303676251679  1.0000
  H   H25       1.0  0.5781490295761245  0.3285560610523106  0.971949166505098  1.0000
  H   H26       1.0  0.579009415603217  0.6715250244046517  0.028344804906822695  1.0000
  H   H27       1.0  0.07836241241849962  0.02795612754114531  0.3284275910911703  1.0000
  H   H28       1.0  0.07765377426976271  0.97216773064185  0.6714483545211251  1.0000
  H   H29       1.0  0.42757018702065613  0.38655824780426684  0.8920214266196211  1.0000
  H   H30       1.0  0.42819402195031847  0.6135300688044013  0.108207137131572  1.0000
  H   H31       1.0  0.927434070291433  0.10784293502518953  0.3863472043367011  1.0000
  H   H32       1.0  0.92748818873568  0.8920202700676116  0.6135975877678844  1.0000
  H   H33       1.0  0.5301374913353953  0.4437385835651355  0.07934443449918399  1.0000
  H   H34       1.0  0.5305490903556986  0.5563588494928526  0.9208899014740978  1.0000
  H   H35       1.0  0.0312984724687908  0.9206006772252523  0.44390899477315315  1.0000
  H   H36       1.0  0.0295486461673988  0.07935575551832841  0.5559739774967909  1.0000
  H   H37       1.0  0.25304432609907934  0.4267416362768301  0.028378436013120695  1.0000
  H   H38       1.0  0.2535201763228514  0.5736007157413  0.9717858281624032  1.0000
  H   H39       1.0  0.7537586377971622  0.9711052561271674  0.42645259596515217  1.0000
  H   H40       1.0  0.7525870655939144  0.028241288247642205  0.5729866235925413  1.0000
  C   C1        1.0  0.48243846876096097  0.6919910312509644  0.5081515913016332  1.0000
  C   C2        1.0  0.4826142425844679  0.30807834685675334  0.49186702869938154  1.0000
  C   C3        1.0  0.9824782676069503  0.49184911154333133  0.6920312494615998  1.0000
  C   C4        1.0  0.982776541719346  0.5081479112257911  0.3081052904244713  1.0000
  C   C5        1.0  0.2398372913000557  0.6808762098324622  0.4674693009521603  1.0000
  C   C6        1.0  0.24002695919327982  0.31920888490586913  0.5325310064523308  1.0000
  C   C7        1.0  0.7398875530193082  0.532532030728028  0.6808786567803367  1.0000
  C   C8        1.0  0.7401664667604778  0.46745042133604653  0.31920593182435647  1.0000
  C   C9        1.0  0.8895348338290104  0.8123358571629211  0.9633305563729662  1.0000
  C   C10       1.0  0.8896423034653297  0.18763602393951834  0.03654420151396919  1.0000
  C   C11       1.0  0.38962049362879003  0.036382300517772116  0.812306898092011  1.0000
  C   C12       1.0  0.3899091316789977  0.9635871948302112  0.18762624823307308  1.0000
  C   C13       1.0  0.1325404951113427  0.8146865119128609  0.005501480912691599  1.0000
  C   C14       1.0  0.13259344151045133  0.18525480286539428  0.9943704339750639  1.0000
  C   C15       1.0  0.6325435391677489  0.994179291574149  0.8146010672047908  1.0000
  C   C16       1.0  0.6328259453872889  0.005803435169895001  0.1853564552906377  1.0000
  C   C17       1.0  0.4312112886651107  0.45127920411741945  0.0165542093527833  1.0000
  C   C18       1.0  0.43152990977159084  0.5489148341469275  0.9836643746546014  1.0000
  C   C19       1.0  0.9316372825948919  0.9832767582936626  0.4511263592232169  1.0000
  C   C20       1.0  0.930892204048867  0.016459289261028704  0.5486005853990148  1.0000
  N   N1        1.0  0.5410872897325378  0.3921417364495668  0.9479698519759907  1.0000
  N   N2        1.0  0.5416869227428549  0.6079369599555806  0.052267582759156994  1.0000
  N   N3        1.0  0.04117421299500991  0.05194651570037932  0.39195307183810263  1.0000
  N   N4        1.0  0.04085562592626961  0.9480335827484797  0.6079450880540306  1.0000
  O   O1        1.0  0.42880428069084786  0.8749376589280332  0.5210384436016966  1.0000
  O   O2        1.0  0.42845106669749805  0.12515743367907112  0.4789189864184209  1.0000
  O   O3        1.0  0.9287505080458871  0.4788422064311392  0.8748632993839178  1.0000
  O   O4        1.0  0.929177003830624  0.5211381178472791  0.1252618562499208  1.0000
  O   O5        1.0  0.7628433956878242  0.8002201144863221  0.6101031817742353  1.0000
  O   O6        1.0  0.7629386779773313  0.19973160009473653  0.39001387316609737  1.0000
  O   O7        1.0  0.26281060368049225  0.3897747832693313  0.8002548209051452  1.0000
  O   O8        1.0  0.26322536841772864  0.6102028182782675  0.199914561029459  1.0000
  O   O9        1.0  0.3336486756628076  0.7825106490727479  0.6596783757867328  1.0000
  O   O10       1.0  0.33401500824489017  0.21763397244623664  0.3402486591348648  1.0000
  O   O11       1.0  0.8337561285781165  0.34017012311191064  0.7824732143100377  1.0000
  O   O12       1.0  0.8341589489959989  0.6598280929018189  0.2175986659067775  1.0000
  O   O13       1.0  0.6515116248454548  0.6961428108619503  0.43698097296056193  1.0000
  O   O14       1.0  0.6515843094218497  0.30389798285231967  0.5630902721539854  1.0000
  O   O15       1.0  0.1514115103313713  0.5631223995402905  0.6962356164987185  1.0000
  O   O16       1.0  0.15177635789142133  0.43691869448642967  0.30393236457436495  1.0000
  O   O17       1.0  0.21984167321573977  0.6795426446521093  0.3830380725098479  1.0000
  O   O18       1.0  0.22003386368220393  0.3206344679371257  0.6169709092434913  1.0000
  O   O19       1.0  0.7199063146245948  0.6169952427692849  0.6793808212101737  1.0000
  O   O20       1.0  0.72009910542689  0.3829870337408608  0.3205011774217467  1.0000
  O   O21       1.0  0.06276545250912591  0.6722221807278146  0.520084438306391  1.0000
  O   O22       1.0  0.06291326348199529  0.3277857233209859  0.4799241926868945  1.0000
  O   O23       1.0  0.562738377064349  0.4799012055080355  0.6723752043889702  1.0000
  O   O24       1.0  0.5630984416734037  0.5200841373788238  0.3278899466177592  1.0000
  O   O25       1.0  0.0343349872824632  0.7529416294554069  0.7978361273840732  1.0000
  O   O26       1.0  0.0346317070666302  0.24717101770818323  0.2020328418963118  1.0000
  O   O27       1.0  0.5346778128863647  0.20195427891327714  0.7528646655802547  1.0000
  O   O28       1.0  0.5349610337135999  0.7980355358344086  0.24707110236148813  1.0000
  O   O29       1.0  0.6062854900982799  0.7205410190447381  0.8471349913708579  1.0000
  O   O30       1.0  0.6064792978795239  0.2793660549136021  0.1527704408949475  1.0000
  O   O31       1.0  0.1064248200705507  0.15277598228104242  0.7206824390406155  1.0000
  O   O32       1.0  0.10673470810318972  0.8472242979766806  0.27925041779589316  1.0000
  O   O33       1.0  0.9460886377494264  0.639032432311481  0.9236527328637436  1.0000
  O   O34       1.0  0.9459121725827588  0.3609783951265869  0.07618977137793338  1.0000
  O   O35       1.0  0.4457604262271603  0.07617937350253363  0.6390620060242184  1.0000
  O   O36       1.0  0.4461404192377785  0.9238001149340321  0.3608785807906613  1.0000
  O   O37       1.0  0.7155289578202616  0.7959359592381932  0.0314014914619349  1.0000
  O   O38       1.0  0.7155981006117783  0.20404290649977952  0.9684803449624296  1.0000
  O   O39       1.0  0.215491644949239  0.968338078138082  0.7959078490125647  1.0000
  O   O40       1.0  0.21576078931735052  0.031618882666784  0.2040074788242805  1.0000
  O   O41       1.0  0.3073655354667367  0.8355927422740523  0.9553951289924356  1.0000
  O   O42       1.0  0.30740823841868803  0.16428505104389052  0.044470417245960896  1.0000
  O   O43       1.0  0.8072780015638232  0.044218727756550905  0.8358357537835701  1.0000
  O   O44       1.0  0.8075693543200302  0.9557704837203291  0.1641214429924531  1.0000
  O   O45       1.0  0.15221662173318862  0.7963804131166655  0.08825331450285032  1.0000
  O   O46       1.0  0.15223351090342874  0.20359071913459562  0.9116233537575196  1.0000
  O   O47       1.0  0.6522706816755034  0.911489892301269  0.7958962128890262  1.0000
  O   O48       1.0  0.6525399946360508  0.08848764963775582  0.20405866877027984  1.0000
