data_image0
_chemical_formula_structural       Cu4H48C36N12Cl4O4
_chemical_formula_sum              "Cu4 H48 C36 N12 Cl4 O4"
_cell_length_a       7.020142162
_cell_length_b       7.61613390376203
_cell_length_c       22.407
_cell_angle_alpha    90.0
_cell_angle_beta     90.0
_cell_angle_gamma    90.07419535894087

_space_group_name_H-M_alt    "P 1"
_space_group_IT_number       1

loop_
  _space_group_symop_operation_xyz
  'x, y, z'

loop_
  _atom_site_type_symbol
  _atom_site_label
  _atom_site_symmetry_multiplicity
  _atom_site_fract_x
  _atom_site_fract_y
  _atom_site_fract_z
  _atom_site_occupancy
  Cu  Cu1       1.0  0.9459357109153076  0.6066560714851761  0.7168724059445707  1.0000
  Cu  Cu2       1.0  0.05407306014619449  0.8933371958281884  0.216864372740659  1.0000
  Cu  Cu3       1.0  0.054061497419454  0.39334688040867866  0.2831275940554292  1.0000
  Cu  Cu4       1.0  0.9459255652826358  0.106660504052762  0.7831347346811268  1.0000
  H   H1        1.0  0.8241029940366147  0.7533736779536966  0.6242062748248287  1.0000
  H   H2        1.0  0.1759100375302296  0.7466103983370829  0.12420047306645189  1.0000
  H   H3        1.0  0.17589279167019362  0.24663058694338255  0.37579417146427113  1.0000
  H   H4        1.0  0.8240828918529175  0.2533886145470916  0.875799973222655  1.0000
  H   H5        1.0  0.662103854642332  0.6046301075076101  0.6413303878252349  1.0000
  H   H6        1.0  0.3379077579858176  0.8953579077928424  0.1413245860668511  1.0000
  H   H7        1.0  0.33789478000963413  0.3953741573894689  0.358670951042086  1.0000
  H   H8        1.0  0.6620880184978617  0.10463979208810063  0.8586758602222487  1.0000
  H   H9        1.0  0.7916913040772897  0.4984015815161698  0.5548850805551808  1.0000
  H   H10       1.0  0.20832277564348806  0.0015716648614017  0.0548766010621691  1.0000
  H   H11       1.0  0.20830161977198  0.5015934923583316  0.4451180434685611  1.0000
  H   H12       1.0  0.7916715819014969  0.9984299740292217  0.9451233989378309  1.0000
  H   H13       1.0  0.8886599129511125  0.3740339159589183  0.6144838666488184  1.0000
  H   H14       1.0  0.1113670091583856  0.1259550864573669  0.1144744945775855  1.0000
  H   H15       1.0  0.11134013879492952  0.6259650969252561  0.38552014995313744  1.0000
  H   H16       1.0  0.8886244957521897  0.8740439264268078  0.8855268442897284  1.0000
  H   H17       1.0  0.1369768619598233  0.4630699777104255  0.5400789931717753  1.0000
  H   H18       1.0  0.8630372491196072  0.0369255897219887  0.0400714062569705  1.0000
  H   H19       1.0  0.8630132258566761  0.5369342871866536  0.45992189940643863  1.0000
  H   H20       1.0  0.1369542613248456  0.9630773621718662  0.9599299326103434  1.0000
  H   H21       1.0  0.0863987505963379  0.6855754433811185  0.5522894631142066  1.0000
  H   H22       1.0  0.9136028888791403  0.8144112589161097  0.052282322488508684  1.0000
  H   H23       1.0  0.9135899053690792  0.3144235695030559  0.4477109831749004  1.0000
  H   H24       1.0  0.086391464976586  0.1855877539680648  0.9477163386441703  1.0000
  H   H25       1.0  0.4461902121911692  0.6609579458987227  0.7167715446065941  1.0000
  H   H26       1.0  0.5538185588703328  0.8390353214146415  0.21676306511358226  1.0000
  H   H27       1.0  0.5538069906097149  0.3390410669854518  0.2832284553934059  1.0000
  H   H28       1.0  0.4461786383966739  0.1609597524598598  0.7832396126210525  1.0000
  H   H29       1.0  0.4417169520430164  0.4325255836663118  0.7124630695764721  1.0000
  H   H30       1.0  0.5582914482337173  0.0674607927435176  0.2124572678180954  1.0000
  H   H31       1.0  0.5582816678519364  0.5674681772049583  0.2875360378453138  1.0000
  H   H32       1.0  0.4417085961338145  0.9325329681277523  0.7875440710492256  1.0000
  H   H33       1.0  0.5511613122273076  0.4837261444602845  0.8230918909269391  1.0000
  H   H34       1.0  0.44886139918175877  0.0163075000656789  0.3230851965903483  1.0000
  H   H35       1.0  0.4488387413633603  0.5162741814271214  0.17690587762752588  1.0000
  H   H36       1.0  0.5511486404739614  0.9837033298475293  0.6769174811442866  1.0000
  H   H37       1.0  0.418084097424945  0.477544525272748  0.9276641228187614  1.0000
  H   H38       1.0  0.5819557556153399  0.0225232573370917  0.4276525193020007  1.0000
  H   H39       1.0  0.5819173824829208  0.5224571136178824  0.07233364573571069  1.0000
  H   H40       1.0  0.4180671024489513  0.9774862595728919  0.5723479269870992  1.0000
  H   H41       1.0  0.0675896219380121  0.5382748634802965  0.9418976212790611  1.0000
  H   H42       1.0  0.9324434666117584  0.9617906190104861  0.4418855714732004  1.0000
  H   H43       1.0  0.932414710604263  0.4617294014167825  0.05810193243183189  1.0000
  H   H44       1.0  0.0675793914525258  0.0382188978994975  0.5581117507921647  1.0000
  H   H45       1.0  0.8674828274663045  0.595462718984372  0.8506007051367845  1.0000
  H   H46       1.0  0.1325274123388098  0.9045620604064055  0.3505895479091379  1.0000
  H   H47       1.0  0.1325200806033919  0.4045415459127  0.1493997411523154  1.0000
  H   H48       1.0  0.8674826088706454  0.09543563947454463  0.6494064354889062  1.0000
  C   C1        1.0  0.8878119599022938  0.5045530016295103  0.5937327620832775  1.0000
  C   C2        1.0  0.11219823009790991  0.9954363266741737  0.09372339001205178  1.0000
  C   C3        1.0  0.1121823921088065  0.4954446982514398  0.4062694693622504  1.0000
  C   C4        1.0  0.8877918503400865  0.0045626862100008  0.9062766099879481  1.0000
  C   C5        1.0  0.08798576100127062  0.5558966797751028  0.5743772035524586  1.0000
  C   C6        1.0  0.9120272797887097  0.9440939615318058  0.0743673851921258  1.0000
  C   C7        1.0  0.9120057494431819  0.4441062721187521  0.4256236890257482  1.0000
  C   C8        1.0  0.0879642177433553  0.0558997993394712  0.9256321685187672  1.0000
  C   C9        1.0  0.2444114088982516  0.5599814328108792  0.621671352702279  1.0000
  C   C10       1.0  0.7556030618981852  0.9400131475057094  0.1216651046547952  1.0000
  C   C11       1.0  0.7555843749639309  0.44002151908297554  0.378326862141293  1.0000
  C   C12       1.0  0.2443955598413936  0.059981926368792  0.8783366805016255  1.0000
  C   C13       1.0  0.3493381050114693  0.5468330185067176  0.7209804971660674  1.0000
  C   C14       1.0  0.6506663944769286  0.9531615618098712  0.22097246396215545  1.0000
  C   C15       1.0  0.6506633748964034  0.45316862038391303  0.2790172713884047  1.0000
  C   C16       1.0  0.34933222172877276  0.04682957305494991  0.7790284286160585  1.0000
  C   C17       1.0  0.2800006961753425  0.5409048089417752  0.7837889945106439  1.0000
  C   C18       1.0  0.7200052406980149  0.9590989623973911  0.2837809613067321  1.0000
  C   C19       1.0  0.7199979384766237  0.4590994559553039  0.21620832775472107  1.0000
  C   C20       1.0  0.2799976563039195  0.0408974244803346  0.7162208238496888  1.0000
  C   C21       1.0  0.4012351017646409  0.508738855913677  0.8322202883027642  1.0000
  C   C22       1.0  0.5987794040796999  0.9912806714641962  0.3322122550988523  1.0000
  C   C23       1.0  0.5987620899684813  0.4912522789511443  0.1677783728299218  1.0000
  C   C24       1.0  0.4012348979259883  0.0087222804296516  0.6677886374793616  1.0000
  C   C25       1.0  0.326581742624505  0.5059815491392854  0.8895648681215674  1.0000
  C   C26       1.0  0.6734570069230443  0.9940576732869744  0.3895559423394488  1.0000
  C   C27       1.0  0.6734211525328037  0.4940135247352089  0.1104324541437975  1.0000
  C   C28       1.0  0.32656584191811083  0.0059452786068732  0.6104458428169792  1.0000
  C   C29       1.0  0.13184486604304618  0.5373570742253976  0.8976150310170894  1.0000
  C   C30       1.0  0.8681910511609914  0.9626939652299031  0.3976007497657007  1.0000
  C   C31       1.0  0.8681608983503112  0.4626524426845862  0.1023858615611175  1.0000
  C   C32       1.0  0.1318275205731823  0.0373063606574959  0.6023965724996643  1.0000
  C   C33       1.0  0.01968272381192551  0.5683649584082533  0.8477623064220976  1.0000
  C   C34       1.0  0.9803403362463927  0.9316598209825315  0.3477507029053442  1.0000
  C   C35       1.0  0.9803244539862561  0.4316366804823773  0.1522372472887952  1.0000
  C   C36       1.0  0.0196739657593028  0.0683431309113232  0.6522479582273419  1.0000
  N   N1        1.0  0.8079849549743017  0.6265375663317485  0.6384710135225617  1.0000
  N   N2        1.0  0.19202950475437322  0.8734491359654798  0.1384643191859709  1.0000
  N   N3        1.0  0.19201225520508564  0.3734666985653305  0.3615303253447593  1.0000
  N   N4        1.0  0.8079662735739248  0.1265498769186948  0.8615352345249221  1.0000
  N   N5        1.0  0.1925898442830132  0.5544300551717711  0.6789311375909292  1.0000
  N   N6        1.0  0.807421775723647  0.945563212141586  0.1789222118088105  1.0000
  N   N7        1.0  0.8074130582528057  0.4455702707156278  0.3210679698308567  1.0000
  N   N8        1.0  0.1925725725982019  0.0544318617329083  0.8210791270585105  1.0000
  N   N9        1.0  0.09282537138693668  0.5695597913438206  0.7922555451421401  1.0000
  N   N10       1.0  0.9071805581079175  0.9304387279824412  0.2922457267818075  1.0000
  N   N11       1.0  0.9071718406370834  0.4304457865564828  0.20774356227964566  1.0000
  N   N12       1.0  0.09282233704939812  0.0695563458920532  0.7077524880617645  1.0000
  Cl  Cl1       1.0  0.7496254767884382  0.3089890491510516  0.7385129646985291  1.0000
  Cl  Cl2       1.0  0.25037154984319443  0.1910130832974843  0.2385093943856802  1.0000
  Cl  Cl3       1.0  0.2503731449511406  0.6910060247234426  0.2614843575668289  1.0000
  Cl  Cl4       1.0  0.7496299300646782  0.8089885555931391  0.7614910519034196  1.0000
  O   O1        1.0  0.4158089397209679  0.5665753350113505  0.6039907171865906  1.0000
  O   O2        1.0  0.584191295572829  0.9334258103213671  0.10398268398268579  1.0000
  O   O3        1.0  0.5841825762573619  0.4334315558921844  0.39600839023519535  1.0000
  O   O4        1.0  0.415803050904394  0.0665679505499028  0.896017316017314  1.0000
