data_image0
_chemical_formula_structural       Dy4H36C16O32
_chemical_formula_sum              "Dy4 H36 C16 O32"
_cell_length_a       6.738183672771103
_cell_length_b       10.639224663277442
_cell_length_c       11.142495090846916
_cell_angle_alpha    84.28224372877335
_cell_angle_beta     88.34513522190743
_cell_angle_gamma    90.0079605815836

_space_group_name_H-M_alt    "P 1"
_space_group_IT_number       1

loop_
  _space_group_symop_operation_xyz
  'x, y, z'

loop_
  _atom_site_type_symbol
  _atom_site_label
  _atom_site_symmetry_multiplicity
  _atom_site_fract_x
  _atom_site_fract_y
  _atom_site_fract_z
  _atom_site_occupancy
  Dy  Dy1       1.0  0.4825413458456111  0.8448682878501118  0.5942188365746262  1.0000
  Dy  Dy2       1.0  0.517460696429815  0.15513289400105632  0.4057808564637498  1.0000
  Dy  Dy3       1.0  0.0025388731387324007  0.8495801888230545  0.10153731017891941  1.0000
  Dy  Dy4       1.0  0.9974616765104187  0.1504181579803117  0.8984626767514499  1.0000
  H   H1        1.0  0.0136070951798715  0.7194584984738485  0.4509918733634067  1.0000
  H   H2        1.0  0.9863934672544729  0.2805389024137738  0.5490055113620756  1.0000
  H   H3        1.0  0.9874168047091911  0.6127876938636162  0.5851278910442588  1.0000
  H   H4        1.0  0.012579308930355597  0.38721159271528904  0.41486938183539485  1.0000
  H   H5        1.0  0.7112852168276617  0.5191797059656622  0.4427586287017676  1.0000
  H   H6        1.0  0.28871237650803033  0.48082147190265084  0.55724023562275  1.0000
  H   H7        1.0  0.7602826403754859  0.6551127852795701  0.33978225645669374  1.0000
  H   H8        1.0  0.23971049887740747  0.344888389037358  0.6602166766623156  1.0000
  H   H9        1.0  0.33510681196600706  0.8406450837840114  0.8531153297964948  1.0000
  H   H10       1.0  0.6648952170894019  0.1593513749604867  0.14688481484270002  1.0000
  H   H11       1.0  0.40352196232632315  0.9811767524952304  0.8190869230868785  1.0000
  H   H12       1.0  0.5964800564429636  0.0188197071122005  0.1809150165690099  1.0000
  H   H13       1.0  0.5267051209161692  0.5718572334376332  0.700757399168822  1.0000
  H   H14       1.0  0.47328800040847335  0.428144887226516  0.29924503366341787  1.0000
  H   H15       1.0  0.43869500034528386  0.1000262744285791  0.6596278766203838  1.0000
  H   H16       1.0  0.5613040725416026  0.8999749050550039  0.340371862280989  1.0000
  H   H17       1.0  0.3357495940599051  0.6282504752066701  0.7637470303652235  1.0000
  H   H18       1.0  0.6642420578547287  0.37174975330513155  0.23625201600545148  1.0000
  H   H19       1.0  0.7346525947837463  0.6560133343034381  0.8499906786891032  1.0000
  H   H20       1.0  0.26534796294235  0.3439897360380755  0.1500097541487904  1.0000
  H   H21       1.0  0.8029274871126332  0.523276750125426  0.9506859775257157  1.0000
  H   H22       1.0  0.19707159106226158  0.4767263186008322  0.04931358073532269  1.0000
  H   H23       1.0  0.5228278147353362  0.5998192850599011  0.10971444562262893  1.0000
  H   H24       1.0  0.4771771839984851  0.40018095540046517  0.8902870868896146  1.0000
  H   H25       1.0  0.4769572511031369  0.7009602433627506  0.9752996208028508  1.0000
  H   H26       1.0  0.523041806209619  0.29903904774110407  0.024702093755543303  1.0000
  H   H27       1.0  0.858225450131009  0.9361033887838204  0.3381667025561015  1.0000
  H   H28       1.0  0.14177659199947357  0.0638959033932096  0.6618322736142517  1.0000
  H   H29       1.0  0.9781196221361695  0.5638687987949568  0.20059013906507772  1.0000
  H   H30       1.0  0.021882422348433298  0.43612765865512426  0.7994073130490734  1.0000
  H   H31       1.0  0.26878074676942276  0.06064119374169509  0.0904465855385297  1.0000
  H   H32       1.0  0.7312168282031946  0.939355261451418  0.9095536278951571  1.0000
  H   H33       1.0  0.16359755666421447  0.6235720903053021  0.26009669074223046  1.0000
  H   H34       1.0  0.8364030031261291  0.3764243659609789  0.7399007843034227  1.0000
  H   H35       1.0  0.07289427635532769  0.9914913483679657  0.3120587399343933  1.0000
  H   H36       1.0  0.9271092426823486  0.008507000802993  0.6879412011329793  1.0000
  C   C1        1.0  0.9664560562642137  0.8091933858054503  0.6117985502952976  1.0000
  C   C2        1.0  0.033550437449996195  0.19080685497576877  0.38820116426875734  1.0000
  C   C3        1.0  0.9303750278742412  0.700496660570849  0.537297782963428  1.0000
  C   C4        1.0  0.06962552691797438  0.2995016858010544  0.462701306458591  1.0000
  C   C5        1.0  0.6743792936086449  0.6197039569393469  0.4218449802665559  1.0000
  C   C6        1.0  0.32561829972704703  0.38029722092896634  0.5781538840579614  1.0000
  C   C7        1.0  0.4541602794684393  0.6351526616815875  0.39904929946269624  1.0000
  C   C8        1.0  0.5458328496432685  0.36485040317242584  0.6009521455410365  1.0000
  C   C9        1.0  0.0426571461781577  0.6513671890724737  0.8933026967538922  1.0000
  C   C10       1.0  0.9573419139235425  0.34863493632686027  0.1066996443523607  1.0000
  C   C11       1.0  0.8262512386922509  0.6255547752179211  0.9282024865634072  1.0000
  C   C12       1.0  0.17374933196397538  0.3744492388819936  0.0717960609376291  1.0000
  C   C13       1.0  0.564185903771353  0.6900150951962232  0.057378218749583716  1.0000
  C   C14       1.0  0.43581315618541067  0.30998514052896553  0.9426234054886466  1.0000
  C   C15       1.0  0.5159711129893764  0.7963053073086427  0.1344770068207026  1.0000
  C   C16       1.0  0.4840279547544454  0.20369587260641003  0.8655236295890136  1.0000
  O   O1        1.0  0.8159652605430309  0.8710300238939085  0.6471257847432953  1.0000
  O   O2        1.0  0.1840427205094528  0.1289711626924444  0.3528738165690939  1.0000
  O   O3        1.0  0.14259256093097147  0.83475135161207  0.6352017714182381  1.0000
  O   O4        1.0  0.8574094656253806  0.16524605218522484  0.36479918040914333  1.0000
  O   O5        1.0  0.7223966535601746  0.6905904755071787  0.5192312679313603  1.0000
  O   O6        1.0  0.2776009397755174  0.30941070236114143  0.4807675963931573  1.0000
  O   O7        1.0  0.3587517833917531  0.714866478063179  0.4547508843884602  1.0000
  O   O8        1.0  0.6412458150870036  0.2851346993736712  0.5452470824277142  1.0000
  O   O9        1.0  0.3791554367204383  0.5679609433242163  0.3235179410992188  1.0000
  O   O10       1.0  0.6208391767956555  0.4320383433653133  0.6764820472369665  1.0000
  O   O11       1.0  0.4186988505898838  0.055102387595809404  0.5887325535396926  1.0000
  O   O12       1.0  0.5812972658386072  0.9448997332785753  0.4112653458878129  1.0000
  O   O13       1.0  0.46803894379005584  0.6527515851974569  0.7241222919660188  1.0000
  O   O14       1.0  0.5319571570643049  0.34724864729719945  0.2758775831185076  1.0000
  O   O15       1.0  0.44400663302015886  0.8924976167431141  0.812626213051189  1.0000
  O   O16       1.0  0.5559954143983247  0.1075035646765841  0.18737258247884378  1.0000
  O   O17       1.0  0.6629819752922543  0.8523449842775433  0.17758499312667914  1.0000
  O   O18       1.0  0.3370185695037051  0.14765714230558297  0.8224173250480717  1.0000
  O   O19       1.0  0.3382352118124529  0.8231498337338293  0.15484601020803276  1.0000
  O   O20       1.0  0.6617653407705787  0.1768532370391611  0.8451553201382113  1.0000
  O   O21       1.0  0.7720417439345725  0.6932731855733039  0.027903976427140303  1.0000
  O   O22       1.0  0.22796030098485429  0.3067289408992053  0.9720956262910718  1.0000
  O   O23       1.0  0.13200604145971076  0.7407983473022809  0.9376389380254795  1.0000
  O   O24       1.0  0.8679974647927794  0.25920094778442865  0.062363605246773084  1.0000
  O   O25       1.0  0.12045939220308809  0.581112919672229  0.8194481113648282  1.0000
  O   O26       1.0  0.8795426499273874  0.41888637250480093  0.18055086480552526  1.0000
  O   O27       1.0  0.15234095142434967  0.0354635262742775  0.04892349654541311  1.0000
  O   O28       1.0  0.847661077776003  0.9645348221443585  0.9510773649618046  1.0000
  O   O29       1.0  0.03923930577875009  0.6457096396027922  0.21588386103768903  1.0000
  O   O30       1.0  0.9607657288115801  0.3542887081631392  0.7841106720481008  1.0000
  O   O31       1.0  0.9870510867517835  0.9181751079118997  0.29875524576275586  1.0000
  O   O32       1.0  0.012952437428964498  0.08182324082758899  0.7012437977962662  1.0000
