data_image0
_chemical_formula_structural       Mn2H22C24N2O18
_chemical_formula_sum              "Mn2 H22 C24 N2 O18"
_cell_length_a       7.008652477420741
_cell_length_b       7.247105617357853
_cell_length_c       13.561532665506705
_cell_angle_alpha    78.61403829904654
_cell_angle_beta     77.49352403899319
_cell_angle_gamma    81.08724444698147

_space_group_name_H-M_alt    "P 1"
_space_group_IT_number       1

loop_
  _space_group_symop_operation_xyz
  'x, y, z'

loop_
  _atom_site_type_symbol
  _atom_site_label
  _atom_site_symmetry_multiplicity
  _atom_site_fract_x
  _atom_site_fract_y
  _atom_site_fract_z
  _atom_site_occupancy
  Mn  Mn1       1.0  0.035419092052819706  0.322692897303078  0.423624110134604  1.0000
  Mn  Mn2       1.0  0.9645820821777987  0.6772827724685444  0.5763894752905758  1.0000
  H   H1        1.0  0.8407544861136104  0.5295582545493148  0.030193562185864702  1.0000
  H   H2        1.0  0.1592544117841044  0.4704528196865426  0.969796291172301  1.0000
  H   H3        1.0  0.5459393980688675  0.6755692132010864  0.9583321320847419  1.0000
  H   H4        1.0  0.45404737636948767  0.32443068286416116  0.041665033937796615  1.0000
  H   H5        1.0  0.3161289264907126  0.9366585002782843  0.22533240641627122  1.0000
  H   H6        1.0  0.6838439756755222  0.06332162920454462  0.7746823774627388  1.0000
  H   H7        1.0  0.5803792065551079  0.09238159439705382  0.3035230482087741  1.0000
  H   H8        1.0  0.4196341680448157  0.9076406930305865  0.6964924185172379  1.0000
  H   H9        1.0  0.812660323784165  0.9872950542476462  0.24432468406082822  1.0000
  H   H10       1.0  0.18734870876564  0.0127145760017697  0.755674153930933  1.0000
  H   H11       1.0  0.32310335333971807  0.8944851429180148  0.39024096090558663  1.0000
  H   H12       1.0  0.67687169017686  0.10547660405776328  0.609761497280772  1.0000
  H   H13       1.0  0.47436375690094224  0.7722326668647953  0.4785631352703703  1.0000
  H   H14       1.0  0.52564965199997  0.22776418413645422  0.5214372905063345  1.0000
  H   H15       1.0  0.7320118497589191  0.680458033152341  0.343115535799825  1.0000
  H   H16       1.0  0.2679950987951401  0.3195573014349407  0.6568748258857725  1.0000
  H   H17       1.0  0.08887838246059944  0.9197083987029585  0.9381775583208382  1.0000
  H   H18       1.0  0.911107921014654  0.08029576258162051  0.06181478967452852  1.0000
  H   H19       1.0  0.2122686446647251  0.33090167277514143  0.23275090948485652  1.0000
  H   H20       1.0  0.7877064463154609  0.6691492685430376  0.7672488523400602  1.0000
  H   H21       1.0  0.3643013818777874  0.3352145199850228  0.30709470082427265  1.0000
  H   H22       1.0  0.63569098014203  0.6648136977044602  0.6928856100864993  1.0000
  C   C1        1.0  0.9226027810274356  0.5425654596744351  0.2139756540071646  1.0000
  C   C2        1.0  0.07738969626041842  0.4574740300171315  0.7860218998742994  1.0000
  C   C3        1.0  0.7466154196909472  0.6449148473444809  0.1698812831452301  1.0000
  C   C4        1.0  0.2533658399963059  0.35512047611388203  0.8301179521281414  1.0000
  C   C5        1.0  0.7262432428300017  0.6179653410445949  0.07336244217940188  1.0000
  C   C6        1.0  0.2737529523858767  0.3820415554161656  0.9266366325126328  1.0000
  C   C7        1.0  0.560077257528519  0.6990157183954436  0.03308957212144751  1.0000
  C   C8        1.0  0.43991473547445276  0.30098981736050934  0.9669020003200401  1.0000
  C   C9        1.0  0.41031863952572684  0.8101556610819145  0.08903010162263308  1.0000
  C   C10       1.0  0.5896764270219634  0.18984842262606352  0.910965705642866  1.0000
  C   C11       1.0  0.43028199930622424  0.8444995666759568  0.18411318329172852  1.0000
  C   C12       1.0  0.5696821695418636  0.15549340531467237  0.8158901666802765  1.0000
  C   C13       1.0  0.5953937388926321  0.7603386200325772  0.2234347638210323  1.0000
  C   C14       1.0  0.4045803729883913  0.23969534410851173  0.776563932598741  1.0000
  C   C15       1.0  0.22696901515776355  0.8911209471181821  0.05108950712191527  1.0000
  C   C16       1.0  0.7730158054698107  0.10888320484915683  0.9489096429529625  1.0000
  C   C17       1.0  0.6978998945654169  0.9756701923613279  0.3137724019353456  1.0000
  C   C18       1.0  0.30208914614355104  0.024335338108159004  0.6862283474904487  1.0000
  C   C19       1.0  0.7925210233656941  0.9868409341433804  0.40305744510450847  1.0000
  C   C20       1.0  0.20747852969559938  0.013110696051718704  0.5969514604789907  1.0000
  C   C21       1.0  0.4333394690477376  0.7727068483172986  0.40486329278268585  1.0000
  C   C22       1.0  0.5666495530747537  0.22728592834431544  0.5951417419677086  1.0000
  C   C23       1.0  0.3568814846081096  0.5855408726145155  0.4083823502563747  1.0000
  C   C24       1.0  0.6431551139602263  0.4144317012125215  0.5916290998436723  1.0000
  N   N1        1.0  0.6160128292061414  0.7918207872745102  0.3245489635806251  1.0000
  N   N2        1.0  0.38396695289812033  0.2081890615195547  0.6754516250348459  1.0000
  O   O1        1.0  0.0598151889345218  0.45753168393583377  0.15758056727651854  1.0000
  O   O2        1.0  0.9402014102151026  0.5425529783245295  0.8423985232266988  1.0000
  O   O3        1.0  0.9191440738360583  0.5478101871832735  0.30945116269933953  1.0000
  O   O4        1.0  0.08089147264357878  0.45221059134712493  0.6905391408133  1.0000
  O   O5        1.0  0.866828988787226  0.1386645747312869  0.39335972418972187  1.0000
  O   O6        1.0  0.13308461183493847  0.8613087714900305  0.6067073347343808  1.0000
  O   O7        1.0  0.7887310215688713  0.8486891901652244  0.47657840551059394  1.0000
  O   O8        1.0  0.21138483193460184  0.15116687545258864  0.5233730124344191  1.0000
  O   O9        1.0  0.4725096237423827  0.46024058626242254  0.3669647382235582  1.0000
  O   O10       1.0  0.5275545467475667  0.5397729268965676  0.6330150351916545  1.0000
  O   O11       1.0  0.17756291060207724  0.5683999004106258  0.4533723800292009  1.0000
  O   O12       1.0  0.8225179534714967  0.43155526428156327  0.5466662076357452  1.0000
  O   O13       1.0  0.09064020837831073  0.9834359758541282  0.1037820340463753  1.0000
  O   O14       1.0  0.9093324348539722  0.0165725225213222  0.8962150642656894  1.0000
  O   O15       1.0  0.22041982248388334  0.8569192429898962  0.9601557180795484  1.0000
  O   O16       1.0  0.7795555617312501  0.1430778930092629  0.039846688363006415  1.0000
  O   O17       1.0  0.27222397806301757  0.2567010061173391  0.29197142618801314  1.0000
  O   O18       1.0  0.7277789059613655  0.7432860562069619  0.7080157070056716  1.0000
