data_image0
_chemical_formula_structural       Er4Cd4H28C20S4N8O44
_chemical_formula_sum              "Er4 Cd4 H28 C20 S4 N8 O44"
_cell_length_a       8.493289018427271
_cell_length_b       10.489081923003816
_cell_length_c       13.829538805034296
_cell_angle_alpha    89.99992999642335
_cell_angle_beta     102.07930280346494
_cell_angle_gamma    90.00008217069036

_space_group_name_H-M_alt    "P 1"
_space_group_IT_number       1

loop_
  _space_group_symop_operation_xyz
  'x, y, z'

loop_
  _atom_site_type_symbol
  _atom_site_label
  _atom_site_symmetry_multiplicity
  _atom_site_fract_x
  _atom_site_fract_y
  _atom_site_fract_z
  _atom_site_occupancy
  Er  Er1       1.0  0.932093596592452  0.8957737860887532  0.10777798314079944  1.0000
  Er  Er2       1.0  0.06792135359822991  0.3957702856914197  0.39222453122648904  1.0000
  Er  Er3       1.0  0.0679121502861904  0.10422862080027781  0.8922195359068963  1.0000
  Er  Er4       1.0  0.9320747881657779  0.6042273543250545  0.6077797193034584  1.0000
  Cd  Cd1       1.0  0.6262499304067646  0.484252349465585  0.1340938974736545  1.0000
  Cd  Cd2       1.0  0.3737531304625463  0.9842452453718523  0.3659106408251347  1.0000
  Cd  Cd3       1.0  0.3737425768221954  0.5157548242775222  0.8659033826303426  1.0000
  Cd  Cd4       1.0  0.6262502182478541  0.015760021630491398  0.6340894653515363  1.0000
  H   H1        1.0  0.6305549658994067  0.26030407688848095  0.33869255890427746  1.0000
  H   H2        1.0  0.3694501591837778  0.7603125656885297  0.16131460950366966  1.0000
  H   H3        1.0  0.36944957692315933  0.7396992833722819  0.6613048068923817  1.0000
  H   H4        1.0  0.6305531771014188  0.23969746817827087  0.8386818796321619  1.0000
  H   H5        1.0  0.9878475733991934  0.8964610123112352  0.3303135864481348  1.0000
  H   H6        1.0  0.012154145676909398  0.3964616357838154  0.1696908587284938  1.0000
  H   H7        1.0  0.012175032756942997  0.10353662772357808  0.6696868015188924  1.0000
  H   H8        1.0  0.9878203106317115  0.6035312373642225  0.8303070162511971  1.0000
  H   H9        1.0  0.7980415306535775  0.9100560242496343  0.2929213072637253  1.0000
  H   H10       1.0  0.20195899574693502  0.4100491744359118  0.20708008172172038  1.0000
  H   H11       1.0  0.201981077989096  0.08994256915686089  0.707079804110819  1.0000
  H   H12       1.0  0.7980142366125875  0.5899360717381369  0.7929118527471528  1.0000
  H   H13       1.0  0.0225547013129912  0.6385705383221277  0.163928946980171  1.0000
  H   H14       1.0  0.9774670647023312  0.13856816990332282  0.33607321624226927  1.0000
  H   H15       1.0  0.9774522496187288  0.36142710170603454  0.836068725319862  1.0000
  H   H16       1.0  0.0225122053477733  0.86142470324755  0.663924548332403  1.0000
  H   H17       1.0  0.053089434514674794  0.6886310901240549  0.2721350247517051  1.0000
  H   H18       1.0  0.9469143591346736  0.188627915339687  0.22786769905368942  1.0000
  H   H19       1.0  0.9469102945649153  0.311370363389301  0.7278624514506333  1.0000
  H   H20       1.0  0.05308297425946759  0.8113725847972264  0.7721330876867755  1.0000
  H   H21       1.0  0.5593617104170933  0.8861216644937924  0.06966650890189642  1.0000
  H   H22       1.0  0.44063876601319407  0.38612901235148916  0.43033127943292016  1.0000
  H   H23       1.0  0.4406488725668821  0.11387025529748479  0.9303374104149282  1.0000
  H   H24       1.0  0.5593489448590746  0.6138581405665491  0.5696711749378451  1.0000
  H   H25       1.0  0.6252082601657631  0.02745454895812569  0.08253236064521725  1.0000
  H   H26       1.0  0.37479528309913945  0.5274664268449739  0.4174711969579974  1.0000
  H   H27       1.0  0.37480112621800993  0.9725364174584925  0.917473575644756  1.0000
  H   H28       1.0  0.625192422801561  0.4725207260742721  0.5825298105970802  1.0000
  C   C1        1.0  0.5338626847464168  0.24294697934499254  0.2751083980384479  1.0000
  C   C2        1.0  0.466143599755739  0.7429497513633407  0.2248938716557305  1.0000
  C   C3        1.0  0.4661382409326364  0.7570544741707365  0.7248870611910759  1.0000
  C   C4        1.0  0.5338621545825005  0.2570555156407295  0.7751058176145023  1.0000
  C   C5        1.0  0.3334503260607349  0.1526406657736246  0.17551083073427518  1.0000
  C   C6        1.0  0.666555824209695  0.6526425456650813  0.3244936710375086  1.0000
  C   C7        1.0  0.6665445818267415  0.8473693680892679  0.8244845856466296  1.0000
  C   C8        1.0  0.33345595538570894  0.34736462808513835  0.6755082313012791  1.0000
  C   C9        1.0  0.377910229065847  0.26199825125041803  0.12933838261855607  1.0000
  C   C10       1.0  0.6220900774728264  0.7620019095648729  0.3706667248121532  1.0000
  C   C11       1.0  0.6220943261886446  0.7380089224964479  0.8706626002160005  1.0000
  C   C12       1.0  0.3779156793512044  0.23800335743858617  0.6293336878659231  1.0000
  C   C13       1.0  0.21224614442667897  0.054804605918327795  0.14393392401640168  1.0000
  C   C14       1.0  0.7877634595410613  0.5548075243868809  0.35606965770260496  1.0000
  C   C15       1.0  0.7877523756267594  0.9451997077125328  0.8560619521185728  1.0000
  C   C16       1.0  0.21223627948391768  0.44519678924090306  0.6439307121301141  1.0000
  C   C17       1.0  0.3171101120990158  0.323066559862923  0.03225389687361969  1.0000
  C   C18       1.0  0.6829023507064919  0.8230672642617947  0.4677584885001734  1.0000
  C   C19       1.0  0.6829004808355847  0.6769348936487845  0.9677529160713121  1.0000
  C   C20       1.0  0.317092559660793  0.17693514262222015  0.532237651291183  1.0000
  S   S1        1.0  0.8010369463651513  0.21911206485570028  0.044703300605902975  1.0000
  S   S2        1.0  0.19895005073897207  0.7191055644971982  0.4553008738525435  1.0000
  S   S3        1.0  0.19896278022865488  0.7808893886582521  0.9552934521885988  1.0000
  S   S4        1.0  0.8010448919383036  0.28089016877293455  0.5447046702430284  1.0000
  N   N1        1.0  0.50442105406578  0.3169506476411712  0.19392954967006656  1.0000
  N   N2        1.0  0.49557692808716775  0.8169475965772011  0.30607449021498917  1.0000
  N   N3        1.0  0.49558468784128706  0.6830517592490751  0.8060665225619487  1.0000
  N   N4        1.0  0.5044264231105089  0.18305957716911084  0.693926339368872  1.0000
  N   N5        1.0  0.43127121350088526  0.14409080113103562  0.2680827685893235  1.0000
  N   N6        1.0  0.5687373264971072  0.6440927250070488  0.23192059872425824  1.0000
  N   N7        1.0  0.5687248884972718  0.8559154192457042  0.7319099074122304  1.0000
  N   N8        1.0  0.4312708608156298  0.3559163554812059  0.7680866311244898  1.0000
  O   O1        1.0  0.1762322994488201  0.9786527829936844  0.20869130046759915  1.0000
  O   O2        1.0  0.823777976980196  0.478651267849443  0.29131416116882747  1.0000
  O   O3        1.0  0.8237710418057135  0.0213543907550502  0.7913066354848934  1.0000
  O   O4        1.0  0.1762289888684876  0.5213492322919393  0.7086878515772668  1.0000
  O   O5        1.0  0.139528854023105  0.04218389776715271  0.053924441983682  1.0000
  O   O6        1.0  0.8604723116824431  0.5421791209369857  0.4460809692587375  1.0000
  O   O7        1.0  0.8604744847404006  0.9578166023761979  0.9460727705632621  1.0000
  O   O8        1.0  0.13952142444848895  0.4578118454717669  0.553923698179922  1.0000
  O   O9        1.0  0.21211151018790989  0.2713662431036283  0.9659646568668092  1.0000
  O   O10       1.0  0.7878889301507782  0.7713630293244335  0.5340347228081939  1.0000
  O   O11       1.0  0.7878966646914023  0.7286371171539585  0.03403895594469471  1.0000
  O   O12       1.0  0.2121107989355409  0.22864700453948222  0.4659627533912101  1.0000
  O   O13       1.0  0.37785812311090433  0.4323878983443665  0.019568561963652094  1.0000
  O   O14       1.0  0.6221255889940379  0.9323866053708155  0.4804328364377141  1.0000
  O   O15       1.0  0.6221319834632766  0.5676211821403783  0.9804305818618032  1.0000
  O   O16       1.0  0.37786813719748114  0.06760912790178962  0.51956893736795  1.0000
  O   O17       1.0  0.6279956019883243  0.18770218820070989  0.014537562300446888  1.0000
  O   O18       1.0  0.3720069985836929  0.687709181771197  0.4854686259262023  1.0000
  O   O19       1.0  0.37201374711089125  0.8122916383418611  0.9854575228709378  1.0000
  O   O20       1.0  0.6279927727467934  0.3122827380089959  0.5145411482126931  1.0000
  O   O21       1.0  0.8267381843689917  0.3459420123797088  0.09506651688948148  1.0000
  O   O22       1.0  0.1732393792781934  0.8459412875711864  0.4049363446913361  1.0000
  O   O23       1.0  0.17324347640096963  0.6540594411270887  0.9049264903287761  1.0000
  O   O24       1.0  0.8267675989986782  0.15405825919488342  0.5950692850942899  1.0000
  O   O25       1.0  0.8797620039672154  0.1210186193453922  0.1192527659714671  1.0000
  O   O26       1.0  0.1202296405372891  0.6210045274925519  0.3807477482327996  1.0000
  O   O27       1.0  0.120242523945123  0.8789904611527174  0.8807402593761893  1.0000
  O   O28       1.0  0.8797628915413044  0.37899215914935525  0.619256765953196  1.0000
  O   O29       1.0  0.8790216761235569  0.22071968061855776  0.9583798806702433  1.0000
  O   O30       1.0  0.1209690995199892  0.7207071129110858  0.5416320524408036  1.0000
  O   O31       1.0  0.12098528476327891  0.7792932133637436  0.0416206852559213  1.0000
  O   O32       1.0  0.8790258506198753  0.2792952939632229  0.45837566187600487  1.0000
  O   O33       1.0  0.9014452138183272  0.9360507434416476  0.2792491743293652  1.0000
  O   O34       1.0  0.0985601546916683  0.43605900664947944  0.22074846940203938  1.0000
  O   O35       1.0  0.09857498173987977  0.06394880333722598  0.720750183727759  1.0000
  O   O36       1.0  0.9014215160124691  0.5639310063874775  0.7792474314515019  1.0000
  O   O37       1.0  0.0058269186371618  0.7132481474802503  0.2024635956195269  1.0000
  O   O38       1.0  0.9941853320932592  0.21324872301859443  0.2975372904471171  1.0000
  O   O39       1.0  0.9941752110949623  0.28674853917461013  0.797532016862334  1.0000
  O   O40       1.0  0.005805988470413599  0.7867470102522917  0.7024649002649852  1.0000
  O   O41       1.0  0.6496824525120245  0.9386544066757239  0.10415741742914258  1.0000
  O   O42       1.0  0.350315733031934  0.43866647631251976  0.3958501561310115  1.0000
  O   O43       1.0  0.3503269363575398  0.06133655974028329  0.8958492422686745  1.0000
  O   O44       1.0  0.6496719828119095  0.5613206766043033  0.6041537450554343  1.0000
