data_image0
_chemical_formula_structural       K4H16C48N28O48
_chemical_formula_sum              "K4 H16 C48 N28 O48"
_cell_length_a       11.009685346942513
_cell_length_b       12.233853199448431
_cell_length_c       13.01996562000486
_cell_angle_alpha    90.0000418835566
_cell_angle_beta     90.00008607303594
_cell_angle_gamma    94.3563657509221

_space_group_name_H-M_alt    "P 1"
_space_group_IT_number       1

loop_
  _space_group_symop_operation_xyz
  'x, y, z'

loop_
  _atom_site_type_symbol
  _atom_site_label
  _atom_site_symmetry_multiplicity
  _atom_site_fract_x
  _atom_site_fract_y
  _atom_site_fract_z
  _atom_site_occupancy
  K   K1        1.0  0.8485118274681296  0.6031554731454705  0.5152893558048177  1.0000
  K   K2        1.0  0.6514888867772086  0.8968428660865939  0.0152903156873165  1.0000
  K   K3        1.0  0.1514841698503986  0.39684452765444433  0.4847127256881549  1.0000
  K   K4        1.0  0.34851521736354124  0.10315632168049399  0.9847117658105161  1.0000
  H   H1        1.0  0.4666783022616769  0.6212606220442397  0.6969201680389857  1.0000
  H   H2        1.0  0.033322001587585186  0.8787389858459278  0.19692096573665904  1.0000
  H   H3        1.0  0.5333213968344311  0.37874020152185744  0.30307960930306876  1.0000
  H   H4        1.0  0.9666784691364753  0.12126019892561152  0.8030803477076843  1.0000
  H   H5        1.0  0.8938818060658348  0.08728350608159731  0.5210956743501356  1.0000
  H   H6        1.0  0.606116559492513  0.41271581864322826  0.0210958195843531  1.0000
  H   H7        1.0  0.10611593959409757  0.9127156764424955  0.4789033349389341  1.0000
  H   H8        1.0  0.3938840479583091  0.5872850056720154  0.9789047258094568  1.0000
  H   H9        1.0  0.7903379744079047  0.5602980256841763  0.8673025225223866  1.0000
  H   H10       1.0  0.7096626219613  0.9397022709223535  0.3673028175112377  1.0000
  H   H11       1.0  0.2096617246874857  0.43970279788157285  0.1326964867684808  1.0000
  H   H12       1.0  0.29033700877107543  0.060297732871717406  0.63269695983049  1.0000
  H   H13       1.0  0.6333806036184342  0.9181867705391865  0.7246746731888081  1.0000
  H   H14       1.0  0.866618751146305  0.5818125764645146  0.2246733851889147  1.0000
  H   H15       1.0  0.366619095479102  0.0818140530276068  0.2753266402556136  1.0000
  H   H16       1.0  0.1333817195756097  0.4181866083059802  0.7753256241018818  1.0000
  C   C1        1.0  0.6167704310527355  0.38097650480139583  0.7102435645065839  1.0000
  C   C2        1.0  0.8832301024942665  0.11902299260367502  0.2102430911641804  1.0000
  C   C3        1.0  0.3832292680433724  0.6190243187647014  0.2897562128354707  1.0000
  C   C4        1.0  0.11677036822764822  0.88097619216682  0.7897559181266159  1.0000
  C   C5        1.0  0.7107101955600896  0.4241357727957651  0.7817975912343581  1.0000
  C   C6        1.0  0.7892905392412004  0.07586460914025389  0.2817992733561141  1.0000
  C   C7        1.0  0.2892904118893043  0.5758650515187895  0.21820141805709167  1.0000
  C   C8        1.0  0.21070993148285308  0.9241345756312928  0.7182020400882291  1.0000
  C   C9        1.0  0.5305489199970808  0.4606366998110118  0.6823563668162149  1.0000
  C   C10       1.0  0.9694515617592073  0.0393627723559149  0.18235671608219658  1.0000
  C   C11       1.0  0.46945071073457706  0.5393633039827109  0.3176426424743255  1.0000
  C   C12       1.0  0.0305489773271574  0.9606372321869544  0.8176430612601064  1.0000
  C   C13       1.0  0.6694190236922067  0.992731075160954  0.6864250046466366  1.0000
  C   C14       1.0  0.8305803284004584  0.5072690569983038  0.1864243878308827  1.0000
  C   C15       1.0  0.3305797670506152  0.007269747656693002  0.3135755407460222  1.0000
  C   C16       1.0  0.16942021068590657  0.4927309475445655  0.8135753895114206  1.0000
  C   C17       1.0  0.5339058445488831  0.5656409635511396  0.7211867686716642  1.0000
  C   C18       1.0  0.9660953204479554  0.9343583817943967  0.22118738496352106  1.0000
  C   C19       1.0  0.4660946945374818  0.4343590409917297  0.2788130086706389  1.0000
  C   C20       1.0  0.033905150275380394  0.06564080297680158  0.7788131604296422  1.0000
  C   C21       1.0  0.6282387078847549  0.6006837288553373  0.7879527617851207  1.0000
  C   C22       1.0  0.8717617411172893  0.8993164959376756  0.2879524664120011  1.0000
  C   C23       1.0  0.371760991211353  0.39931709471076  0.2120470155569336  1.0000
  C   C24       1.0  0.1282387296053358  0.10068268883316733  0.7120473109299823  1.0000
  C   C25       1.0  0.7166083631929752  0.5309135351556337  0.8166064793136841  1.0000
  C   C26       1.0  0.783392139024059  0.9690867155695814  0.3166061198686805  1.0000
  C   C27       1.0  0.2833913359031328  0.4690872884104636  0.18339329802837054  1.0000
  C   C28       1.0  0.21660742334457686  0.0309124684524633  0.6833936574727203  1.0000
  C   C29       1.0  0.7654188500141998  0.9915527371491708  0.616668352457431  1.0000
  C   C30       1.0  0.7345803725278586  0.5084473318787559  0.11666761479175848  1.0000
  C   C31       1.0  0.23457987236346153  0.008447265895753701  0.3833306568325411  1.0000
  C   C32       1.0  0.2654202349215353  0.4915534924357915  0.8833313944996917  1.0000
  C   C33       1.0  0.815421402331495  0.08804102505053632  0.5717639614518433  1.0000
  C   C34       1.0  0.6845787373081862  0.4119567074841229  0.0717649736492163  1.0000
  C   C35       1.0  0.18457725168172348  0.9119581582220138  0.4282342797866221  1.0000
  C   C36       1.0  0.3154234817594102  0.5880416590126388  0.9282355717447713  1.0000
  C   C37       1.0  0.6618045258875895  0.19420860153303474  0.6599384805590631  1.0000
  C   C38       1.0  0.8381959142354276  0.3057908503455807  0.159939614518521  1.0000
  C   C39       1.0  0.3381951732085184  0.8057922220330697  0.3400612967829914  1.0000
  C   C40       1.0  0.1618054648419118  0.6942083351744092  0.840060930875218  1.0000
  C   C41       1.0  0.7664317499599562  0.18670753236354898  0.592996739251859  1.0000
  C   C42       1.0  0.7335685658395191  0.31329185893093847  0.09299697771925249  1.0000
  C   C43       1.0  0.2335678807724122  0.813292471430522  0.4070030380898685  1.0000
  C   C44       1.0  0.2664337899548385  0.6867081471095345  0.9070027996242017  1.0000
  C   C45       1.0  0.619937161909263  0.09046942050798631  0.7064592785745274  1.0000
  C   C46       1.0  0.8800625246195751  0.40953089249553903  0.20645900073647278  1.0000
  C   C47       1.0  0.3800606521151195  0.9095305817884809  0.293540498766049  1.0000
  C   C48       1.0  0.11993801446750749  0.5904691120476785  0.7935415446570175  1.0000
  N   N1        1.0  0.6033644086983827  0.2817585288889363  0.6751950422967992  1.0000
  N   N2        1.0  0.8966360597573696  0.2182409367965121  0.17519465408562948  1.0000
  N   N3        1.0  0.3966361987524322  0.7182422954263147  0.3248055030970178  1.0000
  N   N4        1.0  0.10336259425798738  0.7817582464770824  0.8248058913063827  1.0000
  N   N5        1.0  0.8050347623616361  0.3583100467525497  0.8219974273281565  1.0000
  N   N6        1.0  0.6949668870866503  0.14168955254123014  0.321997499020341  1.0000
  N   N7        1.0  0.1949658450884684  0.6416907775623458  0.1780023500144736  1.0000
  N   N8        1.0  0.305033583635975  0.8583096322296201  0.6780022783216424  1.0000
  N   N9        1.0  0.4368870863737229  0.43365146856992726  0.6057769869268056  1.0000
  N   N10       1.0  0.0631124370809388  0.0663482187974864  0.1057776078306176  1.0000
  N   N11       1.0  0.563112544357935  0.5663485352238027  0.3942220223637419  1.0000
  N   N12       1.0  0.9368881020054332  0.9336517857453901  0.8942221695116855  1.0000
  N   N13       1.0  0.8149613919997022  0.8885700615672717  0.592519283182888  1.0000
  N   N14       1.0  0.6850386256827932  0.6114291665816509  0.09251778540936327  1.0000
  N   N15       1.0  0.18503733037938014  0.1114299414783417  0.40748126220945113  1.0000
  N   N16       1.0  0.3149628217568576  0.38857083870967574  0.9074812238823355  1.0000
  N   N17       1.0  0.8275593945169034  0.2833122103498837  0.5455320160863762  1.0000
  N   N18       1.0  0.6724399247780183  0.21668713723914118  0.04553211073974949  1.0000
  N   N19       1.0  0.1724411445694685  0.7166877941929927  0.4544677612559269  1.0000
  N   N20       1.0  0.3275596375906176  0.7833120467829033  0.9544676666016584  1.0000
  N   N21       1.0  0.5259556296457005  0.0868344161469423  0.7844118045659343  1.0000
  N   N22       1.0  0.9740432933009443  0.4131659666565568  0.28441164832524624  1.0000
  N   N23       1.0  0.47404316109712147  0.9131664066706976  0.21558874082672466  1.0000
  N   N24       1.0  0.025957245785420486  0.5868340378863196  0.7155881290170641  1.0000
  N   N25       1.0  0.6354894370112731  0.7099570032259094  0.8277209580685251  1.0000
  N   N26       1.0  0.8645110858480223  0.7900432575584871  0.32772134650996776  1.0000
  N   N27       1.0  0.36451026208484183  0.2900438203401876  0.1722788192735294  1.0000
  N   N28       1.0  0.1354894532383426  0.20995674698438194  0.6722784308323426  1.0000
  O   O1        1.0  0.7603746528529528  0.8024032901678667  0.6250423463588247  1.0000
  O   O2        1.0  0.7396245852419411  0.697596786439121  0.12504251304298458  1.0000
  O   O3        1.0  0.23962413788987647  0.19759753264978033  0.37495819903384126  1.0000
  O   O4        1.0  0.26037595384585194  0.30240321810445187  0.8749588004016857  1.0000
  O   O5        1.0  0.45772759217779685  0.36845203814839783  0.5361485296765095  1.0000
  O   O6        1.0  0.042272710318457  0.1315475869525642  0.0361491689483557  1.0000
  O   O7        1.0  0.542272946908568  0.6315479663944785  0.4638512476657936  1.0000
  O   O8        1.0  0.957727828769336  0.8684524175910014  0.9638521444963216  1.0000
  O   O9        1.0  0.3403906624047437  0.48086132219342653  0.6129781898881815  1.0000
  O   O10       1.0  0.15960978277790622  0.019138372440068004  0.11297890065767997  1.0000
  O   O11       1.0  0.6596088999631746  0.5191378618282768  0.3870208194020393  1.0000
  O   O12       1.0  0.8403907563091693  0.9808616321031497  0.8870216447358104  1.0000
  O   O13       1.0  0.9091929220661044  0.8908568508784498  0.539235792840948  1.0000
  O   O14       1.0  0.5908079733756751  0.6091431495678493  0.0392326379771788  1.0000
  O   O15       1.0  0.0908047552315097  0.10914151187432002  0.4607647525501618  1.0000
  O   O16       1.0  0.4091945191440233  0.3908584960156318  0.9607648352133749  1.0000
  O   O17       1.0  0.7873030943309871  0.25656051728584833  0.8210764877835856  1.0000
  O   O18       1.0  0.7126977134167802  0.24343990019772835  0.3210766518272834  1.0000
  O   O19       1.0  0.2126975131191173  0.7434403070290543  0.1789232895590445  1.0000
  O   O20       1.0  0.28730191731630583  0.7565601035966908  0.6789238935656314  1.0000
  O   O21       1.0  0.8982249151582734  0.4074132591845014  0.8588647280852227  1.0000
  O   O22       1.0  0.6017758944042981  0.09258637272576209  0.358863879903609  1.0000
  O   O23       1.0  0.10177471557410196  0.5925867446095694  0.1411350492565049  1.0000
  O   O24       1.0  0.3982245763176167  0.9074128120447398  0.6411351293871872  1.0000
  O   O25       1.0  0.9064819813174267  0.2697773374862323  0.4793467868351299  1.0000
  O   O26       1.0  0.5935172352941365  0.23022240196547733  0.9793463591220685  1.0000
  O   O27       1.0  0.09351758105191979  0.7302218465361605  0.520653758557458  1.0000
  O   O28       1.0  0.40648246380197856  0.7697784216006196  0.0206534182199789  1.0000
  O   O29       1.0  0.8002094035601528  0.37558064496900573  0.5739307229406235  1.0000
  O   O30       1.0  0.6997899684761889  0.12441872832144443  0.0739307888850931  1.0000
  O   O31       1.0  0.1997910671624794  0.6244185398018375  0.4260690544013598  1.0000
  O   O32       1.0  0.30020875390219  0.875581274723828  0.9260689884560589  1.0000
  O   O33       1.0  0.5297911507709117  0.0163625543476869  0.8535617349759123  1.0000
  O   O34       1.0  0.9702087405890298  0.4836370720144388  0.3535608542231685  1.0000
  O   O35       1.0  0.4702102966701602  0.983637450944329  0.1464388104181467  1.0000
  O   O36       1.0  0.0297908901426283  0.5163629317792912  0.6464381550673791  1.0000
  O   O37       1.0  0.7279754874252404  0.7423284247350924  0.8780276122379007  1.0000
  O   O38       1.0  0.7720242205083282  0.757671880829058  0.37802786124029797  1.0000
  O   O39       1.0  0.27202505166112445  0.25767157980778427  0.12197216510440258  1.0000
  O   O40       1.0  0.22797541022475795  0.24232812296536826  0.6219726841526168  1.0000
  O   O41       1.0  0.4454450416046923  0.1525699010937487  0.7798741297338123  1.0000
  O   O42       1.0  0.05455480517804999  0.34742994383471887  0.2798733967345441  1.0000
  O   O43       1.0  0.5545545891291112  0.8474301027010187  0.22012718371028936  1.0000
  O   O44       1.0  0.9454448255543254  0.6525700599593521  0.7201263806071836  1.0000
  O   O45       1.0  0.5485864572488454  0.7677654810870819  0.8115012179669419  1.0000
  O   O46       1.0  0.9514140354868629  0.7322347650177862  0.3115009087856108  1.0000
  O   O47       1.0  0.4514141502026875  0.23223534322851686  0.18850009547805507  1.0000
  O   O48       1.0  0.0485865036009301  0.2677652395257795  0.6885004046590593  1.0000
