data_image0
_chemical_formula_structural       Ag4H4C14N12O10
_chemical_formula_sum              "Ag4 H4 C14 N12 O10"
_cell_length_a       8.755263191777864
_cell_length_b       8.755237570275554
_cell_length_c       8.901482189637175
_cell_angle_alpha    108.28874781188914
_cell_angle_beta     117.36763678536171
_cell_angle_gamma    102.33190405510776

_space_group_name_H-M_alt    "P 1"
_space_group_IT_number       1

loop_
  _space_group_symop_operation_xyz
  'x, y, z'

loop_
  _atom_site_type_symbol
  _atom_site_label
  _atom_site_symmetry_multiplicity
  _atom_site_fract_x
  _atom_site_fract_y
  _atom_site_fract_z
  _atom_site_occupancy
  Ag  Ag1       1.0  0.3550844344088233  0.2699556545090829  0.4544637116603809  1.0000
  Ag  Ag2       1.0  0.31549172798632713  0.9006209177707662  0.04553508585063783  1.0000
  Ag  Ag3       1.0  0.6449186688680726  0.7300456869184231  0.5455384454909405  1.0000
  Ag  Ag4       1.0  0.6845107814539234  0.09937909520250092  0.9544663897899994  1.0000
  H   H1        1.0  0.9979687320464381  0.7500934843620399  0.5573274784910468  1.0000
  H   H2        1.0  0.6927601632060885  0.44063961665536067  0.9426744923969751  1.0000
  H   H3        1.0  0.0020342548256380125  0.24991051169369174  0.4426732119795602  1.0000
  H   H4        1.0  0.3072378886016693  0.5593590367691094  0.057325690702874965  1.0000
  C   C1        1.0  0.8289230144788888  0.578921089901101  0.25000140686648104  1.0000
  C   C2        1.0  0.1710776178059561  0.4210775819431803  0.7499999338797352  1.0000
  C   C3        1.0  0.9778309717215735  0.7302993556086934  0.42117416598889434  1.0000
  C   C4        1.0  0.8091262521267097  0.5566547777825619  0.07882683782908362  1.0000
  C   C5        1.0  0.022170240560349413  0.26970065161950885  0.5788256053891202  1.0000
  C   C6        1.0  0.1908730899195987  0.4433438848518136  0.9211739240939493  1.0000
  C   C7        1.0  0.10707977599742692  0.8563296348905926  0.423224682068721  1.0000
  C   C8        1.0  0.9331025867758882  0.6838550018290875  0.0767762337218087  1.0000
  C   C9        1.0  0.892920732962814  0.14367169504676985  0.5767740665573484  1.0000
  C   C10       1.0  0.06689089099457139  0.3161449466748181  0.9232211901565391  1.0000
  C   C11       1.0  0.09395045825194623  0.8439514185230765  0.25000015432571865  1.0000
  C   C12       1.0  0.9060474771509989  0.1560498895296263  0.749998562093424  1.0000
  C   C13       1.0  0.6963704866976457  0.44636786015424695  0.2500036906511909  1.0000
  C   C14       1.0  0.3036320365821723  0.5536321458893384  0.7500000358683322  1.0000
  N   N1        1.0  0.25338479955343735  0.005345560620199301  0.6096879426838769  1.0000
  N   N2        1.0  0.8956552428467861  0.6436943944686109  0.8903128016082463  1.0000
  N   N3        1.0  0.7466169927255706  0.9946557819919236  0.39031025932593627  1.0000
  N   N4        1.0  0.104341027451035  0.3563002735931633  0.10968533695956492  1.0000
  N   N5        1.0  0.6172193785343437  0.48207573783322033  0.3477956556420096  1.0000
  N   N6        1.0  0.6342805713289223  0.26942862265352835  0.1522098591544179  1.0000
  N   N7        1.0  0.3827811511852488  0.5179255817096191  0.652206469302385  1.0000
  N   N8        1.0  0.3657192689085633  0.7305740126687825  0.8477934939169104  1.0000
  N   N9        1.0  0.5054842718331755  0.32370823006330346  0.30845800191857364  1.0000
  N   N10       1.0  0.5152529084330126  0.1970289283802202  0.1915453896209199  1.0000
  N   N11       1.0  0.49451567096956245  0.6762917575604563  0.6915445669545833  1.0000
  N   N12       1.0  0.48474702053015056  0.8029710661732353  0.808454928373351  1.0000
  O   O1        1.0  0.21005159716229121  0.9600509912723681  0.24999813823586697  1.0000
  O   O2        1.0  0.7899457305644404  0.03994899525579142  0.7499976457937123  1.0000
  O   O3        1.0  0.23025836900689714  0.0341630904523242  0.7427500832447365  1.0000
  O   O4        1.0  0.7914136195304167  0.48750296652340813  0.7572542448596664  1.0000
  O   O5        1.0  0.7697454099125451  0.9658369421253854  0.2572485949007659  1.0000
  O   O6        1.0  0.20858336792865376  0.5124903718995173  0.24274716733897617  1.0000
  O   O7        1.0  0.40137092270587976  0.10250186224671154  0.6349792549989246  1.0000
  O   O8        1.0  0.9675212126741358  0.7663866216989632  0.8650181961648897  1.0000
  O   O9        1.0  0.5986307670078759  0.8975021280639625  0.36501973120906683  1.0000
  O   O10       1.0  0.03247643658791331  0.23360541480386132  0.13497748614904742  1.0000
