data_image0
_chemical_formula_structural       Ag2H38C50N12O6
_chemical_formula_sum              "Ag2 H38 C50 N12 O6"
_cell_length_a       7.106554819682261
_cell_length_b       12.966787780401832
_cell_length_c       13.2859
_cell_angle_alpha    67.84955917971672
_cell_angle_beta     82.40051477078651
_cell_angle_gamma    76.66837921805141

_space_group_name_H-M_alt    "P 1"
_space_group_IT_number       1

loop_
  _space_group_symop_operation_xyz
  'x, y, z'

loop_
  _atom_site_type_symbol
  _atom_site_label
  _atom_site_symmetry_multiplicity
  _atom_site_fract_x
  _atom_site_fract_y
  _atom_site_fract_z
  _atom_site_occupancy
  Ag  Ag1       1.0  0.7186375518852728  0.0500509452192333  0.3946664027664538  1.0000
  Ag  Ag2       1.0  0.28136168771045084  0.9499496830715515  0.605332742412692  1.0000
  H   H1        1.0  0.8755179138089488  0.0150507830993192  0.7408579056634322  1.0000
  H   H2        1.0  0.12448246037190808  0.9849506944626043  0.25914159941661535  1.0000
  H   H3        1.0  0.9478813291164842  0.8033765252585425  0.01181437182562202  1.0000
  H   H4        1.0  0.05212245437616051  0.19662325376111056  0.988186269798554  1.0000
  H   H5        1.0  0.8764993597464111  0.6120306423460491  0.048253420201042764  1.0000
  H   H6        1.0  0.12350243405495581  0.3879708352158744  0.95174523177959  1.0000
  H   H7        1.0  0.7082274760512206  0.7218278120905666  0.7186414361372541  1.0000
  H   H8        1.0  0.291771763544503  0.2781728162002182  0.28135846171954876  1.0000
  H   H9        1.0  0.8985131079185535  0.3874714637870085  0.7179995158601357  1.0000
  H   H10       1.0  0.10148812136844751  0.6125274659615059  0.2820023716402034  1.0000
  H   H11       1.0  0.8957977583855338  0.18017626891168698  0.7716057541976937  1.0000
  H   H12       1.0  0.10419864196916252  0.8198243593790976  0.22839584985791817  1.0000
  H   H13       1.0  0.7279145291424456  0.0795291464029262  0.943069784993497  1.0000
  H   H14       1.0  0.2720832908327608  0.9204714818878655  0.05693096596271372  1.0000
  H   H15       1.0  0.5530170577303436  0.1855878246000344  0.0631318427961389  1.0000
  H   H16       1.0  0.4469810472802465  0.8144119544196187  0.9368692005150691  1.0000
  H   H17       1.0  0.5670057200030172  0.38998105999841204  0.012079645622577581  1.0000
  H   H18       1.0  0.4329949392132235  0.6100195682923797  0.9879209044901174  1.0000
  H   H19       1.0  0.6433112026487251  0.8067829517911774  0.5009907401748919  1.0000
  H   H20       1.0  0.3566866173264813  0.1932176764996072  0.4990085054260192  1.0000
  H   H21       1.0  0.561625051665203  0.6822738581312109  0.25345726043471467  1.0000
  H   H22       1.0  0.4383744729659043  0.3177259208884351  0.7465429297770853  1.0000
  H   H23       1.0  0.6458360064751717  0.8624322923490125  0.11397652066609253  1.0000
  H   H24       1.0  0.3541620985354186  0.1375674866706333  0.8860230172898156  1.0000
  H   H25       1.0  0.7314429440536614  0.0037333959205839  0.17795706821208768  1.0000
  H   H26       1.0  0.2685548759215451  0.9962672323702007  0.8220429300664733  1.0000
  H   H27       1.0  0.5858971090744803  0.613308795408031  0.5589373848331931  1.0000
  H   H28       1.0  0.4140990062448253  0.3866926821538925  0.44106317418977886  1.0000
  H   H29       1.0  0.8653875152736107  0.1890604942813994  0.5016033714393585  1.0000
  H   H30       1.0  0.1346026420846584  0.8109375861959762  0.49839509572412755  1.0000
  H   H31       1.0  0.8510357613732965  0.5292572801977542  0.26603767678536616  1.0000
  H   H32       1.0  0.14896291370806838  0.4707408002796143  0.7339624458805359  1.0000
  H   H33       1.0  0.72289347185216  0.4663016600437473  0.1334460504192023  1.0000
  H   H34       1.0  0.277111446225625  0.5336989682470445  0.8665519403952684  1.0000
  H   H35       1.0  0.6719513100238429  0.2683611867483293  0.19571933642444614  1.0000
  H   H36       1.0  0.3280513388836753  0.7316377430001849  0.804277181910578  1.0000
  H   H37       1.0  0.962925734592929  0.3272258678328512  0.5567544278299861  1.0000
  H   H38       1.0  0.03706669193560688  0.6727739111867947  0.4432455118129468  1.0000
  C   C1        1.0  0.7669939242907162  0.9376327037639455  0.651068358301579  1.0000
  C   C2        1.0  0.23300928913116076  0.0623687737979779  0.3489316986126028  1.0000
  C   C3        1.0  0.7935514970725706  0.8474596421943517  0.7617899656346409  1.0000
  C   C4        1.0  0.20645029672879636  0.1525418353675789  0.2382101917012989  1.0000
  C   C5        1.0  0.8655330204832339  0.8700646920620017  0.8451967398060845  1.0000
  C   C6        1.0  0.13447019293865028  0.1299367854999218  0.15480256443044735  1.0000
  C   C7        1.0  0.8917532667867435  0.785118045072771  0.9492537713685111  1.0000
  C   C8        1.0  0.10825023167052447  0.21488258321802078  0.050745825223018  1.0000
  C   C9        1.0  0.8522920454243419  0.6794704141062269  0.969086627438699  1.0000
  C   C10       1.0  0.147712872653436  0.320530214184565  0.030912116053414686  1.0000
  C   C11       1.0  0.7892207583128227  0.6545961117590906  0.8860223449393557  1.0000
  C   C12       1.0  0.21078103548854438  0.3454053658028329  0.11397630704128402  1.0000
  C   C13       1.0  0.7582425729967994  0.7399300263870358  0.783098716136635  1.0000
  C   C14       1.0  0.2417606404250847  0.2600714511748876  0.21690058809988952  1.0000
  C   C15       1.0  0.7401870459306467  0.3983548734144619  0.8647294850477819  1.0000
  C   C16       1.0  0.25981077404455977  0.6016457548763228  0.13527201858607904  1.0000
  C   C17       1.0  0.82673000834761  0.3410282223600021  0.7942061902210469  1.0000
  C   C18       1.0  0.17327093590401427  0.6589715566596439  0.20579540492429518  1.0000
  C   C19       1.0  0.823969226369563  0.2261710951780742  0.8242380713633464  1.0000
  C   C20       1.0  0.17603171788205424  0.7738286838415718  0.17576352378199533  1.0000
  C   C21       1.0  0.7287923374183548  0.1692079321704796  0.9217468696841278  1.0000
  C   C22       1.0  0.2712071872127524  0.8307918468491734  0.0782548258829721  1.0000
  C   C23       1.0  0.6336649263506402  0.2282730412434617  0.9889642957558988  1.0000
  C   C24       1.0  0.3663328936245663  0.771727587047323  0.011037207877954803  1.0000
  C   C25       1.0  0.6402615441060391  0.3422460771712252  0.9612316421553968  1.0000
  C   C26       1.0  0.3597394001455783  0.6577537018484279  0.03876995298994496  1.0000
  C   C27       1.0  0.6422953874638965  0.814978418268346  0.4161976206166144  1.0000
  C   C28       1.0  0.35770271754669375  0.1850213607512998  0.5838019173392937  1.0000
  C   C29       1.0  0.5983344472650742  0.729361696351603  0.3882789453314429  1.0000
  C   C30       1.0  0.4016622381249986  0.270638082668043  0.611721445723866  1.0000
  C   C31       1.0  0.5973853644506022  0.7468796121054524  0.27728435469596485  1.0000
  C   C32       1.0  0.4026144452158817  0.2531193176430619  0.7227153751931821  1.0000
  C   C33       1.0  0.6431544000387035  0.8465492235349146  0.20063474345147378  1.0000
  C   C34       1.0  0.35684540962778744  0.1534497062135998  0.7993649864376663  1.0000
  C   C35       1.0  0.6883657016453879  0.926338246905928  0.23556810870057615  1.0000
  C   C36       1.0  0.311632403365202  0.0736615321137251  0.7644314292553245  1.0000
  C   C37       1.0  0.5621318605500676  0.6254211003714971  0.4746697140336449  1.0000
  C   C38       1.0  0.43786624446052247  0.374578678648156  0.5253305765999059  1.0000
  C   C39       1.0  0.8382766759411239  0.253769010063273  0.4208101852306569  1.0000
  C   C40       1.0  0.1617191598992065  0.7462290704141026  0.5791886329234543  1.0000
  C   C41       1.0  0.872487755426725  0.3638337002161123  0.39303426388545387  1.0000
  C   C42       1.0  0.1275106346192486  0.636165229532395  0.606964813747794  1.0000
  C   C43       1.0  0.8285456713672941  0.4430341786888192  0.28831023931492433  1.0000
  C   C44       1.0  0.1714572625756077  0.5569639017885564  0.7116880767303966  1.0000
  C   C45       1.0  0.7560020197747122  0.4091142894558429  0.21625358027601746  1.0000
  C   C46       1.0  0.24400034409742227  0.59088548956381  0.7837441510593164  1.0000
  C   C47       1.0  0.7271864800692995  0.2980822794773488  0.2503383225526292  1.0000
  C   C48       1.0  0.2728144641823249  0.7019174995422972  0.7496580038491557  1.0000
  C   C49       1.0  0.9416909295638118  0.3928473500875782  0.4752608053253624  1.0000
  C   C50       1.0  0.05830292214163529  0.6071481825763883  0.5247405960925562  1.0000
  N   N1        1.0  0.7658992433790459  0.5426248079024916  0.9134849379251121  1.0000
  N   N2        1.0  0.23410113080181108  0.4573766696594319  0.08651531983257847  1.0000
  N   N3        1.0  0.7626774299450646  0.5119100679425586  0.8334227778666445  1.0000
  N   N4        1.0  0.23732180965065197  0.4880905603482332  0.16657787266780127  1.0000
  N   N5        1.0  0.6866624831882646  0.9113341737191689  0.34177360207121393  1.0000
  N   N6        1.0  0.31333562182233277  0.0886656053004771  0.658225935884694  1.0000
  N   N7        1.0  0.5086337311044176  0.5471013160684137  0.45346858049109073  1.0000
  N   N8        1.0  0.49136295428565546  0.4528984629512323  0.5465340685971682  1.0000
  N   N9        1.0  0.7659409056229265  0.22154766310536186  0.3511440652970492  1.0000
  N   N10       1.0  0.23405719938766373  0.7784521159142912  0.6488517092706019  1.0000
  N   N11       1.0  0.9717677082949265  0.49386135772775214  0.45490434797004287  1.0000
  N   N12       1.0  0.028228407024378975  0.5061401198341713  0.5450954583752718  1.0000
  O   O1        1.0  0.7022305466404647  0.9159389218268641  0.5786597874150202  1.0000
  O   O2        1.0  0.2977726667814125  0.0840625557350663  0.42133951682151144  1.0000
  O   O3        1.0  0.8145177669709653  0.0327708253838992  0.6363340272564527  1.0000
  O   O4        1.0  0.18548289224526823  0.9672298029068926  0.36366652285624196  1.0000
  O   O5        1.0  0.9087637417513578  0.9712782784194971  0.824480643266227  1.0000
  O   O6        1.0  0.09123805205000929  0.0287231991424264  0.17551876139206257  1.0000
