data_image0
_chemical_formula_structural       Ni2H26C36SN4O10
_chemical_formula_sum              "Ni2 H26 C36 S1 N4 O10"
_cell_length_a       8.084357668933256
_cell_length_b       11.226084460900099
_cell_length_c       13.246449096966733
_cell_angle_alpha    107.33222022420793
_cell_angle_beta     107.76787479337167
_cell_angle_gamma    90.01244839152946

_space_group_name_H-M_alt    "P 1"
_space_group_IT_number       1

loop_
  _space_group_symop_operation_xyz
  'x, y, z'

loop_
  _atom_site_type_symbol
  _atom_site_label
  _atom_site_symmetry_multiplicity
  _atom_site_fract_x
  _atom_site_fract_y
  _atom_site_fract_z
  _atom_site_occupancy
  Ni  Ni1       1.0  0.857172568996269  0.0690395256329097  0.6242240725732131  1.0000
  Ni  Ni2       1.0  0.23295815749469986  0.9309768057866986  0.3758152180850445  1.0000
  H   H1        1.0  0.6910748489833765  0.7893382398423797  0.9447307076046556  1.0000
  H   H2        1.0  0.7462583029446322  0.2106684522367246  0.055283911828631495  1.0000
  H   H3        1.0  0.42357667333710936  0.6961382373283556  0.7795352515012368  1.0000
  H   H4        1.0  0.6439454170910538  0.3036388194577881  0.22043112901145182  1.0000
  H   H5        1.0  0.33473833619237336  0.796384208043513  0.6285135059532083  1.0000
  H   H6        1.0  0.7062583236479301  0.20338394373724364  0.3714431327114838  1.0000
  H   H7        1.0  0.6898139262422093  0.8150205586973768  0.4584892666025766  1.0000
  H   H8        1.0  0.23123406466854848  0.18509432931736572  0.5415498458300974  1.0000
  H   H9        1.0  0.675803345004276  0.59459386258073  0.4598466007607484  1.0000
  H   H10       1.0  0.21575296062756175  0.4054659410498758  0.5400960446503333  1.0000
  H   H11       1.0  0.04832961785177051  0.721228866718576  0.7933685214746902  1.0000
  H   H12       1.0  0.2551392405750689  0.278812674165863  0.2066941250954599  1.0000
  H   H13       1.0  0.04533693959270826  0.9358262382951635  0.7775278313424963  1.0000
  H   H14       1.0  0.26812663618630944  0.06423677344260169  0.22262846733012512  1.0000
  H   H15       1.0  0.1076132420877798  0.30357863291681036  0.7405987185784468  1.0000
  H   H16       1.0  0.3670016550505366  0.6965634352671728  0.25937662888015467  1.0000
  H   H17       1.0  0.12419749681372852  0.5248961978726002  0.741946348490707  1.0000
  H   H18       1.0  0.38235407384372166  0.4752252563730081  0.25800213343123346  1.0000
  H   H19       1.0  0.5860493877567946  0.4524235837929851  0.5283368263452033  1.0000
  H   H20       1.0  0.058022460090072094  0.5475739702722962  0.4716938616858427  1.0000
  H   H21       1.0  0.596454720841052  0.23154797963822915  0.5331047345650717  1.0000
  H   H22       1.0  0.06348857645676281  0.7684050137941512  0.46692807965411015  1.0000
  H   H23       1.0  0.19106486853515744  0.02918296679929  0.615463977746778  1.0000
  H   H24       1.0  0.5756694068475383  0.9709126730471169  0.3845433849322291  1.0000
  H   H25       1.0  0.1809827784742666  0.09415410048744377  0.7380851367186666  1.0000
  H   H26       1.0  0.44287777857373106  0.9059392289575003  0.26192762888401694  1.0000
  C   C1        1.0  0.5409138897635587  0.9466993596358437  0.7101918783169126  1.0000
  C   C2        1.0  0.830788472465329  0.0531824559634728  0.2897270443408573  1.0000
  C   C3        1.0  0.6869071250991183  0.002731514182336499  0.805115663357398  1.0000
  C   C4        1.0  0.8816932645790698  0.9971424071123418  0.19474128912484184  1.0000
  C   C5        1.0  0.7392820632956116  0.9421230798442792  0.8870240920039834  1.0000
  C   C6        1.0  0.8521043012569651  0.057776304720079  0.11283353389978865  1.0000
  C   C7        1.0  0.6454568125737908  0.8328296603397973  0.8787894287755549  1.0000
  C   C8        1.0  0.7665920284325196  0.16709322159066883  0.12116648036003852  1.0000
  C   C9        1.0  0.4968686591480846  0.7816247969424595  0.78680618711185  1.0000
  C   C10       1.0  0.71005091953311  0.2182114718337829  0.21317282108024221  1.0000
  C   C11       1.0  0.4464435524990833  0.8376342987687624  0.7028408890198677  1.0000
  C   C12       1.0  0.7436481964057436  0.16219486289458024  0.2971227236970435  1.0000
  C   C13       1.0  0.4871226591502448  0.9948026531811887  0.6125465379840732  1.0000
  C   C14       1.0  0.8746651386993635  0.0051007840463271  0.3873999916895912  1.0000
  C   C15       1.0  0.7837800404243395  0.12908763382605307  0.8275178477757166  1.0000
  C   C16       1.0  0.9562487808384573  0.8708548623745498  0.17241681937125714  1.0000
  C   C17       1.0  0.7675602080811359  0.7898890949842041  0.5308660105428942  1.0000
  C   C18       1.0  0.23665633738356456  0.21020406883125273  0.4691647474393577  1.0000
  C   C19       1.0  0.7598788070892154  0.666967967788288  0.5327272054765045  1.0000
  C   C20       1.0  0.22703048385240976  0.33309461555389663  0.4672513075239522  1.0000
  C   C21       1.0  0.8617173178263543  0.6373642169269546  0.6271676933286799  1.0000
  C   C22       1.0  0.23462821796108807  0.3626695676363384  0.372833064588626  1.0000
  C   C23       1.0  0.9693749659139427  0.7360590286535071  0.7160467616416001  1.0000
  C   C24       1.0  0.25346149039325644  0.26395589393094104  0.2840000794571722  1.0000
  C   C25       1.0  0.9691271530304135  0.8564772564104146  0.7079875908207994  1.0000
  C   C26       1.0  0.26133443813141355  0.14355706590329478  0.2921252807356822  1.0000
  C   C27       1.0  0.9958001367855402  0.340073062867738  0.6936012820026036  1.0000
  C   C28       1.0  0.30229330467830806  0.6600320082354332  0.3064146458877914  1.0000
  C   C29       1.0  0.0032228003945959922  0.46398692555122506  0.6943062418777332  1.0000
  C   C30       1.0  0.3091373019239184  0.5361145136983083  0.3057205155126681  1.0000
  C   C31       1.0  0.8569101602061695  0.5080145509610717  0.6321351136510387  1.0000
  C   C32       1.0  0.22506793233627317  0.4920404620015261  0.3678927324766192  1.0000
  C   C33       1.0  0.7065723138381871  0.42309040660582997  0.5743289731979645  1.0000
  C   C34       1.0  0.13258981729505592  0.5769487605078324  0.42573064510416714  1.0000
  C   C35       1.0  0.7103423097740633  0.3002336579646894  0.5769979070318102  1.0000
  C   C36       1.0  0.13357754790700233  0.6997984231886036  0.4230663224770624  1.0000
  S   S1        1.0  0.9366625842643758  2.365794559010007e-05  0.9999534262171182  1.0000
  N   N1        1.0  0.8696562568541354  0.8840775230787298  0.6174124381923318  1.0000
  N   N2        1.0  0.2523515257452544  0.11599224182482712  0.3826956344512311  1.0000
  N   N3        1.0  0.8534239183116484  0.2581231706283943  0.633819124668861  1.0000
  N   N4        1.0  0.21972524428625212  0.7419395088910435  0.366199537545512  1.0000
  O   O1        1.0  0.5936789117315869  0.057781357889148  0.590590566602458  1.0000
  O   O2        1.0  0.0030315968871832424  0.9420469584338635  0.4093708094313514  1.0000
  O   O3        1.0  0.32678479300278707  0.9660039269111566  0.5492267773974291  1.0000
  O   O4        1.0  0.777752025379428  0.0340774863719417  0.45076472996132816  1.0000
  O   O5        1.0  0.9178112773121611  0.1281700243120767  0.7928331814352277  1.0000
  O   O6        1.0  0.1249993550117381  0.871932137412621  0.20727617578537416  1.0000
  O   O7        1.0  0.7306267980164803  0.2228957070610065  0.8811611709143677  1.0000
  O   O8        1.0  0.8495884048173467  0.7769689114636975  0.1187173395588702  1.0000
  O   O9        1.0  0.1302315946945001  0.09100710388793232  0.6604509520147489  1.0000
  O   O10       1.0  0.46984818233479336  0.9090512932581304  0.3395632736715156  1.0000
