data_image0
_chemical_formula_structural       Cd2H16C28N16
_chemical_formula_sum              "Cd2 H16 C28 N16"
_cell_length_a       6.489238850106147
_cell_length_b       9.521424871121505
_cell_length_c       13.036428371232565
_cell_angle_alpha    89.12781497629908
_cell_angle_beta     87.59593019322517
_cell_angle_gamma    70.13158175633419

_space_group_name_H-M_alt    "P 1"
_space_group_IT_number       1

loop_
  _space_group_symop_operation_xyz
  'x, y, z'

loop_
  _atom_site_type_symbol
  _atom_site_label
  _atom_site_symmetry_multiplicity
  _atom_site_fract_x
  _atom_site_fract_y
  _atom_site_fract_z
  _atom_site_occupancy
  Cd  Cd1       1.0  0.1232216658309964  0.7553010572962083  0.2501668715611913  1.0000
  Cd  Cd2       1.0  0.8767815627962462  0.24469719398044282  0.7498430357127149  1.0000
  H   H1        1.0  0.7776093886296493  0.6597368305185185  0.11963011572036922  1.0000
  H   H2        1.0  0.5639258589489557  0.6596801207338316  0.38065156569507513  1.0000
  H   H3        1.0  0.2223906453692591  0.3402681263375414  0.880372882737035  1.0000
  H   H4        1.0  0.4361027860856764  0.3403080991984098  0.6193419214421283  1.0000
  H   H5        1.0  0.2855240840886354  0.16490863722093246  0.2113704136490497  1.0000
  H   H6        1.0  0.5511943269029375  0.16489220306125674  0.2882294127907414  1.0000
  H   H7        1.0  0.7144647961755338  0.8350940840018097  0.7886297057841887  1.0000
  H   H8        1.0  0.4487968507913322  0.8351060535102306  0.7117676386125212  1.0000
  H   H9        1.0  0.7109485450183044  0.43195954450845875  0.05546343970986099  1.0000
  H   H10       1.0  0.8583328135347728  0.4318058442099328  0.4446740854214966  1.0000
  H   H11       1.0  0.28903636504655583  0.5680509915744808  0.9445397466035459  1.0000
  H   H12       1.0  0.14170444783272987  0.5681779184599236  0.5553093322826754  1.0000
  H   H13       1.0  0.9757768541723236  0.1790344601719838  0.1043674215130252  1.0000
  H   H14       1.0  0.8467219800447269  0.1789125383232175  0.3954134257176705  1.0000
  H   H15       1.0  0.024207645841627635  0.82097384245499  0.8956350218977036  1.0000
  H   H16       1.0  0.15328622910183048  0.8210767968414814  0.6045726955086934  1.0000
  C   C1        1.0  0.20403511827393572  0.40559990498202575  0.21904676997031908  1.0000
  C   C2        1.0  0.3920687413858417  0.4055697579255977  0.2807570874750027  1.0000
  C   C3        1.0  0.7959683451023382  0.5943983543236584  0.7809523938328837  1.0000
  C   C4        1.0  0.6079332135278291  0.5944285019702563  0.7192405652682154  1.0000
  C   C5        1.0  0.7286861118138007  0.0073787136154806  0.1101196088738021  1.0000
  C   C6        1.0  0.26577919096610714  0.0071358393829897  0.3902240016643077  1.0000
  C   C7        1.0  0.27131852466931144  0.9926195336299914  0.8898964138046705  1.0000
  C   C8        1.0  0.7341998998583534  0.9928713511623503  0.6097693283266921  1.0000
  C   C9        1.0  0.8883413624030962  0.5476007146237266  0.136701483245659  1.0000
  C   C10       1.0  0.5655207304899008  0.547521172331585  0.36339962957670474  1.0000
  C   C11       1.0  0.1116509783727507  0.45240424002165736  0.8633008664287019  1.0000
  C   C12       1.0  0.4345067021297951  0.4524726329860727  0.6365922971410853  1.0000
  C   C13       1.0  0.1736295406932484  0.27351869273630314  0.1890965248094432  1.0000
  C   C14       1.0  0.5545378408988029  0.27345703694572165  0.3106069738074595  1.0000
  C   C15       1.0  0.8263649835094429  0.7264851485971064  0.8109019645728209  1.0000
  C   C16       1.0  0.445462719555536  0.726537872201014  0.6893899601378948  1.0000
  C   C17       1.0  0.8508030332869579  0.4208659808197908  0.10223445970759569  1.0000
  C   C18       1.0  0.7297983770601206  0.42075026579752267  0.39775552972076866  1.0000
  C   C19       1.0  0.14918998005187944  0.5791467909297978  0.8977701182915396  1.0000
  C   C20       1.0  0.27022379053764917  0.5792357218924239  0.6022327050553428  1.0000
  C   C21       1.0  0.9973816538067695  0.2816986989062543  0.12913426155054708  1.0000
  C   C22       1.0  0.7225303865009706  0.2815780552712114  0.3706584313785797  1.0000
  C   C23       1.0  0.0026128033247730907  0.7183051401331467  0.8708672973947813  1.0000
  C   C24       1.0  0.27748389003154716  0.7184112786798167  0.629332199306198  1.0000
  C   C25       1.0  0.6375872478291954  0.17244723462777503  0.9736898365359963  1.0000
  C   C26       1.0  0.18892781061890673  0.17271848881276952  0.5262198400035629  1.0000
  C   C27       1.0  0.36240844513908127  0.8275409541118182  0.026330240039627004  1.0000
  C   C28       1.0  0.8110623055705091  0.8272853583056516  0.4737687444633991  1.0000
  N   N1        1.0  0.06086113882041386  0.5396862796038776  0.1922304895094342  1.0000
  N   N2        1.0  0.4010360077298928  0.539631543406763  0.3077769945039819  1.0000
  N   N3        1.0  0.9391379275378497  0.46031756053253764  0.8077717656620179  1.0000
  N   N4        1.0  0.5989768384064361  0.4603633684741554  0.6922220518413128  1.0000
  N   N5        1.0  0.8321965261963837  0.9129101454297058  0.1655111203138446  1.0000
  N   N6        1.0  0.258134176133865  0.912175219205089  0.33498548115432664  1.0000
  N   N7        1.0  0.16780948894827932  0.0871037371711907  0.834507824232645  1.0000
  N   N8        1.0  0.7419051353996693  0.08780293454909581  0.6650317036598352  1.0000
  N   N9        1.0  0.5955621539136473  0.11331925878300098  0.05823960402610599  1.0000
  N   N10       1.0  0.2913577751942285  0.1136873826081697  0.4420195872490851  1.0000
  N   N11       1.0  0.40443530337529415  0.8866845785025604  0.9417657444299508  1.0000
  N   N12       1.0  0.7085294076016027  0.8863845764258758  0.557948554366483  1.0000
  N   N13       1.0  0.6547021489467609  0.23765095235404482  0.8978752640811933  1.0000
  N   N14       1.0  0.10537713111860111  0.23796829947757908  0.6017234954095372  1.0000
  N   N15       1.0  0.34529237188466766  0.7623495336255672  0.10212938929853982  1.0000
  N   N16       1.0  0.8946341126024181  0.7620165440646003  0.3982963688220025  1.0000
