data_image0
_chemical_formula_structural       Ba2H20C8N16O12
_chemical_formula_sum              "Ba2 H20 C8 N16 O12"
_cell_length_a       7.668048166460144
_cell_length_b       7.793231880240379
_cell_length_c       11.783179498907364
_cell_angle_alpha    71.15449001105921
_cell_angle_beta     85.64053358466565
_cell_angle_gamma    63.83631758093422

_space_group_name_H-M_alt    "P 1"
_space_group_IT_number       1

loop_
  _space_group_symop_operation_xyz
  'x, y, z'

loop_
  _atom_site_type_symbol
  _atom_site_label
  _atom_site_symmetry_multiplicity
  _atom_site_fract_x
  _atom_site_fract_y
  _atom_site_fract_z
  _atom_site_occupancy
  Ba  Ba1       1.0  0.31050217491628723  0.7917602639118327  0.030133438994525398  1.0000
  Ba  Ba2       1.0  0.6894977696823188  0.20824021493901773  0.9698665996289719  1.0000
  H   H1        1.0  0.53840984990903  0.7162559969614859  0.4560494670084553  1.0000
  H   H2        1.0  0.4615900946895833  0.2837444818893644  0.543950571615035  1.0000
  H   H3        1.0  0.8951852454230927  0.3746467192165994  0.49797739252425544  1.0000
  H   H4        1.0  0.10481341691475878  0.6253567905209821  0.5020229003436114  1.0000
  H   H5        1.0  0.2598920036548691  0.3790720916464564  0.06099210004705211  1.0000
  H   H6        1.0  0.7401085808245396  0.6209268671743473  0.9390073881751848  1.0000
  H   H7        1.0  0.2336601009763085  0.4717651213827452  0.9181523533673471  1.0000
  H   H8        1.0  0.7663404835031  0.5282338374380586  0.08184713485488258  1.0000
  H   H9        1.0  0.0921075814063599  0.21727670679039332  0.056274115031349915  1.0000
  H   H10       1.0  0.907893650451328  0.7827207595204444  0.9437273624640525  1.0000
  H   H11       1.0  0.07691710720992258  0.2931294795968711  0.9128307494630832  1.0000
  H   H12       1.0  0.9230834797686497  0.7068694883972882  0.08716958531729088  1.0000
  H   H13       1.0  0.6132126830902607  0.8081245183569266  0.2220347464890011  1.0000
  H   H14       1.0  0.3867872615083527  0.19187596049392402  0.7779652921344891  1.0000
  H   H15       1.0  0.41580988984522793  0.0104636659598114  0.19036683996529288  1.0000
  H   H16       1.0  0.5841887440091754  0.989536804572971  0.809632420784439  1.0000
  H   H17       1.0  0.9766270352007069  0.9378664075891693  0.2506059439224373  1.0000
  H   H18       1.0  0.02337616326963139  0.062132540347711505  0.7493925603728827  1.0000
  H   H19       1.0  0.16941403695560098  0.7235967525148155  0.2981513985191954  1.0000
  H   H20       1.0  0.8305878557688542  0.2764022054507081  0.7018480210186483  1.0000
  C   C1        1.0  0.06867493022620857  0.3282973639130589  0.2403501808051942  1.0000
  C   C2        1.0  0.9313250143723978  0.6717031149377914  0.7596498578182961  1.0000
  C   C3        1.0  0.5146456332706606  0.6944186090804579  0.5505172503660987  1.0000
  C   C4        1.0  0.4853536714471502  0.3055833898004394  0.44948333865865214  1.0000
  C   C5        1.0  0.3818673541077472  0.7440039651218128  0.7220244786614459  1.0000
  C   C6        1.0  0.6181332328708249  0.2559950028723534  0.2779758561189283  1.0000
  C   C7        1.0  0.9253950585331692  0.39185772858007073  0.4045787355078474  1.0000
  C   C8        1.0  0.07460293793960195  0.6081442711561067  0.5954219222012894  1.0000
  N   N1        1.0  0.21541518118353764  0.013668778069536798  0.5372460496086191  1.0000
  N   N2        1.0  0.7845847659142321  0.9863317099546691  0.46275483557301555  1.0000
  N   N3        1.0  0.2270188805889077  0.06535265965828069  0.4247321921593326  1.0000
  N   N4        1.0  0.77297911838302  0.9346493492512523  0.5752693121079488  1.0000
  N   N5        1.0  0.0797921581208598  0.24903391813761996  0.3662843727661453  1.0000
  N   N6        1.0  0.9202064807318632  0.7509665707418662  0.6337165810998755  1.0000
  N   N7        1.0  0.3626368389646115  0.8306855933330795  0.5938873105035682  1.0000
  N   N8        1.0  0.6373631056340017  0.16931488551777116  0.406112728119922  1.0000
  N   N9        1.0  0.9115785410649551  0.5086394238517471  0.2076042684930144  1.0000
  N   N10       1.0  0.08841878454440183  0.4913610475363157  0.7923950609411109  1.0000
  N   N11       1.0  0.8248506403034097  0.5463176002008227  0.3107795647662143  1.0000
  N   N12       1.0  0.17514930679435986  0.4536828878233835  0.6892213204154274  1.0000
  N   N13       1.0  0.541291088942259  0.5641403852863148  0.7487914194726316  1.0000
  N   N14       1.0  0.4587081872921034  0.4358585743897763  0.2512081374339914  1.0000
  N   N15       1.0  0.6200755020278731  0.5375888314672892  0.6417956566202321  1.0000
  N   N16       1.0  0.3799244400715763  0.4624116382102058  0.35820353544511363  1.0000
  O   O1        1.0  0.18822997015198684  0.23999078059620874  0.1740501205673866  1.0000
  O   O2        1.0  0.8117706168265855  0.7600081873979505  0.8259502142129878  1.0000
  O   O3        1.0  0.26565299272601817  0.8294051880343786  0.7896106851246998  1.0000
  O   O4        1.0  0.7343462835083443  0.17059377164171252  0.210388871781916  1.0000
  O   O5        1.0  0.310375271177648  0.4501670501078721  0.9900837140443173  1.0000
  O   O6        1.0  0.6896240050567144  0.5498319095682191  0.009915842862298496  1.0000
  O   O7        1.0  0.061406217499971716  0.1907250039310995  0.985103618456627  1.0000
  O   O8        1.0  0.9385950353436885  0.8092754740644637  0.014896351482477074  1.0000
  O   O9        1.0  0.521914051241019  0.9193541394240442  0.15465143303907072  1.0000
  O   O10       1.0  0.47808653323838957  0.08064481939675969  0.8453480551831589  1.0000
  O   O11       1.0  0.10469261102323903  0.849809914814415  0.2302194704534557  1.0000
  O   O12       1.0  0.8953125690547238  0.1501905697886414  0.7697811399906413  1.0000
