data_image0
_chemical_formula_structural       Ag4H32C36S8N12O8
_chemical_formula_sum              "Ag4 H32 C36 S8 N12 O8"
_cell_length_a       5.403627729269779
_cell_length_b       13.15154230517133
_cell_length_c       15.834456709200762
_cell_angle_alpha    110.35805712456882
_cell_angle_beta     90.0001120338037
_cell_angle_gamma    89.99887470933955

_space_group_name_H-M_alt    "P 1"
_space_group_IT_number       1

loop_
  _space_group_symop_operation_xyz
  'x, y, z'

loop_
  _atom_site_type_symbol
  _atom_site_label
  _atom_site_symmetry_multiplicity
  _atom_site_fract_x
  _atom_site_fract_y
  _atom_site_fract_z
  _atom_site_occupancy
  Ag  Ag1       1.0  0.4360027762114242  0.10842681905929648  0.04836130565458059  1.0000
  Ag  Ag2       1.0  0.9359974530785918  0.891576622780178  0.45164499942512737  1.0000
  Ag  Ag3       1.0  0.5639920622011729  0.8915751427537089  0.9516371018052041  1.0000
  Ag  Ag4       1.0  0.06399738537411541  0.1084245314254062  0.5483582272883609  1.0000
  H   H1        1.0  0.9758925465243422  0.8140114601798133  0.8007151386576865  1.0000
  H   H2        1.0  0.4759082780239794  0.18598785621867356  0.6992814953232838  1.0000
  H   H3        1.0  0.024102291888255002  0.18599050163319214  0.1992832688020982  1.0000
  H   H4        1.0  0.5240976641967804  0.8140084322085527  0.30072095899647877  1.0000
  H   H5        1.0  0.3493327874131964  0.9255149701057802  0.7622887138982576  1.0000
  H   H6        1.0  0.8493362397934733  0.07447896851272157  0.737711376128722  1.0000
  H   H7        1.0  0.6506750052155609  0.074490240883506  0.2377182094639636  1.0000
  H   H8        1.0  0.15066600137012637  0.9255100189855696  0.2622864455061347  1.0000
  H   H9        1.0  0.6283105043969925  0.25161792909234754  0.8585453967752272  1.0000
  H   H10       1.0  0.12831289704539017  0.7483836228807164  0.6414612328515474  1.0000
  H   H11       1.0  0.37169173648221937  0.7483832237988254  0.1414559349576336  1.0000
  H   H12       1.0  0.87171340159189  0.25162320366982266  0.35853668364068614  1.0000
  H   H13       1.0  0.7709014475336244  0.3184255208546247  0.7374933423149272  1.0000
  H   H14       1.0  0.27091369533150095  0.6815593722668465  0.762505373252921  1.0000
  H   H15       1.0  0.22910634536894037  0.6815675230323848  0.26250754431916323  1.0000
  H   H16       1.0  0.7290959478551784  0.3184466446123793  0.2374942042234522  1.0000
  H   H17       1.0  0.4086363447053856  0.4643814404322412  0.8977125199089429  1.0000
  H   H18       1.0  0.9086566947663358  0.5355957554701688  0.6022777079310089  1.0000
  H   H19       1.0  0.5913492408885688  0.5356116026971945  0.10228710343420022  1.0000
  H   H20       1.0  0.09132518975678751  0.46439079861121974  0.39771878004881966  1.0000
  H   H21       1.0  0.274844664246899  0.3921377103899033  0.015527850711912096  1.0000
  H   H22       1.0  0.7748517190958707  0.6078582175427487  0.4844730719499069  1.0000
  H   H23       1.0  0.725142771660252  0.6078683104325506  0.984477411706351  1.0000
  H   H24       1.0  0.22515792454627356  0.3921275206902379  0.5155162337604152  1.0000
  H   H25       1.0  0.11591534673137012  0.3917207782403977  0.6794727119660422  1.0000
  H   H26       1.0  0.6159321071518632  0.6082573563418591  0.8205183151663321  1.0000
  H   H27       1.0  0.8840831930390891  0.6082755076551153  0.3205259524165811  1.0000
  H   H28       1.0  0.3840664324457705  0.3917454143444203  0.17947716800830452  1.0000
  H   H29       1.0  0.3519146144913066  0.46197489651823526  0.7464957524474798  1.0000
  H   H30       1.0  0.8519268641981269  0.5380003628859454  0.7534945282105098  1.0000
  H   H31       1.0  0.6481024311862383  0.5380295012676513  0.2535077786105049  1.0000
  H   H32       1.0  0.14806612369491026  0.4619983569671149  0.24650610151280014  1.0000
  C   C1        1.0  0.8964554855854344  0.06913073782622801  0.9205686679306595  1.0000
  C   C2        1.0  0.39645578488655525  0.9308725248070144  0.5794398127689107  1.0000
  C   C3        1.0  0.1035541576634103  0.9308728468291106  0.07943147084117902  1.0000
  C   C4        1.0  0.6035538584923543  0.06912538223763678  0.42055805629965454  1.0000
  C   C5        1.0  0.0045282677923382  0.9010840260051085  0.8279247272158798  1.0000
  C   C6        1.0  0.5045336679928738  0.0989202272518455  0.6720775859537581  1.0000
  C   C7        1.0  0.9954684212742676  0.09891712904708069  0.172079762810661  1.0000
  C   C8        1.0  0.4954593198516691  0.9010801129442144  0.3279209851524953  1.0000
  C   C9        1.0  0.19564102768908498  0.9563491354428422  0.8081913232862165  1.0000
  C   C10       1.0  0.6956604155508544  0.043642904550822  0.691810059411786  1.0000
  C   C11       1.0  0.8043667648938211  0.043657696316785205  0.1918141731164766  1.0000
  C   C12       1.0  0.3043603317909954  0.9563420273082242  0.3081859605127803  1.0000
  C   C13       1.0  0.9418800308081784  0.31914239906029  0.9448516509184444  1.0000
  C   C14       1.0  0.44190907689134207  0.6808507312622822  0.5551501330868619  1.0000
  C   C15       1.0  0.058101853344148  0.680859562809367  0.055146756555402014  1.0000
  C   C16       1.0  0.5581153715239892  0.3191406900721603  0.4448496538585474  1.0000
  C   C17       1.0  0.7992667704062697  0.2979936884816468  0.8665355141199882  1.0000
  C   C18       1.0  0.29927692843200043  0.7020071800664525  0.6334722415881799  1.0000
  C   C19       1.0  0.20072436667709334  0.7020147679672846  0.13347424025904084  1.0000
  C   C20       1.0  0.7007271628393426  0.2980028928227085  0.3665297692419501  1.0000
  C   C21       1.0  0.8783328293399678  0.33502547340859223  0.7991141026187449  1.0000
  C   C22       1.0  0.3783361224157389  0.6649641572849776  0.70088601771716  1.0000
  C   C23       1.0  0.1216657102356109  0.6649789218941463  0.2008856385141442  1.0000
  C   C24       1.0  0.6216476122976005  0.33503779688435026  0.29910101991912086  1.0000
  C   C25       1.0  0.1002115332628222  0.39551823544363873  0.8090540335129717  1.0000
  C   C26       1.0  0.6002014826115031  0.604468151999626  0.6909469477050719  1.0000
  C   C27       1.0  0.8997999606131444  0.6044853521950345  0.19095052685956662  1.0000
  C   C28       1.0  0.39980816074535847  0.3955313796614846  0.3090551793217458  1.0000
  C   C29       1.0  0.23864610693723173  0.4174733380831911  0.8891172580948208  1.0000
  C   C30       1.0  0.7386512677059827  0.5825207520690724  0.6108746267321479  1.0000
  C   C31       1.0  0.7613524325197573  0.5825351085043947  0.11087796815296258  1.0000
  C   C32       1.0  0.261338019030262  0.41747390711370974  0.3891166214146152  1.0000
  C   C33       1.0  0.1620099329785916  0.378846024096987  0.9557385443545741  1.0000
  C   C34       1.0  0.6620126341655492  0.6211495542293689  0.5442638474176533  1.0000
  C   C35       1.0  0.837994158105353  0.6211729734990569  0.044271093807672884  1.0000
  C   C36       1.0  0.3379914577574326  0.3788345730865288  0.4557414133814248  1.0000
  S   S1        1.0  0.1677331184354713  0.09336184821894733  0.8690356992798414  1.0000
  S   S2        1.0  0.6677317617364905  0.9066344928027947  0.6309694407055418  1.0000
  S   S3        1.0  0.8322783754003779  0.9066425470271468  0.13096404183898608  1.0000
  S   S4        1.0  0.33226862882642644  0.0933544959856292  0.369030275903917  1.0000
  S   S5        1.0  0.8502315440619415  0.2704312480517999  0.029945570015733808  1.0000
  S   S6        1.0  0.35021911761306507  0.7295761894050873  0.47006375232276565  1.0000
  S   S7        1.0  0.14980770907633456  0.7295658482645138  0.9700526966716794  1.0000
  S   S8        1.0  0.6497849738341941  0.2704265851030313  0.5299374157636265  1.0000
  N   N1        1.0  0.7551857936561248  0.1457761641589244  0.980429425512618  1.0000
  N   N2        1.0  0.2551819567206834  0.854225901458932  0.5195792915967133  1.0000
  N   N3        1.0  0.24481459667445188  0.8542217420714947  0.01956718025093807  1.0000
  N   N4        1.0  0.744809180666472  0.1457687645533028  0.4804220630685307  1.0000
  N   N5        1.0  0.8394161251676094  0.9633129407678921  0.8915618993144958  1.0000
  N   N6        1.0  0.339425481163012  0.03669081687535681  0.6084410203185158  1.0000
  N   N7        1.0  0.16059536866031007  0.03669145319616259  0.1084359468317402  1.0000
  N   N8        1.0  0.6605804611040539  0.9633030367639037  0.39155820535152236  1.0000
  N   N9        1.0  0.1737405262047602  0.43464800446709256  0.7431928351060222  1.0000
  N   N10       1.0  0.6737477583922741  0.5653344905450695  0.7567994705084402  1.0000
  N   N11       1.0  0.8262672663980054  0.5653563882311018  0.25680311607164436  1.0000
  N   N12       1.0  0.3262452293949423  0.4346690967471857  0.24320445822666406  1.0000
  O   O1        1.0  0.0659862945622436  0.27541766259417244  0.08657583992658151  1.0000
  O   O2        1.0  0.5659722072319582  0.7245800934962574  0.4134274312670243  1.0000
  O   O3        1.0  0.9339789339450492  0.7245907849937793  0.9134206496724319  1.0000
  O   O4        1.0  0.43400782647665187  0.2754153823086867  0.5865722624442142  1.0000
  O   O5        1.0  0.6297673433702471  0.32695317726695805  0.07583115734993835  1.0000
  O   O6        1.0  0.12976101201618917  0.6730586202536842  0.4241774507672816  1.0000
  O   O7        1.0  0.3701997358316191  0.6730528419351387  0.9241715784603031  1.0000
  O   O8        1.0  0.870231975993249  0.32693523386956963  0.5758224065743534  1.0000
