data_image0
_chemical_formula_structural       Ag2H8C8N6O4
_chemical_formula_sum              "Ag2 H8 C8 N6 O4"
_cell_length_a       5.7013398659433925
_cell_length_b       7.328817822800222
_cell_length_c       7.2868096258932304
_cell_angle_alpha    90.0096965786448
_cell_angle_beta     89.98629765406103
_cell_angle_gamma    101.96449449472333

_space_group_name_H-M_alt    "P 1"
_space_group_IT_number       1

loop_
  _space_group_symop_operation_xyz
  'x, y, z'

loop_
  _atom_site_type_symbol
  _atom_site_label
  _atom_site_symmetry_multiplicity
  _atom_site_fract_x
  _atom_site_fract_y
  _atom_site_fract_z
  _atom_site_occupancy
  Ag  Ag1       1.0  0.4371696955829306  0.7339999453578157  0.7500138300843562  1.0000
  Ag  Ag2       1.0  0.5628607823092365  0.2659795024267737  0.24996485002594684  1.0000
  H   H1        1.0  0.18409496837104194  0.8986776448961178  0.07812419703693513  1.0000
  H   H2        1.0  0.8157132846841861  0.10143545154299718  0.5779811127143903  1.0000
  H   H3        1.0  0.8159073083837001  0.10135021334159687  0.92182567083853  1.0000
  H   H4        1.0  0.18420565884669327  0.8985748875464664  0.4220030698376221  1.0000
  H   H5        1.0  0.7655469779454904  0.6355348154854992  0.0778588478156905  1.0000
  H   H6        1.0  0.2343348870310464  0.3645428170357121  0.5778484725642344  1.0000
  H   H7        1.0  0.23449578452687084  0.3644586682244863  0.9221555133363356  1.0000
  H   H8        1.0  0.7656541110020711  0.635418135879078  0.42216863530220655  1.0000
  C   C1        1.0  0.31403297898594934  0.8386987016245513  0.15437612697917305  1.0000
  C   C2        1.0  0.6859555640247662  0.16133183943546206  0.6544709026307204  1.0000
  C   C3        1.0  0.6859218267754201  0.16131477852550793  0.8456574568854338  1.0000
  C   C4        1.0  0.31403967871955274  0.8386889971704862  0.34555032708213673  1.0000
  C   C5        1.0  0.6336928537834652  0.6931218982698438  0.15458741071977766  1.0000
  C   C6        1.0  0.36636707753530123  0.30690657287713907  0.6543323462824021  1.0000
  C   C7        1.0  0.3663600449048374  0.3069189848902454  0.845395389884587  1.0000
  C   C8        1.0  0.6336763777149412  0.6930966547350648  0.34565868585732334  1.0000
  N   N1        1.0  0.4737199824926607  0.7658163516320684  0.058345735688540415  1.0000
  N   N2        1.0  0.5264829416789566  0.23418150602284268  0.5582429188640461  1.0000
  N   N3        1.0  0.5262871593004235  0.23424494823558453  0.941683730627908  1.0000
  N   N4        1.0  0.4735344987947343  0.7658158975053266  0.4417275300100273  1.0000
  N   N5        1.0  0.897417968178317  0.7137527821748931  0.7500711052338433  1.0000
  N   N6        1.0  0.10257981486433473  0.28621521285047896  0.2499281620013322  1.0000
  O   O1        1.0  0.03901739146766655  0.8715902267360817  0.7500615783014839  1.0000
  O   O2        1.0  0.9609501242536493  0.1283830383666924  0.2500337561902413  1.0000
  O   O3        1.0  0.9922025752478947  0.5719882814258099  0.7499699961156525  1.0000
  O   O4        1.0  0.007795227882830599  0.4279727535888681  0.24995653632694836  1.0000
