data_image0
_chemical_formula_structural       Zn4H24C32O20
_chemical_formula_sum              "Zn4 H24 C32 O20"
_cell_length_a       6.5075190265652125
_cell_length_b       12.612088094494517
_cell_length_c       15.551043588005
_cell_angle_alpha    89.99998112902652
_cell_angle_beta     90.00010785398976
_cell_angle_gamma    104.11253254917668

_space_group_name_H-M_alt    "P 1"
_space_group_IT_number       1

loop_
  _space_group_symop_operation_xyz
  'x, y, z'

loop_
  _atom_site_type_symbol
  _atom_site_label
  _atom_site_symmetry_multiplicity
  _atom_site_fract_x
  _atom_site_fract_y
  _atom_site_fract_z
  _atom_site_occupancy
  Zn  Zn1       1.0  0.2025891210342934  0.5720312297527812  0.5049751631477264  1.0000
  Zn  Zn2       1.0  0.2974139914011148  0.927972180478996  0.004972080080200699  1.0000
  Zn  Zn3       1.0  0.7974103040154146  0.4279684904284338  0.4950249853951192  1.0000
  Zn  Zn4       1.0  0.7025869543809264  0.07203407805274513  0.9950242102008886  1.0000
  H   H1        1.0  0.8595524144623782  0.1685361827110725  0.687156832807446  1.0000
  H   H2        1.0  0.6404386956719392  0.33146232886009847  0.1871619813608092  1.0000
  H   H3        1.0  0.14044508210768197  0.8314659858587417  0.3128413866033597  1.0000
  H   H4        1.0  0.3595699894765686  0.6685243318154975  0.8128503850167446  1.0000
  H   H5        1.0  0.9855769816429923  0.06026248422519839  0.8019208999751795  1.0000
  H   H6        1.0  0.5144137968077942  0.4397343790988161  0.3019278476538787  1.0000
  H   H7        1.0  0.014417439544388282  0.9397396800455055  0.19808053465254719  1.0000
  H   H8        1.0  0.4855944975566543  0.5602547321148067  0.6980832326360016  1.0000
  H   H9        1.0  0.6110294581068771  0.2724521827629545  0.7843411872319023  1.0000
  H   H10       1.0  0.88897087098546  0.22754224492965847  0.2843530065026556  1.0000
  H   H11       1.0  0.38897034923373053  0.7275483549811385  0.21565188783078773  1.0000
  H   H12       1.0  0.11103355793990496  0.7724550311616555  0.7156529294355777  1.0000
  H   H13       1.0  0.48540277139588267  0.3829503876804665  0.6719904629403786  1.0000
  H   H14       1.0  0.014595487263903802  0.11704495615079943  0.1719974581738626  1.0000
  H   H15       1.0  0.5145962713338079  0.6170485149387589  0.32800132603475857  1.0000
  H   H16       1.0  0.9854024000950686  0.8829547618808463  0.8280046194992748  1.0000
  H   H17       1.0  0.5063412779930728  0.7319511477166929  0.4734249947338256  1.0000
  H   H18       1.0  0.9936637020012352  0.7680545716112376  0.9734238112453893  1.0000
  H   H19       1.0  0.4936539162765499  0.2680493835786422  0.5265745107633819  1.0000
  H   H20       1.0  0.00634185685908046  0.23195169336902666  0.0265699068631449  1.0000
  H   H21       1.0  0.6017303093624305  0.6286136010292794  0.4790143810060954  1.0000
  H   H22       1.0  0.8982727717177637  0.8713912979476393  0.9790130959738049  1.0000
  H   H23       1.0  0.3982660402924624  0.3713861148531949  0.5209825523170508  1.0000
  H   H24       1.0  0.10172894715380208  0.12861332760851243  0.020985123438734394  1.0000
  C   C1        1.0  0.023883459713019313  0.19039516360030012  0.70858138158723  1.0000
  C   C2        1.0  0.47611031541072174  0.3096034376994012  0.2085849081377731  1.0000
  C   C3        1.0  0.9761040460810974  0.8096053569478486  0.29141619477551467  1.0000
  C   C4        1.0  0.52390065508105  0.6903913964515879  0.7914248860655704  1.0000
  C   C5        1.0  0.09441826785530337  0.12977876688457712  0.7718427672442087  1.0000
  C   C6        1.0  0.40557690130016505  0.37021901176874666  0.2718475071173643  1.0000
  C   C7        1.0  0.905581140233586  0.8702274894976583  0.2281541660798467  1.0000
  C   C8        1.0  0.5944286999712957  0.629770912708686  0.7281590718656047  1.0000
  C   C9        1.0  0.3065430385446462  0.15935511797762564  0.7990481092643833  1.0000
  C   C10       1.0  0.19344876707096154  0.34064510380393653  0.2990552335954675  1.0000
  C   C11       1.0  0.6934533026365056  0.8406478660051631  0.20095075318950248  1.0000
  C   C12       1.0  0.8065598841534793  0.6593546292737856  0.7009494162571812  1.0000
  C   C13       1.0  0.08813541445778131  0.34891979889641794  0.6055780223826162  1.0000
  C   C14       1.0  0.4118579636291315  0.15108208228116382  0.10558022795404298  1.0000
  C   C15       1.0  0.9118382690405084  0.6510741661057793  0.394418910930696  1.0000
  C   C16       1.0  0.5881560568022691  0.8489225604705197  0.8944205636387109  1.0000
  C   C17       1.0  0.38044144703136595  0.0964181607651682  0.8692151424891391  1.0000
  C   C18       1.0  0.11954793865901787  0.4035795981568596  0.36921833240569407  1.0000
  C   C19       1.0  0.619560263359176  0.9035897328915111  0.13078114779217737  1.0000
  C   C20       1.0  0.8804426594858795  0.5964143904891517  0.630783102220903  1.0000
  C   C21       1.0  0.1641969046051912  0.28186069083593424  0.672241111980945  1.0000
  C   C22       1.0  0.3357982711272243  0.21813791676837008  0.17224452492521178  1.0000
  C   C23       1.0  0.8358036758285721  0.7181382139324556  0.3277558213441765  1.0000
  C   C24       1.0  0.6641965493288636  0.7818585288636726  0.8277620540523997  1.0000
  C   C25       1.0  0.4472147613468919  0.2500817356538789  0.7623007932371948  1.0000
  C   C26       1.0  0.05278268259937848  0.24991441326428537  0.2623084465749627  1.0000
  C   C27       1.0  0.5527877306020557  0.7499212569270385  0.2376929248701884  1.0000
  C   C28       1.0  0.9472163686270959  0.7500812212539288  0.737693631098999  1.0000
  C   C29       1.0  0.3764920789956533  0.31139724574549627  0.6995531993289033  1.0000
  C   C30       1.0  0.12350359054915568  0.18859890819793887  0.1995577104857489  1.0000
  C   C31       1.0  0.6235012037418028  0.6885991977378224  0.3004405187747991  1.0000
  C   C32       1.0  0.8764996744990083  0.8114024514070974  0.8004430811023794  1.0000
  O   O1        1.0  0.22939679637102017  0.4291459788353719  0.5727860689518067  1.0000
  O   O2        1.0  0.27060068030842627  0.0708583630782371  0.07278365710337197  1.0000
  O   O3        1.0  0.7705976417517133  0.570849649235086  0.4272050769778274  1.0000
  O   O4        1.0  0.7293948792876391  0.9291495219811168  0.9272036305639089  1.0000
  O   O5        1.0  0.8949054942169424  0.3241395808541085  0.5840943007179503  1.0000
  O   O6        1.0  0.6050944448199899  0.17586222349857653  0.0840962249015504  1.0000
  O   O7        1.0  0.10509814467022242  0.6758658644134528  0.4159129213066493  1.0000
  O   O8        1.0  0.394909992593675  0.8241317844919892  0.9159154984298823  1.0000
  O   O9        1.0  0.5720533452137104  0.1304219091997041  0.8946373148262123  1.0000
  O   O10       1.0  0.9279419967979194  0.36958066861033956  0.3946362876499308  1.0000
  O   O11       1.0  0.42792260669128274  0.8695867654781682  0.10536669196731198  1.0000
  O   O12       1.0  0.0720839513688745  0.6304199056739179  0.6053683622104911  1.0000
  O   O13       1.0  0.5048624076047261  0.6680983348714237  0.5089370849278723  1.0000
  O   O14       1.0  0.9951396648227301  0.8319082529790193  0.008935481079305401  1.0000
  O   O15       1.0  0.4951343158843144  0.3319054666737245  0.4910637066571083  1.0000
  O   O16       1.0  0.004864364826652011  0.16809474175118314  0.9910614522470809  1.0000
  O   O17       1.0  0.24635620362225544  0.013937210326815804  0.8992587307274034  1.0000
  O   O18       1.0  0.2536402192692151  0.4860589207822414  0.3992646021093406  1.0000
  O   O19       1.0  0.7536424652817714  0.9860576066294798  0.1007337012915315  1.0000
  O   O20       1.0  0.7463734019019695  0.5139514406078547  0.6007355464391464  1.0000
