data_image0
_chemical_formula_structural       Co4B4H60C56N32O8
_chemical_formula_sum              "Co4 B4 H60 C56 N32 O8"
_cell_length_a       13.14453115222374
_cell_length_b       14.871656254200031
_cell_length_c       14.871664874632303
_cell_angle_alpha    68.44105972737184
_cell_angle_beta     63.77276628154677
_cell_angle_gamma    63.77304050395739

_space_group_name_H-M_alt    "P 1"
_space_group_IT_number       1

loop_
  _space_group_symop_operation_xyz
  'x, y, z'

loop_
  _atom_site_type_symbol
  _atom_site_label
  _atom_site_symmetry_multiplicity
  _atom_site_fract_x
  _atom_site_fract_y
  _atom_site_fract_z
  _atom_site_occupancy
  Co  Co1       1.0  0.3655642081975757  0.5396009564757024  0.1767527918793092  1.0000
  Co  Co2       1.0  0.6344383527664025  0.8232441183748876  0.4603973880634482  1.0000
  Co  Co3       1.0  0.08183325238820059  0.4604216571576887  0.82322438519909  1.0000
  Co  Co4       1.0  0.918166857246497  0.17677431603415536  0.5395816228531913  1.0000
  B   B1        1.0  0.9231480359958725  0.5268877926448071  0.21464178860453131  1.0000
  B   B2        1.0  0.07685001499132932  0.7853609663767078  0.4731110028432538  1.0000
  B   B3        1.0  0.6646289345861688  0.47308776440886663  0.785365666906735  1.0000
  B   B4        1.0  0.3353724017009583  0.21463318410246765  0.5269110042395297  1.0000
  H   H1        1.0  0.14172806898775286  0.4452315128813567  0.2680931661689527  1.0000
  H   H2        1.0  0.8582693542049427  0.7319068102150653  0.5547678298142457  1.0000
  H   H3        1.0  0.8549436367923988  0.5547541262569667  0.7319855218266084  1.0000
  H   H4        1.0  0.14506085639303734  0.2680105170319749  0.4452435086021396  1.0000
  H   H5        1.0  0.17588319557589213  0.7285381741283674  0.07941781833039122  1.0000
  H   H6        1.0  0.8241179382255979  0.9205826316596775  0.27146085731464337  1.0000
  H   H7        1.0  0.9838128217713517  0.27147318706400375  0.9206482127280539  1.0000
  H   H8        1.0  0.016187468936273285  0.07935116762489974  0.7285282965126214  1.0000
  H   H9        1.0  0.9673347680178496  0.71368294276121  0.08729642243925888  1.0000
  H   H10       1.0  0.032665507271133376  0.9127053059166104  0.28631592451630866  1.0000
  H   H11       1.0  0.7682743776731441  0.2862769062882364  0.912816574361713  1.0000
  H   H12       1.0  0.23172546552905257  0.08718641878157031  0.7137217471817934  1.0000
  H   H13       1.0  0.49290275124688787  0.8152611471921676  0.00663651005527295  1.0000
  H   H14       1.0  0.5070990368871263  0.9933672816896009  0.18473543675130347  1.0000
  H   H15       1.0  0.31483865933800803  0.1846656422083016  0.9932970937295947  1.0000
  H   H16       1.0  0.6851600002048952  0.006700952244031601  0.8153379107116763  1.0000
  H   H17       1.0  0.6342246595483302  0.7126374526647725  0.9818063703862095  1.0000
  H   H18       1.0  0.3657765263745461  0.018197418272983202  0.28736004696578726  1.0000
  H   H19       1.0  0.3285723394172847  0.28738715312230323  0.018056137058849182  1.0000
  H   H20       1.0  0.6714274600541257  0.9819417636961563  0.7126158124914711  1.0000
  H   H21       1.0  0.5686640376559425  0.7507958609787835  0.09975111460086344  1.0000
  H   H22       1.0  0.43133696299537416  0.9002526948834132  0.24920216745951512  1.0000
  H   H23       1.0  0.41918085278179257  0.24917971379832693  0.9001660452052677  1.0000
  H   H24       1.0  0.5808178120038505  0.09983119096909833  0.750823189776149  1.0000
  H   H25       1.0  0.8750588839645628  0.6888852972918542  0.30584877763521234  1.0000
  H   H26       1.0  0.1249403565963476  0.6941532017850636  0.3111152795631185  1.0000
  H   H27       1.0  0.8697913649208572  0.3111459110362986  0.6941811082927885  1.0000
  H   H28       1.0  0.13020845943804454  0.3058205859795323  0.6888526039210205  1.0000
  H   H29       1.0  0.6791704762244776  0.5175124090744349  0.3236523471071777  1.0000
  H   H30       1.0  0.3208273849465186  0.6763512295413322  0.48248725466294207  1.0000
  H   H31       1.0  0.5203978082110865  0.4824375751619457  0.6762147174886692  1.0000
  H   H32       1.0  0.47960475127941743  0.323784328910243  0.5175628341571042  1.0000
  H   H33       1.0  0.5341347933599606  0.655380490938626  0.45281379545261313  1.0000
  H   H34       1.0  0.4658619713160377  0.5471883199658907  0.34462166189635485  1.0000
  H   H35       1.0  0.6425635874604226  0.3446453886963425  0.5469965636079194  1.0000
  H   H36       1.0  0.3574380874135842  0.4530055880810552  0.6553524327933856  1.0000
  H   H37       1.0  0.09144531794282786  0.511162142721517  0.012392302926890874  1.0000
  H   H38       1.0  0.9085516289277251  0.9876103434614127  0.4888389592681292  1.0000
  H   H39       1.0  0.6148913953645588  0.48886571037118653  0.9875751917672133  1.0000
  H   H40       1.0  0.38511156284933884  0.0124227970056054  0.5111313703613973  1.0000
  H   H41       1.0  0.861282056840444  0.42046626819443855  0.4277478740407403  1.0000
  H   H42       1.0  0.13871609796659368  0.572253281107173  0.5795338362216212  1.0000
  H   H43       1.0  0.709153362327278  0.5795085045644656  0.5723229450417335  1.0000
  H   H44       1.0  0.2908517968740227  0.4276756804327562  0.42048655837086807  1.0000
  H   H45       1.0  0.7164458226416668  0.5604645731481384  0.15689093060834133  1.0000
  H   H46       1.0  0.28354959927035134  0.8431110146937189  0.439540795873249  1.0000
  H   H47       1.0  0.4336933019778186  0.43949454936004884  0.8431011544517587  1.0000
  H   H48       1.0  0.5663090261068006  0.15689726948738075  0.5605000871158481  1.0000
  H   H49       1.0  0.0657722173822464  0.33589611540157444  0.1398845043547539  1.0000
  H   H50       1.0  0.9342255526861296  0.860116966977472  0.6641048443178265  1.0000
  H   H51       1.0  0.5417503861963695  0.6640409636090894  0.8601460718412354  1.0000
  H   H52       1.0  0.4582534136808433  0.13985199298714693  0.33596167940955723  1.0000
  H   H53       1.0  0.7896853911929611  0.5320745571216678  0.9634723472302938  1.0000
  H   H54       1.0  0.2103145766382396  0.036525612789354504  0.4679290913185739  1.0000
  H   H55       1.0  0.2851625066591907  0.4679304249563502  0.0365194160108969  1.0000
  H   H56       1.0  0.7148394306791062  0.9634736318187936  0.5320720514009661  1.0000
  H   H57       1.0  0.07373689550931316  0.16146831325067984  0.2958020617962447  1.0000
  H   H58       1.0  0.9262640229241513  0.7041992986083943  0.8385315482738064  1.0000
  H   H59       1.0  0.5309463273730513  0.8385270850936739  0.7042336079665578  1.0000
  H   H60       1.0  0.4690597626215477  0.29576426952897356  0.1614692663997772  1.0000
  C   C1        1.0  0.12249410049799536  0.5210881718776934  0.21899628275728833  1.0000
  C   C2        1.0  0.8775041583356397  0.78100404139078  0.4789118395987089  1.0000
  C   C3        1.0  0.8625087985947815  0.4788859223235279  0.7810707165675906  1.0000
  C   C4        1.0  0.1374922058887122  0.21892943616487776  0.5211132205716565  1.0000
  C   C5        1.0  0.13612655748608662  0.668421106960061  0.12067325923808873  1.0000
  C   C6        1.0  0.8638740234230156  0.8793283254875564  0.33157735356653706  1.0000
  C   C7        1.0  0.9251684043404607  0.3315646923760768  0.8794072742825138  1.0000
  C   C8        1.0  0.07483082756156989  0.12059421498036474  0.6684356917367396  1.0000
  C   C9        1.0  0.03405225312405239  0.6612067374043492  0.12362356589262898  1.0000
  C   C10       1.0  0.9659481687236847  0.87637847955903  0.3387934141837975  1.0000
  C   C11       1.0  0.8188266345815834  0.3387647388437571  0.876468630485263  1.0000
  C   C12       1.0  0.18117394641409126  0.12353383734958362  0.6612346945729045  1.0000
  C   C13       1.0  0.547712182039689  0.7412809131758922  0.04068488204843851  1.0000
  C   C14       1.0  0.45228838193381204  0.9593191562801452  0.2587167254045965  1.0000
  C   C15       1.0  0.3296196673029357  0.2586882381185021  0.9592043516139481  1.0000
  C   C16       1.0  0.6703788535506304  0.04079416691345019  0.7413148642700591  1.0000
  C   C17       1.0  0.8016691329029443  0.6612104769586581  0.3289030138515299  1.0000
  C   C18       1.0  0.19832975809485026  0.6711005279872921  0.33878899276356117  1.0000
  C   C19       1.0  0.7918191371373169  0.33880115386321563  0.6710817747260834  1.0000
  C   C20       1.0  0.2081811853879429  0.32892045295539424  0.6611956076993621  1.0000
  C   C21       1.0  0.6976116586612305  0.5741059605738743  0.3381547593390549  1.0000
  C   C22       1.0  0.3023862625076815  0.6618459716176092  0.4258956023439778  1.0000
  C   C23       1.0  0.6099511587416374  0.4258696331813283  0.6617564646316297  1.0000
  C   C24       1.0  0.39004841269409246  0.3382455667633409  0.5741290103275317  1.0000
  C   C25       1.0  0.6271032212799383  0.6412428495368092  0.40310483183267115  1.0000
  C   C26       1.0  0.3728942246360702  0.5968961152643574  0.35875872638674633  1.0000
  C   C27       1.0  0.6716307595324053  0.3587779781117321  0.5967517121304198  1.0000
  C   C28       1.0  0.3283698732319564  0.4032499131622346  0.6412197430526093  1.0000
  C   C29       1.0  0.9997553676995922  0.5207647474517572  0.025243436344936792  1.0000
  C   C30       1.0  0.00024120351576333615  0.9747590249199266  0.47923622824109907  1.0000
  C   C31       1.0  0.5456890004699845  0.47924367862916034  0.9747009955784519  1.0000
  C   C32       1.0  0.45430839831314523  0.02529354404460801  0.5207608325253474  1.0000
  C   C33       1.0  0.9191352895731696  0.37310940550594307  0.37142900494077946  1.0000
  C   C34       1.0  0.08086403190679906  0.6285722976574417  0.6268903400553469  1.0000
  C   C35       1.0  0.6633970890346319  0.6268907095904697  0.6286112158543204  1.0000
  C   C36       1.0  0.33660175891466093  0.3713896243570217  0.37310825431254097  1.0000
  C   C37       1.0  0.8055379081492616  0.5458803275182335  0.09978998134233308  1.0000
  C   C38       1.0  0.19445910614344802  0.9002146693317884  0.4541195128599824  1.0000
  C   C39       1.0  0.4511213878700603  0.45409209989355764  0.900192016994069  1.0000
  C   C40       1.0  0.5488832447513587  0.09980485524104674  0.5459013942415112  1.0000
  C   C41       1.0  0.02675760476623883  0.3277805412260761  0.22252923865763558  1.0000
  C   C42       1.0  0.9732389025123992  0.7774733768784331  0.6722200176427293  1.0000
  C   C43       1.0  0.5771155212330825  0.672190300344049  0.7775132915345818  1.0000
  C   C44       1.0  0.422890650560511  0.22248483219379986  0.32780749057847197  1.0000
  C   C45       1.0  0.8425858219673613  0.5317591639731987  0.002518805062919659  1.0000
  C   C46       1.0  0.15741097972520637  0.9974860250542009  0.4682364070177129  1.0000
  C   C47       1.0  0.37680940531961954  0.4681970592967917  0.9974722678224025  1.0000
  C   C48       1.0  0.6231943832341216  0.0025243889585127004  0.5318006246947533  1.0000
  C   C49       1.0  0.029135243804411508  0.2416175264736466  0.3002497285904866  1.0000
  C   C50       1.0  0.9708650130543504  0.6997524022215346  0.7583827204438196  1.0000
  C   C51       1.0  0.5708900450742221  0.7583778657516761  0.6997990788170652  1.0000
  C   C52       1.0  0.4291118564577375  0.300201969217703  0.24162033013460865  1.0000
  C   C53       1.0  0.48254064424230586  0.6641798870332993  0.08750468407477284  1.0000
  C   C54       1.0  0.5174629898838246  0.9124965207309403  0.33581673664841816  1.0000
  C   C55       1.0  0.23418394017671323  0.3357389718579711  0.9123514094990385  1.0000
  C   C56       1.0  0.7658134223000771  0.08764714783320933  0.6642626571313032  1.0000
  N   N1        1.0  0.026129627941749334  0.5669011623449479  0.18593785644056735  1.0000
  N   N2        1.0  0.9738697779552368  0.8140630688787528  0.43309898933698304  1.0000
  N   N3        1.0  0.7789029658788067  0.43306097638225083  0.8141289656761546  1.0000
  N   N4        1.0  0.2210965817608255  0.18587239275906606  0.5669387818221736  1.0000
  N   N5        1.0  0.19084102028894281  0.5800208390540436  0.1806752826142811  1.0000
  N   N6        1.0  0.8091590073951593  0.8193264315323603  0.4199767883295208  1.0000
  N   N7        1.0  0.9514614936129034  0.4199705283900884  0.8193961301745104  1.0000
  N   N8        1.0  0.04853963568580607  0.18060434777581247  0.5800290095377818  1.0000
  N   N9        1.0  0.8090806902074661  0.5876178155129494  0.29011739412822385  1.0000
  N   N10       1.0  0.19091775527481764  0.7098847755070211  0.41238251113465196  1.0000
  N   N11       1.0  0.6868156957603657  0.41236057872514226  0.7098758338960351  1.0000
  N   N12       1.0  0.3131844810341988  0.29012571650566343  0.5876368759587578  1.0000
  N   N13       1.0  0.6934549825449922  0.6952648249672325  0.39683306807741286  1.0000
  N   N14       1.0  0.30654278629013015  0.6031698055668997  0.3047349274452174  1.0000
  N   N15       1.0  0.7856973965848795  0.3047702876004835  0.603087384352392  1.0000
  N   N16       1.0  0.21430183618330992  0.3969151446427262  0.6952275413669183  1.0000
  N   N17       1.0  0.9061958587928914  0.5392650483807416  0.1139962307483131  1.0000
  N   N18       1.0  0.09380231806157009  0.8860067281552448  0.4607335283384656  1.0000
  N   N19       1.0  0.5593828197269416  0.46070635660555587  0.8859783420409713  1.0000
  N   N20       1.0  0.4406202355685592  0.11401918979566976  0.5392923169634543  1.0000
  N   N21       1.0  0.9563261821065651  0.41163813094049573  0.2684527275290023  1.0000
  N   N22       1.0  0.043670591382927226  0.7315494090567185  0.5883612253484144  1.0000
  N   N23       1.0  0.6363540972467876  0.588345888938477  0.7315768766680575  1.0000
  N   N24       1.0  0.36364601905214766  0.26842323803971624  0.41165248100229224  1.0000
  N   N25       1.0  0.9605213950053582  0.27082469976325296  0.3935075720339895  1.0000
  N   N26       1.0  0.039479098270362584  0.6064945568195413  0.7291762867414845  1.0000
  N   N27       1.0  0.624590983028739  0.7291769614149715  0.6065445494213505  1.0000
  N   N28       1.0  0.3754089249517918  0.3934558464955772  0.27081992868966154  1.0000
  N   N29       1.0  0.9646239969560354  0.5154796940242294  0.9565987353461692  1.0000
  N   N30       1.0  0.0353718489524866  0.04340348633819249  0.4845228850827255  1.0000
  N   N31       1.0  0.43663800542321235  0.4845168744911348  0.04336901544531459  1.0000
  N   N32       1.0  0.5633609942500615  0.9566264207785123  0.5154867571398825  1.0000
  O   O1        1.0  0.5302300353066158  0.5743611908196797  0.135733724961085  1.0000
  O   O2        1.0  0.46977321982433995  0.8642667474622245  0.4256346779496809  1.0000
  O   O3        1.0  0.24029425295665868  0.4255547183270069  0.8640911090582789  1.0000
  O   O4        1.0  0.7597036361848523  0.1359074862434895  0.5744469230594689  1.0000
  O   O5        1.0  0.3807177832802679  0.6888741532275447  0.07894072371016857  1.0000
  O   O6        1.0  0.6192847617086983  0.9210618718955886  0.3111212948147256  1.0000
  O   O7        1.0  0.14844436713490688  0.31107112034808904  0.9209583932743896  1.0000
  O   O8        1.0  0.8515526794453052  0.07904387559730001  0.6889272584912974  1.0000
