data_image0
_chemical_formula_structural       Ga4H16C32O20
_chemical_formula_sum              "Ga4 H16 C32 O20"
_cell_length_a       12.024917572664739
_cell_length_b       12.261601776067108
_cell_length_c       12.261423986899128
_cell_angle_alpha    76.08409972368325
_cell_angle_beta     60.63885090025407
_cell_angle_gamma    60.6317992136142

_space_group_name_H-M_alt    "P 1"
_space_group_IT_number       1

loop_
  _space_group_symop_operation_xyz
  'x, y, z'

loop_
  _atom_site_type_symbol
  _atom_site_label
  _atom_site_symmetry_multiplicity
  _atom_site_fract_x
  _atom_site_fract_y
  _atom_site_fract_z
  _atom_site_occupancy
  Ga  Ga1       1.0  0.8089662076721568  0.3821503808461556  0.9999896155134989  1.0000
  Ga  Ga2       1.0  0.1910900318302213  0.6178539151527359  0.9999917885144283  1.0000
  Ga  Ga3       1.0  0.5589445993274041  0.5000189267466553  0.8821114443836604  1.0000
  Ga  Ga4       1.0  0.9410796810280504  0.5000326937743367  0.11785413726567376  1.0000
  H   H1        1.0  0.8750139142860436  0.5658956299891214  0.9341130864808348  1.0000
  H   H2        1.0  0.3750491547945175  0.43411449665292406  0.065854183903383  1.0000
  H   H3        1.0  0.5591688118752316  0.5658564432019944  0.0658595037006009  1.0000
  H   H4        1.0  0.1909077194980855  0.434138283004124  0.934113948994607  1.0000
  H   H5        1.0  0.6368796705453407  0.4999847520316578  0.5000153032806125  1.0000
  H   H6        1.0  0.8869205217526501  4.68951438533693e-05  3.69933952769e-05  1.0000
  H   H7        1.0  0.11298551306789771  3.658739596091402e-05  0.9999986458104783  1.0000
  H   H8        1.0  0.8630581205690291  0.5000229239935906  0.5000279463951429  1.0000
  H   H9        1.0  0.4551027105531489  0.44030750264274576  0.30646156289935783  1.0000
  H   H10       1.0  0.20193823188431287  0.5596202897562748  0.6934307786193442  1.0000
  H   H11       1.0  0.5115323412870154  0.19351627703367308  0.9404109909970086  1.0000
  H   H12       1.0  0.6455571287279515  0.806457370735565  0.059566876103517095  1.0000
  H   H13       1.0  0.5479789591163712  0.8064700628295188  0.9404058746233869  1.0000
  H   H14       1.0  0.2949316310879625  0.19346259046330516  0.05960189623216649  1.0000
  H   H15       1.0  0.10464860187862265  0.4403399231347365  0.6934538568339261  1.0000
  H   H16       1.0  0.23841418815587917  0.5596216420825684  0.3065011453365187  1.0000
  C   C1        1.0  0.5464018904842479  0.49995396805331194  0.4999941506012035  1.0000
  C   C2        1.0  0.796428916992042  2.9666591650656724e-05  3.54915962433e-05  1.0000
  C   C3        1.0  0.2034574904192468  3.7763144284492303e-05  4.8526505750599985e-05  1.0000
  C   C4        1.0  0.9535668471154324  0.5000280695594981  0.5000097973857293  1.0000
  C   C5        1.0  0.6863170831104599  0.4517253613945158  0.26950804040325943  1.0000
  C   C6        1.0  0.40754776786472774  0.5482369660089789  0.7304653162578133  1.0000
  C   C7        1.0  0.7057862299802553  0.23050177133795557  0.9518566624160483  1.0000
  C   C8        1.0  0.888096250662095  0.7695463611167881  0.04824526447815458  1.0000
  C   C9        1.0  0.34229354048260063  0.7695678686132935  0.9518537850296975  1.0000
  C   C10       1.0  0.06369625140811054  0.2305172148966008  0.04824047078953698  1.0000
  C   C11       1.0  0.8619688546030704  0.45179569375331136  0.7304842794394232  1.0000
  C   C12       1.0  0.04414708976097629  0.5482782633971084  0.26951864203144976  1.0000
  C   C13       1.0  0.5558439908177634  0.47283752909572024  0.39050829814055266  1.0000
  C   C14       1.0  0.4192326630400273  0.5270712941737159  0.6094468865651733  1.0000
  C   C15       1.0  0.6962638145216077  0.10951120209944767  0.9730392051931741  1.0000
  C   C16       1.0  0.7787832851697023  0.890538449717681  0.027057648782069094  1.0000
  C   C17       1.0  0.330593662466804  0.8905563003262883  0.9730484647997171  1.0000
  C   C18       1.0  0.19414148366110606  0.10948784333984214  0.027080806968818587  1.0000
  C   C19       1.0  0.971288874485197  0.4729365557404465  0.6094633155673391  1.0000
  C   C20       1.0  0.05360703049018434  0.5271100954588377  0.39053157668653427  1.0000
  C   C21       1.0  0.3114389723628292  0.4999479782743562  0.499948518122899  1.0000
  C   C22       1.0  0.5614437156253165  0.9999756469742851  0.9999571419069323  1.0000
  C   C23       1.0  0.4385904364450401  0.9999733861311172  0.9999921993901563  1.0000
  C   C24       1.0  0.188633241784231  0.49993456629093197  0.4999526962304515  1.0000
  C   C25       1.0  0.4409530923377788  0.46883290699418734  0.39177323274842013  1.0000
  C   C26       1.0  0.3016377677060832  0.5310725767565219  0.60812515680432  1.0000
  C   C27       1.0  0.5827001191284539  0.10819959410207496  0.9689589615773427  1.0000
  C   C28       1.0  0.6599208633732944  0.8917838762519847  0.031009044409721295  1.0000
  C   C29       1.0  0.4482791035197879  0.8917930650805062  0.9689734858422125  1.0000
  C   C30       1.0  0.3090620711961307  0.1081500103167201  0.03108906237822849  1.0000
  C   C31       1.0  0.09024116969141023  0.46884508178141  0.6081501210333754  1.0000
  C   C32       1.0  0.16725768114771006  0.5310721326969414  0.39179789770891194  1.0000
  O   O1        1.0  0.7084592511737144  0.38700952538541616  0.18736274948241063  1.0000
  O   O2        1.0  0.2828386020060024  0.6129408711448292  0.812594743296266  1.0000
  O   O3        1.0  0.6457185971322661  0.3126464759348125  0.8871541790104656  1.0000
  O   O4        1.0  0.845449054636589  0.6874477199629397  0.11305072358486966  1.0000
  O   O5        1.0  0.4670744564364712  0.6874349020247762  0.8871628453980804  1.0000
  O   O6        1.0  0.04165604931382215  0.3126160644776164  0.11294540794906277  1.0000
  O   O7        1.0  0.9045864429187703  0.38713553380169674  0.8126159555413892  1.0000
  O   O8        1.0  0.10412934591423827  0.6130235976636698  0.18741780235784936  1.0000
  O   O9        1.0  0.875129645267407  0.501708631790123  0.9982008119661002  1.0000
  O   O10       1.0  0.3750371393663133  0.49822407621351766  0.0016869206857776998  1.0000
  O   O11       1.0  0.6233162413222503  0.5017459020242826  0.0017038623242697998  1.0000
  O   O12       1.0  0.126788076918267  0.49824113543426307  0.998278949021241  1.0000
  O   O13       1.0  0.7606321670782278  0.5033522961020721  0.2589959464764674  1.0000
  O   O14       1.0  0.5230079568749276  0.4966758075576718  0.7409591273040093  1.0000
  O   O15       1.0  0.7697309659764644  0.24098887235373212  0.0033250217983109994  1.0000
  O   O16       1.0  0.014030224984956916  0.7590062434742394  0.9965800905127579  1.0000
  O   O17       1.0  0.22689149263862168  0.759051439673776  0.0033643430351090993  1.0000
  O   O18       1.0  0.989335573174465  0.24103676772206467  0.9966647122862182  1.0000
  O   O19       1.0  0.7360199712160668  0.5033066990747627  0.7409806978825556  1.0000
  O   O20       1.0  0.9803771424423149  0.49660977783638327  0.25899352158862127  1.0000
