data_image0
_chemical_formula_structural       Al6H86C120N12O28
_chemical_formula_sum              "Al6 H86 C120 N12 O28"
_cell_length_a       12.701949004405401
_cell_length_b       12.708329562331333
_cell_length_c       26.87561744820736
_cell_angle_alpha    90.10139739566402
_cell_angle_beta     90.00642832486692
_cell_angle_gamma    59.92051579688168

_space_group_name_H-M_alt    "P 1"
_space_group_IT_number       1

loop_
  _space_group_symop_operation_xyz
  'x, y, z'

loop_
  _atom_site_type_symbol
  _atom_site_label
  _atom_site_symmetry_multiplicity
  _atom_site_fract_x
  _atom_site_fract_y
  _atom_site_fract_z
  _atom_site_occupancy
  Al  Al1       1.0  0.5335147015057656  0.23454060639117824  0.25064098178563643  1.0000
  Al  Al2       1.0  0.2711426645999708  0.47641521920439794  0.25040603484123375  1.0000
  Al  Al3       1.0  0.2796843735414996  0.2368334961235945  0.25026597395027034  1.0000
  Al  Al4       1.0  0.7602424028238062  0.4698361712920658  0.7509277567966207  1.0000
  Al  Al5       1.0  0.5219266168616059  0.7336443325522312  0.7498313496350588  1.0000
  Al  Al6       1.0  0.7639484369778485  0.7206003348019576  0.7503299979807636  1.0000
  H   H1        1.0  0.0173251220367305  0.6286970178271075  0.870768865553515  1.0000
  H   H2        1.0  0.2773267600918743  0.13445526956864737  0.11280340747327237  1.0000
  H   H3        1.0  0.005076930003220098  0.6239428538253051  0.3643168315415081  1.0000
  H   H4        1.0  0.567851214195997  0.2780436363255347  0.11226788039391519  1.0000
  H   H5        1.0  0.8158038296526655  0.4452473352719227  0.8950036106117024  1.0000
  H   H6        1.0  0.6347649992258297  0.030943275718300273  0.6386683819559166  1.0000
  H   H7        1.0  0.4220983024903333  0.7503570729402044  0.8903659320315142  1.0000
  H   H8        1.0  0.0358246302167586  0.3318802382309229  0.6333236544871851  1.0000
  H   H9        1.0  0.7562867991826252  0.8219017688658424  0.889869502189775  1.0000
  H   H10       1.0  0.3306568150536009  0.6232746882697596  0.6361128317821282  1.0000
  H   H11       1.0  0.547255336645314  0.2027135056891325  0.39735339517122265  1.0000
  H   H12       1.0  0.4370917910916958  0.8428821149236897  0.6176335637140723  1.0000
  H   H13       1.0  0.968652131653613  0.37716033184177894  0.13869552084791079  1.0000
  H   H14       1.0  0.2548694269487299  0.5507546798525879  0.3917359949216958  1.0000
  H   H15       1.0  0.6632475853658378  0.9561211985585273  0.13499822548769908  1.0000
  H   H16       1.0  0.1793607277900975  0.24081777037176982  0.38898775682879005  1.0000
  H   H17       1.0  0.38324308692811826  0.6638679676762181  0.13688099864285866  1.0000
  H   H18       1.0  0.7859345164758694  0.39131071855754823  0.9809910478795059  1.0000
  H   H19       1.0  0.6349924156902347  0.16692015835062787  0.571738158097176  1.0000
  H   H20       1.0  0.3685836131001139  0.834489260464515  0.9765836559296587  1.0000
  H   H21       1.0  0.1511119056853119  0.1922824797479663  0.5635704998721492  1.0000
  H   H22       1.0  0.8374451228018243  0.8002554296408989  0.9749598577363157  1.0000
  H   H23       1.0  0.61333529496887  0.36479675137288586  0.8665795656722891  1.0000
  H   H24       1.0  0.19617057782573968  0.6260743778826948  0.5666426874065421  1.0000
  H   H25       1.0  0.6042334427702444  0.22852934109227613  0.48349924794332105  1.0000
  H   H26       1.0  0.8394143469793393  0.36850891220849047  0.07020178540140169  1.0000
  H   H27       1.0  0.169857280749703  0.6007884157573427  0.47739789433451557  1.0000
  H   H28       1.0  0.8041688290815825  0.8423187092820684  0.06504616730179438  1.0000
  H   H29       1.0  0.1939515987770761  0.15923726088992396  0.4737936907305452  1.0000
  H   H30       1.0  0.3627159785974214  0.8031099513863608  0.06673541063503309  1.0000
  H   H31       1.0  0.1625738246159258  0.6405148880381331  0.9042635953783389  1.0000
  H   H32       1.0  0.9634193598893148  0.8383498487357882  0.9097386359542695  1.0000
  H   H33       1.0  0.09742868613062679  0.8506763488924846  0.9045703607571125  1.0000
  H   H34       1.0  0.8603403471277176  0.7170909667389296  0.6130568432357322  1.0000
  H   H35       1.0  0.027719741014507793  0.8658836953499927  0.9635742829421615  1.0000
  H   H36       1.0  0.3589789946081297  0.7987295258971089  0.5720726014668854  1.0000
  H   H37       1.0  0.1671361224319483  0.8309039816587996  0.555010106332375  1.0000
  H   H38       1.0  0.15758662697930248  0.9116484296199087  0.4995970484484288  1.0000
  H   H39       1.0  0.1444282956921796  0.9814413395378877  0.5585484682097642  1.0000
  H   H40       1.0  0.6206954954525585  0.21212913492835375  0.8990273255783378  1.0000
  H   H41       1.0  0.8209807746341012  0.2063769464868061  0.9059827064736224  1.0000
  H   H42       1.0  0.8288711566146034  0.0626211339206718  0.8979086132283314  1.0000
  H   H43       1.0  0.8468505514429977  0.11001604767717056  0.958106035008022  1.0000
  H   H44       1.0  0.8007890562975176  0.8386199604492147  0.5651141298212962  1.0000
  H   H45       1.0  0.37468795543155403  0.9860419354248863  0.8649675023725222  1.0000
  H   H46       1.0  0.9815790148932281  0.8689155789073838  0.5536996990725455  1.0000
  H   H47       1.0  0.834366670203174  0.9986738422038354  0.5434804210487627  1.0000
  H   H48       1.0  0.9254507745706844  0.9128246453337352  0.4919792060620408  1.0000
  H   H49       1.0  0.23484069035374228  0.07960133192461426  0.8922973274977364  1.0000
  H   H50       1.0  0.03563596901797441  0.1589634558261892  0.8984834501345985  1.0000
  H   H51       1.0  0.0322637447608969  0.2145603417634945  0.9598483685781288  1.0000
  H   H52       1.0  0.0711272760035655  0.060471524344990285  0.9506711048876894  1.0000
  H   H53       1.0  0.8478450810694225  0.3803054857889238  0.5629227851865081  1.0000
  H   H54       1.0  0.9767545728533803  0.16948838844899658  0.5676769545022252  1.0000
  H   H55       1.0  0.8923377419892732  0.14774532532063486  0.5200428622346607  1.0000
  H   H56       1.0  0.7179974030066489  0.4250201285231938  0.6163928475372983  1.0000
  H   H57       1.0  0.8274079130899563  0.196225100560284  0.580685559365257  1.0000
  H   H58       1.0  0.2709349239139627  0.9561378621881713  0.4046894658354744  1.0000
  H   H59       1.0  0.2468024176670127  0.7829183649815616  0.4088331689289717  1.0000
  H   H60       1.0  0.32607590817907817  0.7428455497441462  0.46665210124897527  1.0000
  H   H61       1.0  0.40675042233801406  0.728740726871564  0.4107543200180857  1.0000
  H   H62       1.0  0.2040547327419731  0.7036632548104791  0.009121575184280998  1.0000
  H   H63       1.0  0.028872473912152  0.8658812947269607  0.057340433161520786  1.0000
  H   H64       1.0  0.1738785432031875  0.8070354120684728  0.0865555499601598  1.0000
  H   H65       1.0  0.0727601695936428  0.757362665755359  0.1060996980311444  1.0000
  H   H66       1.0  0.88082866787542  0.30236451288664756  0.45900740640393417  1.0000
  H   H67       1.0  0.36876937548952077  0.9983070568735215  0.37170336143432786  1.0000
  H   H68       1.0  0.900096315139578  0.34469680855634993  0.37276255028621824  1.0000
  H   H69       1.0  0.8336457439039435  0.478153535395144  0.4107448492689371  1.0000
  H   H70       1.0  0.7407808793985565  0.4461553394546129  0.37133238786697115  1.0000
  H   H71       1.0  0.15071972873098358  0.22848381804734427  0.053862279585700897  1.0000
  H   H72       1.0  0.10853388477436708  0.0245076866151663  0.033655624033237096  1.0000
  H   H73       1.0  0.026801125507724097  0.14890734431300956  0.07497207345105747  1.0000
  H   H74       1.0  0.1774609863428225  0.03137450780207731  0.09038338342341488  1.0000
  H   H75       1.0  0.9430547696288585  0.766502904486501  0.39551023127383894  1.0000
  H   H76       1.0  0.776711875062837  0.9624094300496111  0.39931703587345163  1.0000
  H   H77       1.0  0.7440032103364728  0.9366938902882468  0.46126320130352366  1.0000
  H   H78       1.0  0.1623251287679608  0.5701893915174878  0.1159533690912937  1.0000
  H   H79       1.0  0.7150496420848924  0.8653672807901386  0.41055488764969533  1.0000
  H   H80       1.0  0.6889304848914861  0.10210008391781877  0.0053428782484843  1.0000
  H   H81       1.0  0.8593219362433686  0.10222798593206762  0.04920014042154719  1.0000
  H   H82       1.0  0.7899365824403759  0.03635389769375774  0.0860410038496084  1.0000
  H   H83       1.0  0.7545862141851812  0.1879061247072045  0.09718871069267719  1.0000
  H   H84       1.0  0.6408022212397667  0.3670840037250968  0.3691451169563392  1.0000
  H   H85       1.0  0.7321818270302245  0.16410032351832626  0.2224926720214242  1.0000
  H   H86       1.0  0.8711716781184647  0.27184786335751454  0.781836057250743  1.0000
  C   C1        1.0  0.44972696430511416  0.43963740306390536  0.17988535031511077  1.0000
  C   C2        1.0  0.5407210854973385  0.574633353349945  0.8216501983246117  1.0000
  C   C3        1.0  0.1181321231933765  0.26950683737331366  0.5382561373986902  1.0000
  C   C4        1.0  0.745475780662261  0.852946323560445  0.9898297221573314  1.0000
  C   C5        1.0  0.2745549264241021  0.5869109899991612  0.5416434314152384  1.0000
  C   C6        1.0  0.57346117394124  0.16816611513092994  0.4976596724108901  1.0000
  C   C7        1.0  0.8746950464714018  0.41075165944496234  0.04493777363180129  1.0000
  C   C8        1.0  0.2599600842935814  0.5722238492138061  0.49229637189395686  1.0000
  C   C9        1.0  0.7269611873106783  0.8763002645526612  0.03960206578271651  1.0000
  C   C10       1.0  0.1426406143809587  0.2511744126643904  0.4886305438570274  1.0000
  C   C11       1.0  0.4013264502497549  0.7254074077781638  0.0413656591770248  1.0000
  C   C12       1.0  0.05017243370598119  0.8165285072387788  0.9279857561406216  1.0000
  C   C13       1.0  0.5695951617303407  0.8733963151271807  0.6819312484759052  1.0000
  C   C14       1.0  0.1911814023843235  0.8943469089479452  0.5380488210127652  1.0000
  C   C15       1.0  0.7973252051584722  0.14145604318498073  0.9227569820678524  1.0000
  C   C16       1.0  0.899140382697496  0.9068010417295866  0.5303329709939034  1.0000
  C   C17       1.0  0.0797220406316583  0.13619934400237096  0.9351165755398226  1.0000
  C   C18       1.0  0.8853550119563496  0.2047475460425475  0.5520905494529557  1.0000
  C   C19       1.0  0.3194354931875125  0.7844216942436618  0.43033483122464833  1.0000
  C   C20       1.0  0.10647233932566992  0.7833888934694285  0.0735679853325593  1.0000
  C   C21       1.0  0.8205829859601009  0.4047221757580602  0.3955403525372247  1.0000
  C   C22       1.0  0.11737397068475267  0.08675214871900751  0.05954800135015859  1.0000
  C   C23       1.0  0.7778212667164864  0.8946699853074946  0.42486326044661377  1.0000
  C   C24       1.0  0.8831728552306827  0.5468410674452144  0.8246978945314466  1.0000
  C   C25       1.0  0.7742035716307925  0.12034008867930614  0.06794676280181729  1.0000
  C   C26       1.0  0.9920065143348039  0.5151810808220745  0.0324056155842811  1.0000
  C   C27       1.0  0.4721662541990312  0.04918404155354502  0.4823948033061142  1.0000
  C   C28       1.0  0.5053934415614948  0.5038809369153299  0.02842606520577109  1.0000
  C   C29       1.0  0.0366311953119833  0.4724284059754852  0.4743246510977527  1.0000
  C   C30       1.0  0.505103301675824  0.9851251837163983  0.0269547037597277  1.0000
  C   C31       1.0  0.48040729100124213  0.4812044211408946  0.47775610995988416  1.0000
  C   C32       1.0  0.4915398273184337  0.011969430613135048  0.5328631761308814  1.0000
  C   C33       1.0  0.13442662648817819  0.4112402904238195  0.3197374014029107  1.0000
  C   C34       1.0  0.9661261092190613  0.522980984870152  0.9807147897305838  1.0000
  C   C35       1.0  0.4953144602147148  0.4928095953819922  0.5293966114237562  1.0000
  C   C36       1.0  0.5237397217308625  0.960022339092056  0.9752025626643925  1.0000
  C   C37       1.0  0.006937492581222699  0.4914038753793405  0.5256773498306373  1.0000
  C   C38       1.0  0.5070582428248258  0.5221764481913735  0.9764815881934864  1.0000
  C   C39       1.0  0.10054207482909307  0.62995939695778  0.0190528166393662  1.0000
  C   C40       1.0  0.3597355721734345  0.9374870820388211  0.469162445243171  1.0000
  C   C41       1.0  0.6180570620659438  0.27991798477475527  0.014463525344545798  1.0000
  C   C42       1.0  0.9325986457409317  0.6969075515736446  0.4614289072270949  1.0000
  C   C43       1.0  0.2810950726952228  0.0900029512682252  0.012937548969730999  1.0000
  C   C44       1.0  0.44566693840213384  0.09945565391090132  0.1797802380869626  1.0000
  C   C45       1.0  0.7043423444937318  0.3842752698984383  0.46527095216828224  1.0000
  C   C46       1.0  0.3761813574335804  0.9031150368830366  0.5192205995437077  1.0000
  C   C47       1.0  0.0825527980239045  0.6297633340766495  0.9679949764716084  1.0000
  C   C48       1.0  0.7183924270639679  0.3861850686457303  0.5164735797572462  1.0000
  C   C49       1.0  0.29805969686765377  0.06574601168995997  0.961991419724569  1.0000
  C   C50       1.0  0.9027894045301607  0.7153485011968147  0.5121053319322754  1.0000
  C   C51       1.0  0.613620049304302  0.2982732010829635  0.9634315049297157  1.0000
  C   C52       1.0  0.10099846273200798  0.5411194614316415  0.10145856350663959  1.0000
  C   C53       1.0  0.4079313923537952  0.03277341375292051  0.39881154853936346  1.0000
  C   C54       1.0  0.5385506048803493  0.3682352563693596  0.09758792705952858  1.0000
  C   C55       1.0  0.4308913744201277  0.4501047066778838  0.32201742789001025  1.0000
  C   C56       1.0  0.029841066190904493  0.5510017745890039  0.3911184366460176  1.0000
  C   C57       1.0  0.3680593177676456  0.08143749094679009  0.09686302231256859  1.0000
  C   C58       1.0  0.5647225996882668  0.41611708858761165  0.39455913660275843  1.0000
  C   C59       1.0  0.4701335188135189  0.8990787251172138  0.6010877995107576  1.0000
  C   C60       1.0  0.9864545672552153  0.584158111565948  0.8968271619291456  1.0000
  C   C61       1.0  0.628475842197787  0.4610416136930198  0.599573134143064  1.0000
  C   C62       1.0  0.4462232930620829  0.9671514694325225  0.8918856824227389  1.0000
  C   C63       1.0  0.9103394120921848  0.6273549184542232  0.5959389359441473  1.0000
  C   C64       1.0  0.5663081497836727  0.4399964221293049  0.8927106419692449  1.0000
  C   C65       1.0  0.9168843428985767  0.5355662224282228  0.8783103244320926  1.0000
  C   C66       1.0  0.12863323501715482  0.4381343893734452  0.1818755165285921  1.0000
  C   C67       1.0  0.5399393197005651  0.9298543934844972  0.6317616125253165  1.0000
  C   C68       1.0  0.5168493532052735  0.558218346620208  0.8742599446265301  1.0000
  C   C69       1.0  0.942720852077258  0.5272732612594098  0.6269854791226592  1.0000
  C   C70       1.0  0.5650552269300064  0.9061365439829245  0.8730367647423236  1.0000
  C   C71       1.0  0.5268747894193311  0.5295941515743363  0.6298228428012463  1.0000
  C   C72       1.0  0.458138485099191  0.10051055952243375  0.38024590411985315  1.0000
  C   C73       1.0  0.0702265414887009  0.47123019053394427  0.13198855119323127  1.0000
  C   C74       1.0  0.44686741002374214  0.4641152281385388  0.3757424454989006  1.0000
  C   C75       1.0  0.4679650990670367  0.04952975346494539  0.12808805224408099  1.0000
  C   C76       1.0  0.09314908459062111  0.43227675880422106  0.3723311661364405  1.0000
  C   C77       1.0  0.4533452915181471  0.12481310928624369  0.3259446078274594  1.0000
  C   C78       1.0  0.4741515660676399  0.4684932182252908  0.1290953586374073  1.0000
  C   C79       1.0  0.062310945974033395  0.5650899693662267  0.0518427206171523  1.0000
  C   C80       1.0  0.4123307637983514  0.006658384679205784  0.44972062802966656  1.0000
  C   C81       1.0  0.5571592870165105  0.3832573173256363  0.04752272579330709  1.0000
  C   C82       1.0  0.9993162184673707  0.5743881054825977  0.44175139087020193  1.0000
  C   C83       1.0  0.3835710349001573  0.051458061127263456  0.04587217807210919  1.0000
  C   C84       1.0  0.58371933360025  0.4285892473483983  0.44500899492602025  1.0000
  C   C85       1.0  0.4471261816393833  0.9356533973233566  0.5511641839266019  1.0000
  C   C86       1.0  0.014383842706223497  0.5772493448750566  0.9477694074630634  1.0000
  C   C87       1.0  0.6153101774759263  0.444572170064191  0.5489311748873362  1.0000
  C   C88       1.0  0.5543789126106944  0.5556501110945149  0.6805492664811438  1.0000
  C   C89       1.0  0.422261405325834  0.9985308178453565  0.9422790078843448  1.0000
  C   C90       1.0  0.9380621842842416  0.6127141187367329  0.544789342602435  1.0000
  C   C91       1.0  0.560026474858482  0.41923989418983604  0.9435291764856402  1.0000
  C   C92       1.0  0.9943042138309082  0.42909906404337045  0.11425080635954997  1.0000
  C   C93       1.0  0.5101950210756883  0.14848974115520974  0.4124044341180734  1.0000
  C   C94       1.0  0.43150730703883505  0.5865933716529739  0.11177673305023458  1.0000
  C   C95       1.0  0.1282424794071915  0.33279000205050835  0.40387186380043255  1.0000
  C   C96       1.0  0.586753564444237  0.9806612626407797  0.11000700111556938  1.0000
  C   C97       1.0  0.3455431818085373  0.5167444191394781  0.40719530749118593  1.0000
  C   C98       1.0  0.5826444440564913  0.005329501258231136  0.6142555546167827  1.0000
  C   C99       1.0  0.5865539237571298  0.8653447348968726  0.8204138336597565  1.0000
  C   C100      1.0  0.8709409843874026  0.4812066992526028  0.9102873595041814  1.0000
  C   C101      1.0  0.40897181014721434  0.5735453384189881  0.611633427693725  1.0000
  C   C102      1.0  0.6641288746542529  0.8718274846045944  0.9047479953437402  1.0000
  C   C103      1.0  0.0110122657480218  0.4087131548105558  0.6085417313499234  1.0000
  C   C104      1.0  0.45890187067745086  0.6593049069060439  0.9057274003703383  1.0000
  C   C105      1.0  0.9525007809238489  0.45219743517473876  0.06485476328679599  1.0000
  C   C106      1.0  0.5170023785192157  0.12441806526967984  0.4636050874885028  1.0000
  C   C107      1.0  0.44726596177545724  0.6058485979968964  0.06155671828378219  1.0000
  C   C108      1.0  0.102556150549951  0.35134561876512993  0.45496029532678506  1.0000
  C   C109      1.0  0.6066820503569658  0.946255352204389  0.05973709252243959  1.0000
  C   C110      1.0  0.895206548092112  0.5497983933138356  0.6790054077301306  1.0000
  C   C111      1.0  0.36108876052680466  0.5222507214801337  0.4585476635690426  1.0000
  C   C112      1.0  0.5554222226239531  0.0503761622782122  0.5653635688306905  1.0000
  C   C113      1.0  0.89312566153734  0.47577902395548216  0.9615914979886141  1.0000
  C   C114      1.0  0.3921994794367335  0.551224766817981  0.561800639555102  1.0000
  C   C115      1.0  0.6451980325023216  0.8950950714445014  0.9559329830953444  1.0000
  C   C116      1.0  0.04676210952993641  0.38952566635496316  0.5583687530852116  1.0000
  C   C117      1.0  0.4554981667303224  0.6426558005674465  0.9571865358885745  1.0000
  C   C118      1.0  0.845358119648651  0.4230610090545284  0.9956116704982279  1.0000
  C   C119      1.0  0.591430717438108  0.1330997994563531  0.5463611986893183  1.0000
  C   C120      1.0  0.4044703171087178  0.7429857978877266  0.991377962584792  1.0000
  N   N1        1.0  0.1308490868413728  0.6862753704204893  0.9369763369091756  1.0000
  N   N2        1.0  0.1604508159490692  0.15771516728431578  0.032508035254735994  1.0000
  N   N3        1.0  0.9027724857009432  0.7937381836089941  0.42927137171950847  1.0000
  N   N4        1.0  0.671957157320236  0.16260636063365294  0.03353785474761389  1.0000
  N   N5        1.0  0.3232595876944657  0.8388889451503517  0.5389393933569835  1.0000
  N   N6        1.0  0.6665565670187233  0.1942638861384795  0.9318505606737232  1.0000
  N   N7        1.0  0.8405465928674829  0.8331638053774739  0.5317323417367205  1.0000
  N   N8        1.0  0.2059983962313794  0.10297673775912129  0.9277152628719846  1.0000
  N   N9        1.0  0.839125616619917  0.3301136305322743  0.5352977537069917  1.0000
  N   N10       1.0  0.28999659581965886  0.9101661975943287  0.43730114051094654  1.0000
  N   N11       1.0  0.164411271311721  0.6835302809532492  0.0378659331600275  1.0000
  N   N12       1.0  0.8079538496262159  0.3325633450268837  0.43534493471594254  1.0000
  O   O1        1.0  0.5241604847845309  0.11823975580860957  0.20013350673693248  1.0000
  O   O2        1.0  0.8514960428752261  0.4736357267726489  0.808117412654063  1.0000
  O   O3        1.0  0.47604514520592284  0.6550517115748848  0.7023761365630179  1.0000
  O   O4        1.0  0.6909496334435447  0.8350306520055993  0.8016015673910175  1.0000
  O   O5        1.0  0.5235947060829246  0.33350671625719025  0.1952710255109267  1.0000
  O   O6        1.0  0.1466230211116439  0.49320253336247055  0.29751946818302594  1.0000
  O   O7        1.0  0.341595831927421  0.1260603410594712  0.1995086196629146  1.0000
  O   O8        1.0  0.5164751274703717  0.36442355853098  0.2982206219678857  1.0000
  O   O9        1.0  0.1575368544254303  0.5134798544764365  0.20060730208937366  1.0000
  O   O10       1.0  0.3705787651360737  0.12020353333917906  0.2996552684909303  1.0000
  O   O11       1.0  0.6576967087674462  0.48004835494224796  0.6976552921051961  1.0000
  O   O12       1.0  0.3254946566648371  0.5268172769453584  0.3033153673800583  1.0000
  O   O13       1.0  0.5032245919509534  0.8561073556711561  0.7976173821273703  1.0000
  O   O14       1.0  0.8731911321505166  0.6519958101078487  0.6989382224235783  1.0000
  O   O15       1.0  0.6336059564685002  0.48958151063820304  0.8008695803375047  1.0000
  O   O16       1.0  0.4927155941876151  0.8462054918725457  0.7002107930872868  1.0000
  O   O17       1.0  0.8836242198648777  0.6322824666522565  0.798973038300268  1.0000
  O   O18       1.0  0.3593065586664608  0.31687288625116133  0.24998225651128786  1.0000
  O   O19       1.0  0.681494738397305  0.6433355058978519  0.7505093172601461  1.0000
  O   O20       1.0  0.1529154622481386  0.33737330960522643  0.20171744493360677  1.0000
  O   O21       1.0  0.5296168116227946  0.15169876566368165  0.30905658816926257  1.0000
  O   O22       1.0  0.35455993789559415  0.5190099209179734  0.20359003583968868  1.0000
  O   O23       1.0  0.1627906029271813  0.3076798764746869  0.3002939994463886  1.0000
  O   O24       1.0  0.874303062788023  0.4727338593535607  0.6993676749469913  1.0000
  O   O25       1.0  0.4672853962390419  0.6787274846385569  0.8014478189234566  1.0000
  O   O26       1.0  0.669953979199974  0.8484533881737661  0.7027431475179994  1.0000
  O   O27       1.0  0.6933775718670319  0.15346582593126346  0.25144450935646023  1.0000
  O   O28       1.0  0.8338651261591465  0.30990790622656317  0.7506187709604716  1.0000
