data_image0
_chemical_formula_structural       Zn2H38C44N10O8
_chemical_formula_sum              "Zn2 H38 C44 N10 O8"
_cell_length_a       11.537919041
_cell_length_b       11.853041270479839
_cell_length_c       14.227
_cell_angle_alpha    112.47049129659952
_cell_angle_beta     90.0
_cell_angle_gamma    119.12432892405289

_space_group_name_H-M_alt    "P 1"
_space_group_IT_number       1

loop_
  _space_group_symop_operation_xyz
  'x, y, z'

loop_
  _atom_site_type_symbol
  _atom_site_label
  _atom_site_symmetry_multiplicity
  _atom_site_fract_x
  _atom_site_fract_y
  _atom_site_fract_z
  _atom_site_occupancy
  Zn  Zn1       1.0  0.3727096982184505  0.7169093049096135  0.7571982846725761  1.0000
  Zn  Zn2       1.0  0.3441996874578733  0.7169082308817423  0.2572000513351114  1.0000
  H   H1        1.0  0.90782637691931  0.4442727010875984  0.15938977941495122  1.0000
  H   H2        1.0  0.5364413823831882  0.4442727010875984  0.6593925909704481  1.0000
  H   H3        1.0  0.049498426021088386  0.185140923661443  0.9599569831702937  1.0000
  H   H4        1.0  0.1356446023324906  0.1851387756057079  0.45995137894001914  1.0000
  H   H5        1.0  0.8070876062447639  0.997129619498381  0.8564777009956545  1.0000
  H   H6        1.0  0.19004566179175703  0.997129619498381  0.3564755923290336  1.0000
  H   H7        1.0  0.14771433122459848  0.546181835219258  0.5419111256128631  1.0000
  H   H8        1.0  0.3984664467223666  0.546179687163523  0.041909035826954356  1.0000
  H   H9        1.0  0.4247090599467711  0.9893998409417577  0.7234068929651303  1.0000
  H   H10       1.0  0.5646935748545872  0.9893998409417577  0.22341392185386874  1.0000
  H   H11       1.0  0.2701101119818857  0.9515038416931745  0.5504371116262803  1.0000
  H   H12       1.0  0.6813949340720313  0.9515092118325087  0.050441633202183374  1.0000
  H   H13       1.0  0.10823336833711747  0.7047534575143217  0.37242356738266846  1.0000
  H   H14       1.0  0.5965212254544171  0.7047631237651188  0.8724273483082783  1.0000
  H   H15       1.0  0.03030635096997256  0.5456351550351073  0.3904507588970958  1.0000
  H   H16       1.0  0.5153301030147404  0.5456394511465774  0.890446503802437  1.0000
  H   H17       1.0  0.8605453181314714  0.5087809628172266  0.5064941019914286  1.0000
  H   H18       1.0  0.6482364247154706  0.5087874069844247  0.006493342460430497  1.0000
  H   H19       1.0  0.6891031940821861  0.562975334942955  0.5784676702993892  1.0000
  H   H20       1.0  0.8738717625284593  0.562979631054418  0.0784641180936063  1.0000
  H   H21       1.0  0.8554574912305171  0.9260504552802971  0.5068438005669762  1.0000
  H   H22       1.0  0.07059445277148052  0.9260493812524261  0.006837835451904083  1.0000
  H   H23       1.0  0.02770023737948427  0.8724833154287168  0.4350755857538219  1.0000
  H   H24       1.0  0.8447864684887563  0.8724876115401871  0.9350706277702941  1.0000
  H   H25       1.0  0.6088579207960834  0.729013598967299  0.6415046282210426  1.0000
  H   H26       1.0  0.120151076870151  0.729013598967299  0.14150181666554576  1.0000
  H   H27       1.0  0.6851267138113498  0.8885786970390583  0.6240077050627236  1.0000
  H   H28       1.0  0.20345340788641414  0.8885808450947935  0.1240069832931425  1.0000
  H   H29       1.0  0.567007791569523  0.8868441420343416  0.472379948494364  1.0000
  H   H30       1.0  0.3198376554472517  0.8868495121736757  0.9723830642925223  1.0000
  H   H31       1.0  0.2935119102932262  0.44351336338583996  0.2897756622928824  1.0000
  H   H32       1.0  0.1500072444984895  0.44351765949731004  0.7897714071982237  1.0000
  H   H33       1.0  0.4483071415939079  0.4821364795001771  0.4631013917257434  1.0000
  H   H34       1.0  0.03383151743498304  0.48213540547230593  0.9630975352772992  1.0000
  H   H35       1.0  0.5508009878180431  0.18805798334739882  0.01700732545401711  1.0000
  H   H36       1.0  0.6372579823975357  0.1880569093195277  0.5170090921165595  1.0000
  H   H37       1.0  0.6637023028439087  0.3480344340920994  0.12987615474273895  1.0000
  H   H38       1.0  0.6843285356282395  0.3480333600642354  0.6298793271830263  1.0000
  C   C1        1.0  0.5802950802167857  0.995837563974746  0.8891435175723076  1.0000
  C   C2        1.0  0.4155480750403697  0.9958397120304809  0.3891484189137131  1.0000
  C   C3        1.0  0.7217105887126039  0.11457514476363431  0.9484502916268981  1.0000
  C   C4        1.0  0.3928667312974383  0.11457621879150542  0.44845203940872846  1.0000
  C   C5        1.0  0.7485485043000111  0.2437656607373029  0.03407583718863799  1.0000
  C   C6        1.0  0.4952175196015816  0.24376351268156782  0.534077261847095  1.0000
  C   C7        1.0  0.8842980406213883  0.3454578412398916  0.09236980798774402  1.0000
  C   C8        1.0  0.4611576127286909  0.3454578412398916  0.5923733224321097  1.0000
  C   C9        1.0  0.990738032269732  0.3245486667310118  0.0658775542955041  1.0000
  C   C10       1.0  0.3338091384984025  0.3245465186752767  0.5658726529541056  1.0000
  C   C11       1.0  0.9645197204380693  0.19866186047530482  0.9799657128749715  1.0000
  C   C12       1.0  0.23413844717255472  0.19866186047530482  0.4799629013194817  1.0000
  C   C13       1.0  0.8313050110284125  0.0963155970018974  0.9232354444395057  1.0000
  C   C14       1.0  0.2650135713990807  0.0963113008904344  0.423231967756557  1.0000
  C   C15       1.0  0.13495864816740524  0.4401999874170742  0.12572627310011342  1.0000
  C   C16       1.0  0.30524585446676167  0.4401999874170742  0.6257213528780028  1.0000
  C   C17       1.0  0.20230921224553808  0.6615184657403859  0.5676236493111589  1.0000
  C   C18       1.0  0.4592113611929065  0.6615195397682498  0.06762469420412033  1.0000
  C   C19       1.0  0.34512420007861516  0.8922636866496988  0.6589471996506832  1.0000
  C   C20       1.0  0.5471428836612162  0.8922593905382358  0.15894794030097611  1.0000
  C   C21       1.0  0.269231354846724  0.8749406911877244  0.5747383891180817  1.0000
  C   C22       1.0  0.6057043006333345  0.8749385431319894  0.07474403110978052  1.0000
  C   C23       1.0  0.06727757746870823  0.6607290552583579  0.42830290117917963  1.0000
  C   C24       1.0  0.5934511939126992  0.6607322773419568  0.9283032243025533  1.0000
  C   C25       1.0  0.9559958397827231  0.6869278170107338  0.46536263455512034  1.0000
  C   C26       1.0  0.7309350801526193  0.6869342611779317  0.9653590634686254  1.0000
  C   C27       1.0  0.8603312397212973  0.6007682275163334  0.5064288689125079  1.0000
  C   C28       1.0  0.7404370876635369  0.6007735976556674  0.006426361599679389  1.0000
  C   C29       1.0  0.764111328316815  0.6316304182659068  0.5477141477289109  1.0000
  C   C30       1.0  0.8675210825242913  0.6316379364609688  0.04771373020199123  1.0000
  C   C31       1.0  0.7611185736933945  0.7487123440704124  0.5486552332897858  1.0000
  C   C32       1.0  0.9875925659926565  0.7487155661540115  0.0486534477465383  1.0000
  C   C33       1.0  0.8564746647788154  0.8345894642358688  0.5072614754196962  1.0000
  C   C34       1.0  0.9781149875290822  0.8345905382637397  0.00725549142391907  1.0000
  C   C35       1.0  0.9529147529851868  0.8038937478056383  0.4660383447913361  1.0000
  C   C36       1.0  0.8509792306603214  0.8038948218335022  0.9660358752399247  1.0000
  C   C37       1.0  0.6493590703770807  0.7737962648971504  0.5859173573052203  1.0000
  C   C38       1.0  0.12443846810579381  0.7737994869807496  0.08591697753971778  1.0000
  C   C39       1.0  0.5134375991514659  0.771676133888292  0.4466353669943787  1.0000
  C   C40       1.0  0.25823873759564725  0.771677207916156  0.9466357089984642  1.0000
  C   C41       1.0  0.37246358712768307  0.5407612165760298  0.35457176046961086  1.0000
  C   C42       1.0  0.1683020731179923  0.5407665867153639  0.8545713618234034  1.0000
  C   C43       1.0  0.44851340287419816  0.5584848244322842  0.4389278194132089  1.0000
  C   C44       1.0  0.10997455630175777  0.5584858984601553  0.9389239440840527  1.0000
  N   N1        1.0  0.30233725829631203  0.7582701180561602  0.6535571657954905  1.0000
  N   N2        1.0  0.4559360132973183  0.7582701180561602  0.15356068023985614  1.0000
  N   N3        1.0  0.18003871936171117  0.7285904319878257  0.517698690027686  1.0000
  N   N4        1.0  0.5485521898525221  0.7285936540714246  0.017702527595425045  1.0000
  N   N5        1.0  0.4140668786842384  0.6747171941942371  0.360370854617024  1.0000
  N   N6        1.0  0.2606548804152666  0.674721490305707  0.8603708168556068  1.0000
  N   N7        1.0  0.5364630431561253  0.704990817672865  0.4964332193084502  1.0000
  N   N8        1.0  0.16852915517565495  0.7049940397564642  0.9964321366540788  1.0000
  N   N9        1.0  0.6474447728090595  0.2711039660562378  0.05855895562745422  1.0000
  N   N10       1.0  0.6236576580779669  0.2711050400841017  0.5585635149647814  1.0000
  O   O1        1.0  0.4801724166661359  0.0123749490800975  0.9036882339260901  1.0000
  O   O2        1.0  0.5322073444482739  0.0123792451915605  0.40369381927565234  1.0000
  O   O3        1.0  0.5663404941931915  0.8752650476034702  0.8244361074709374  1.0000
  O   O4        1.0  0.3089273175646028  0.8752628995477352  0.32444174946263626  1.0000
  O   O5        1.0  0.1506531608858594  0.562137593206927  0.19043960817687383  1.0000
  O   O6        1.0  0.41147653893506225  0.5621322230675929  0.690433680823226  1.0000
  O   O7        1.0  0.2300972228089577  0.4175218890117449  0.11051160464408842  1.0000
  O   O8        1.0  0.18741224968921705  0.4175122227609408  0.6105043092741128  1.0000
