data_image0
_chemical_formula_structural       CoH24C18S2N6O2
_chemical_formula_sum              "Co1 H24 C18 S2 N6 O2"
_cell_length_a       7.588616176784907
_cell_length_b       8.5514710644426
_cell_length_c       9.879568600961028
_cell_angle_alpha    65.09494719861515
_cell_angle_beta     81.53714488146943
_cell_angle_gamma    73.26078395778946

_space_group_name_H-M_alt    "P 1"
_space_group_IT_number       1

loop_
  _space_group_symop_operation_xyz
  'x, y, z'

loop_
  _atom_site_type_symbol
  _atom_site_label
  _atom_site_symmetry_multiplicity
  _atom_site_fract_x
  _atom_site_fract_y
  _atom_site_fract_z
  _atom_site_occupancy
  Co  Co1       1.0  0.5000000586989445  0.5000036033640639  0.49999698439312806  1.0000
  H   H1        1.0  0.41760254619455145  0.4273988386611478  0.2622206667569529  1.0000
  H   H2        1.0  0.5823973641996076  0.5725990293769384  0.7377787393686787  1.0000
  H   H3        1.0  0.5692247391302203  0.25936376962032165  0.3608889446930874  1.0000
  H   H4        1.0  0.4307755145114243  0.7406327633900887  0.6391129325833091  1.0000
  H   H5        1.0  0.3856258664955875  0.1707893649198482  0.6754484282029765  1.0000
  H   H6        1.0  0.6143836355574094  0.8292125403980181  0.32454845380112834  1.0000
  H   H7        1.0  0.12744514352149136  0.0813244372554323  0.8487072040640623  1.0000
  H   H8        1.0  0.8725613824413686  0.9186734436292169  0.151300577084953  1.0000
  H   H9        1.0  0.8626076136382113  0.640877536313077  0.7231074157946935  1.0000
  H   H10       1.0  0.13738166666623639  0.3591202967562665  0.276889127358892  1.0000
  H   H11       1.0  0.13492361239589457  0.7065165284207636  0.5669067436929823  1.0000
  H   H12       1.0  0.8650599414943372  0.29348795905073644  0.43308194257874516  1.0000
  H   H13       1.0  0.7872877645692924  0.18871114903480188  0.8959654281718128  1.0000
  H   H14       1.0  0.21271345938134095  0.8112867185234264  0.10403788195309019  1.0000
  H   H15       1.0  0.8837632501237921  0.22000838277639184  0.03112512896726121  1.0000
  H   H16       1.0  0.11623992747745862  0.7799921580354263  0.9688780073165687  1.0000
  H   H17       1.0  0.5342209240621615  0.23686273647246026  0.10047120103688911  1.0000
  H   H18       1.0  0.46577692546160415  0.7631377826970362  0.8995335432990003  1.0000
  H   H19       1.0  0.4831016685477537  0.27390757037967006  0.9176608171120221  1.0000
  H   H20       1.0  0.5168978681894459  0.7260916229841924  0.08234321011837413  1.0000
  H   H21       1.0  0.7849567795993054  0.5923267948376533  0.9566612299149211  1.0000
  H   H22       1.0  0.21504108730130167  0.40767372987577494  0.04333946170352475  1.0000
  H   H23       1.0  0.7168633934944001  0.4279736716781102  0.12232273459251523  1.0000
  H   H24       1.0  0.2831394408593723  0.5720282041613843  0.8776779305405495  1.0000
  C   C1        1.0  0.2697026896932113  0.2704699345160293  0.6929485701196043  1.0000
  C   C2        1.0  0.7302777635102655  0.7295358473633088  0.3070602323836553  1.0000
  C   C3        1.0  0.1242991088528953  0.22210393458455968  0.7891773792411383  1.0000
  C   C4        1.0  0.8757226510697937  0.7779020195272467  0.21081566802573073  1.0000
  C   C5        1.0  0.9733235799268202  0.35244178604197884  0.8079943836757834  1.0000
  C   C6        1.0  0.02666824199186377  0.64756137738258  0.19201006594872175  1.0000
  C   C7        1.0  0.9765270653954515  0.5296428253916118  0.7220385373906524  1.0000
  C   C8        1.0  0.023486451178555984  0.47035910204843395  0.2779528325621213  1.0000
  C   C9        1.0  0.13000653395381795  0.5687479185481762  0.6314300174633019  1.0000
  C   C10       1.0  0.8699697628880756  0.43124852330870306  0.3685745367402475  1.0000
  C   C11       1.0  0.8235905852163937  0.29072183348688435  0.918566350634343  1.0000
  C   C12       1.0  0.17641392766238792  0.7092787137749993  0.0814356237519505  1.0000
  C   C13       1.0  0.5017322766193574  0.34047501182076445  0.9864232089582783  1.0000
  C   C14       1.0  0.49827160919791424  0.6595228658656392  0.013579803730273657  1.0000
  C   C15       1.0  0.6753637174575929  0.5232958213485547  0.007529579942350017  1.0000
  C   C16       1.0  0.32463485765903505  0.4767020402394593  0.9924709880808177  1.0000
  C   C17       1.0  0.2730235357588526  0.8646596241538803  0.30889606795800956  1.0000
  C   C18       1.0  0.7269883153227783  0.135343636021716  0.6910909532034563  1.0000
  S   S1        1.0  0.1591105185185668  0.0675637306322514  0.21823384254860653  1.0000
  S   S2        1.0  0.8409074109131749  0.9324315428854888  0.7817614802867539  1.0000
  N   N1        1.0  0.3563103011832069  0.7146651988278948  0.37228360131337  1.0000
  N   N2        1.0  0.643692906827525  0.2853353516858164  0.6277124427149372  1.0000
  N   N3        1.0  0.277761600673756  0.442389443190585  0.617466734407131  1.0000
  N   N4        1.0  0.7222362879479078  0.5576110884527664  0.38252889131450724  1.0000
  N   N5        1.0  0.6544669432233621  0.4264665994612784  0.9203371823901916  1.0000
  N   N6        1.0  0.34553427638305584  0.5735312667109654  0.07966714091406858  1.0000
  O   O1        1.0  0.4571460315807841  0.3464225070772287  0.36824137602997803  1.0000
  O   O2        1.0  0.5428515688826394  0.6535740185769825  0.6317587723240479  1.0000
