data_image0
_chemical_formula_structural       AlH24C33N7O6
_chemical_formula_sum              "Al1 H24 C33 N7 O6"
_cell_length_a       3.929650143958392
_cell_length_b       18.132245117835094
_cell_length_c       18.05483019959939
_cell_angle_alpha    120.62914785688126
_cell_angle_beta     100.36944217389373
_cell_angle_gamma    93.63887011877895

_space_group_name_H-M_alt    "P 1"
_space_group_IT_number       1

loop_
  _space_group_symop_operation_xyz
  'x, y, z'

loop_
  _atom_site_type_symbol
  _atom_site_label
  _atom_site_symmetry_multiplicity
  _atom_site_fract_x
  _atom_site_fract_y
  _atom_site_fract_z
  _atom_site_occupancy
  Al  Al1       1.0  0.01773590306507338  0.0012915605701308986  0.5001091738049865  1.0000
  H   H1        1.0  0.38121480834080057  0.3092003927997667  0.4105248497066826  1.0000
  H   H2        1.0  0.645820406594595  0.08664294114434061  0.9025667880345696  1.0000
  H   H3        1.0  0.39869212398441783  0.5993432711307561  0.17670710345853993  1.0000
  H   H4        1.0  0.7287250578994959  0.32738496880277523  0.9101003211177672  1.0000
  H   H5        1.0  0.33851095642228307  0.5970305971168132  0.40996380403675664  1.0000
  H   H6        1.0  0.5439680256818419  0.08064820815405228  0.1829185945723921  1.0000
  H   H7        1.0  0.2923099422178624  0.9292364776509533  0.2272641697062952  1.0000
  H   H8        1.0  0.7382184935201507  0.9599144140097878  0.2876380721779697  1.0000
  H   H9        1.0  0.6256166692926469  0.9538699521106084  0.18442738052567637  1.0000
  H   H10       1.0  0.6465499565609603  0.2629284952644539  0.5656622054932329  1.0000
  H   H11       1.0  0.2090242393673307  0.2060135215309558  0.5303335947175398  1.0000
  H   H12       1.0  0.2924896067322251  0.3067136586658848  0.5359529824440443  1.0000
  H   H13       1.0  0.3303731554975896  0.7192417569388567  0.5403684998076271  1.0000
  H   H14       1.0  0.092291352040803  0.7952438018650837  0.5298539471556367  1.0000
  H   H15       1.0  0.5543988876959601  0.8200700245660927  0.5641812795550791  1.0000
  H   H16       1.0  0.6614132606586336  0.7978755826101892  0.24820420695174766  1.0000
  H   H17       1.0  0.24066835830335986  0.8215128585425335  0.26035327734538793  1.0000
  H   H18       1.0  0.2830479637176495  0.7208258039129803  0.1678428778131079  1.0000
  H   H19       1.0  0.483448339340761  0.26526250264485185  0.7056731574078159  1.0000
  H   H20       1.0  0.8921275242769227  0.2353928925705659  0.687280568640837  1.0000
  H   H21       1.0  0.8762273055730673  0.33162828421610874  0.7880175648780964  1.0000
  H   H22       1.0  0.8943741759237726  0.9587198447857902  0.7117710001461148  1.0000
  H   H23       1.0  0.4406206504747985  0.9453925941965268  0.6676770772684154  1.0000
  H   H24       1.0  0.5873382299292659  0.9528810791407667  0.7709722188923894  1.0000
  C   C1        1.0  0.4812032188732189  0.06429979557494651  0.42996103197482693  1.0000
  C   C2        1.0  0.6439945958869444  0.0728739557966023  0.6377622174900353  1.0000
  C   C3        1.0  0.42336011044483257  0.8658989582055698  0.43148294599885884  1.0000
  C   C4        1.0  0.4174605431457365  0.24155804340725956  0.37886346339439575  1.0000
  C   C5        1.0  0.46256571402850705  0.19945230277521386  0.2921353271922911  1.0000
  C   C6        1.0  0.6687760225553133  0.12098565297370814  0.8682108850532588  1.0000
  C   C7        1.0  0.6796435370500972  0.21124065636594488  0.9148576168665202  1.0000
  C   C8        1.0  0.37913403326823664  0.5894850186567312  0.2894079200734296  1.0000
  C   C9        1.0  0.3871679244118339  0.6349651975710487  0.24604644959813277  1.0000
  C   C10       1.0  0.7124926864551355  0.25692324956572327  0.872294684635918  1.0000
  C   C11       1.0  0.7170558335612682  0.2132693106551642  0.7829251436472264  1.0000
  C   C12       1.0  0.6917114958862668  0.1217984430582888  0.7361489158311019  1.0000
  C   C13       1.0  0.6758207773840752  0.07514391794652651  0.7789707434081877  1.0000
  C   C14       1.0  0.3866889187661826  0.7241999981763315  0.2903214312276745  1.0000
  C   C15       1.0  0.3770827633423721  0.768867809169663  0.3809196848912323  1.0000
  C   C16       1.0  0.34747224824681666  0.7228002765183561  0.4242422910020949  1.0000
  C   C17       1.0  0.3508299203357196  0.6335460188057951  0.377470393336985  1.0000
  C   C18       1.0  0.5054006445795949  0.11220777243204343  0.24998089375939975  1.0000
  C   C19       1.0  0.5025753368582571  0.0663751944635251  0.29274063595460126  1.0000
  C   C20       1.0  0.4639491889445964  0.11063240565314202  0.3806522853577334  1.0000
  C   C21       1.0  0.4224037550245043  0.19857791070609926  0.4246688923844816  1.0000
  C   C22       1.0  0.42173269388405277  0.373046579297089  0.24818776940582407  1.0000
  C   C23       1.0  0.56756070452969  0.24728809056720993  0.12497569059809881  1.0000
  C   C24       1.0  0.4713771613173278  0.24678975647238136  0.24611873436564488  1.0000
  C   C25       1.0  0.4116199369700908  0.49686849307671116  0.24355471015413607  1.0000
  C   C26       1.0  0.5339802052735009  0.3802992476359608  0.12327589110969948  1.0000
  C   C27       1.0  0.6387350910897138  0.2566293657519694  0.0065328439991602875  1.0000
  C   C28       1.0  0.5425524036932998  0.9723039901866528  0.24555191165082152  1.0000
  C   C29       1.0  0.3897961709497579  0.24602289306820785  0.5191750382412579  1.0000
  C   C30       1.0  0.3300672046056193  0.7666166588283901  0.5197428699900045  1.0000
  C   C31       1.0  0.3919035743507919  0.7685623556948188  0.2390201205706077  1.0000
  C   C32       1.0  0.7450636148869378  0.2640316904704818  0.7386447655558898  1.0000
  C   C33       1.0  0.64777760296419  0.9777692552388616  0.7298221174989764  1.0000
  N   N1        1.0  0.5077030680527203  0.3336080879246311  0.16545837353567802  1.0000
  N   N2        1.0  0.5541017852709658  0.2050423322590333  0.1670599869700098  1.0000
  N   N3        1.0  0.39815719905920594  0.32804929764051854  0.28724678874927184  1.0000
  N   N4        1.0  0.36449932584077505  0.4548926230103518  0.2856609754662429  1.0000
  N   N5        1.0  0.4921745075741626  0.4631867247592184  0.16440973060766595  1.0000
  N   N6        1.0  0.6372991361283838  0.20975197022725922  0.0451687037178132  1.0000
  N   N7        1.0  0.5991172570390688  0.3405129375653005  0.04300266496009193  1.0000
  O   O1        1.0  0.24188756813914838  0.9052259204263393  0.4875719816667188  1.0000
  O   O2        1.0  0.21394013639894643  0.009477672980438  0.4128195074174529  1.0000
  O   O3        1.0  0.3889109479343489  0.0870260131769456  0.5943878967595921  1.0000
  O   O4        1.0  0.6535954601854144  0.9060474242676834  0.4161394287071192  1.0000
  O   O5        1.0  0.8450689551004517  0.019686048521641908  0.6014720855447566  1.0000
  O   O6        1.0  0.7679758364950116  0.08304569064090121  0.4872147341996539  1.0000
