data_image0
_chemical_formula_structural       Zn4H19C33N3O13
_chemical_formula_sum              "Zn4 H19 C33 N3 O13"
_cell_length_a       13.042700219235341
_cell_length_b       13.156673276209643
_cell_length_c       19.733338071722013
_cell_angle_alpha    79.53711226669324
_cell_angle_beta     79.35473994479618
_cell_angle_gamma    88.48813715786245

_space_group_name_H-M_alt    "P 1"
_space_group_IT_number       1

loop_
  _space_group_symop_operation_xyz
  'x, y, z'

loop_
  _atom_site_type_symbol
  _atom_site_label
  _atom_site_symmetry_multiplicity
  _atom_site_fract_x
  _atom_site_fract_y
  _atom_site_fract_z
  _atom_site_occupancy
  Zn  Zn1       1.0  0.5894341712372508  0.5726494203372429  0.543264963211122  1.0000
  Zn  Zn2       1.0  0.5751623627740514  0.40608017857609024  0.4404292910090247  1.0000
  Zn  Zn3       1.0  0.4320770333527904  0.5993911191531255  0.43662009258725476  1.0000
  Zn  Zn4       1.0  0.3974795834736113  0.4209790182227665  0.5784327391853096  1.0000
  H   H1        1.0  0.3795400093618683  0.6440530833922936  0.11058122505282598  1.0000
  H   H2        1.0  0.40312063001375986  0.6411839409779676  0.23277008225164048  1.0000
  H   H3        1.0  0.5258617606204865  0.29263027851427387  0.908045309167008  1.0000
  H   H4        1.0  0.5366591539660277  0.3505098484643768  0.11261141550514957  1.0000
  H   H5        1.0  0.5443561822391417  0.38239547817218533  0.00557628413481131  1.0000
  H   H6        1.0  0.4794142972362678  0.6214394065001444  0.8893073037828217  1.0000
  H   H7        1.0  0.38074674558834704  0.7427545438413646  0.830012032548282  1.0000
  H   H8        1.0  0.5158886460926766  0.7731896584994687  0.8144357549329582  1.0000
  H   H9        1.0  0.4383530805948085  0.8282427396181195  0.7527843280792297  1.0000
  H   H10       1.0  0.5460547328520278  0.6848613302080369  0.7092208219171495  1.0000
  H   H11       1.0  0.4124517907837629  0.6602581628162698  0.7200765185474225  1.0000
  H   H12       1.0  0.5404385919440244  0.09127758635838752  0.459517942080197  1.0000
  H   H13       1.0  0.49942978096714796  0.897511208965739  0.579026858359093  1.0000
  H   H14       1.0  0.4423300929409777  0.07734900352662073  0.615959003466166  1.0000
  H   H15       1.0  0.5341988651426064  0.9289676850554259  0.4172854097327914  1.0000
  H   H16       1.0  0.9037157351157888  0.555369156225794  0.530324085885951  1.0000
  H   H17       1.0  0.1048164395213291  0.5064109242371869  0.42841476554988833  1.0000
  H   H18       1.0  0.06661192670053852  0.553317940399488  0.5792260984722333  1.0000
  H   H19       1.0  0.559548233408819  0.3496494025948708  0.2342286211936724  1.0000
  C   C1        1.0  0.47580381288976537  0.223955379147398  0.5419590416537758  1.0000
  C   C2        1.0  0.49818057862648163  0.44588843065392336  0.9831982273622868  1.0000
  C   C3        1.0  0.44703559329770576  0.5065995438712038  0.027727032823939582  1.0000
  C   C4        1.0  0.5209844704029223  0.7740897500950796  0.48034411465766164  1.0000
  C   C5        1.0  0.48365544797293586  0.49595117584828347  0.2408955456127017  1.0000
  C   C6        1.0  0.5264188986746206  0.8876721800537839  0.47125460234241956  1.0000
  C   C7        1.0  0.512805052378738  0.9400897861386357  0.5251162972196538  1.0000
  C   C8        1.0  0.4761362283438616  0.11004606972040422  0.5618193595610774  1.0000
  C   C9        1.0  0.5118418590056565  0.05129345218346512  0.5130967981727252  1.0000
  C   C10       1.0  0.10977829726637368  0.5416012341894999  0.5282817509094144  1.0000
  C   C11       1.0  0.05969800194302619  0.5238962795201446  0.4773307841319151  1.0000
  C   C12       1.0  0.49897125943668635  0.45603795503305383  0.9083525216080445  1.0000
  C   C13       1.0  0.8911197645486979  0.4847614644295177  0.445384450278148  1.0000
  C   C14       1.0  0.9481158962725544  0.523381777770098  0.4865386476394136  1.0000
  C   C15       1.0  0.7744242613183518  0.4889397152163043  0.46096631117138287  1.0000
  C   C16       1.0  0.2249590820432488  0.5345804957800909  0.5211741430226055  1.0000
  C   C17       1.0  0.4969497652383197  0.4971270262760401  0.3141541877519387  1.0000
  C   C18       1.0  0.49970145447643693  0.4813617813345062  0.687171330672477  1.0000
  C   C19       1.0  0.5004956834634343  0.4735520371680907  0.7639066778312155  1.0000
  C   C20       1.0  0.4884392980711  0.5632724934789409  0.7940955152722963  1.0000
  C   C21       1.0  0.48753117667115486  0.5524367734036418  0.8657803155696655  1.0000
  C   C22       1.0  0.47516546684820327  0.6676841132868959  0.7495567991805813  1.0000
  C   C23       1.0  0.5146607698219158  0.3680583860799445  0.8769152244188446  1.0000
  C   C24       1.0  0.45109366529231204  0.7574100616562236  0.7891975245871095  1.0000
  C   C25       1.0  0.939308959086894  0.4347357903455347  0.38961760815813307  1.0000
  C   C26       1.0  0.3773213460152505  0.5851642673931609  0.0036426509995664087  1.0000
  C   C27       1.0  0.5281659010216871  0.28623841315302917  0.7736081944396672  1.0000
  C   C28       1.0  0.5136481861728585  0.3763935611075056  0.8052130193807939  1.0000
  C   C29       1.0  0.5078022758516954  0.41539515184918246  0.13792811364423585  1.0000
  C   C30       1.0  0.5206895891729459  0.41407344960607173  0.20645399141839246  1.0000
  C   C31       1.0  0.4322863905605915  0.5781973388994218  0.20574703016954024  1.0000
  C   C32       1.0  0.41922044569385253  0.5793157203078182  0.13741670906836836  1.0000
  C   C33       1.0  0.4577222896654122  0.498724559890782  0.10183173665427599  1.0000
  N   N1        1.0  0.9814156752632998  0.39368051118564323  0.34443428639708873  1.0000
  N   N2        1.0  0.3181602938404993  0.6488351072176645  0.986765425605199  1.0000
  N   N3        1.0  0.5409063805192602  0.21286071086311867  0.7475150041291485  1.0000
  O   O1        1.0  0.49829445507872805  0.49782203907198413  0.5005467439931408  1.0000
  O   O2        1.0  0.5428703316818968  0.42062239417681013  0.34560231399091623  1.0000
  O   O3        1.0  0.42108109840562946  0.44274959077201714  0.671352488684171  1.0000
  O   O4        1.0  0.46094301961466044  0.5758664458861916  0.3400519867522078  1.0000
  O   O5        1.0  0.57773586415464  0.5271245359836814  0.6452927080495454  1.0000
  O   O6        1.0  0.7352707645277263  0.5483760416008607  0.5032654673997783  1.0000
  O   O7        1.0  0.2577616487233882  0.4802651907412142  0.5732732054098193  1.0000
  O   O8        1.0  0.5385103903576649  0.2640463925610704  0.486331804857876  1.0000
  O   O9        1.0  0.4842468698606694  0.739101338404645  0.43315136771558116  1.0000
  O   O10       1.0  0.41151559664004367  0.27214914909046684  0.5820937328621483  1.0000
  O   O11       1.0  0.5523254882155584  0.7200450727452504  0.5333375067865873  1.0000
  O   O12       1.0  0.7261880012107015  0.4328232019635437  0.4307881064155552  1.0000
  O   O13       1.0  0.2792717466719523  0.5820974798561808  0.46442599503879467  1.0000
