data_image0
_chemical_formula_structural       Na4H36C44O12
_chemical_formula_sum              "Na4 H36 C44 O12"
_cell_length_a       3.8207160292839686
_cell_length_b       7.389917020733551
_cell_length_c       32.993123666217684
_cell_angle_alpha    89.99868650944858
_cell_angle_beta     90.89513267315562
_cell_angle_gamma    89.99905974283028

_space_group_name_H-M_alt    "P 1"
_space_group_IT_number       1

loop_
  _space_group_symop_operation_xyz
  'x, y, z'

loop_
  _atom_site_type_symbol
  _atom_site_label
  _atom_site_symmetry_multiplicity
  _atom_site_fract_x
  _atom_site_fract_y
  _atom_site_fract_z
  _atom_site_occupancy
  Na  Na1       1.0  0.22698008958543883  0.31756302306817463  0.0219528186657385  1.0000
  Na  Na2       1.0  0.2730186488504671  0.8175519687150795  0.478050115704484  1.0000
  Na  Na3       1.0  0.7730130065603406  0.6824416019128211  0.9780445187135669  1.0000
  Na  Na4       1.0  0.7269726231786109  0.18244047689989168  0.5219593440928776  1.0000
  H   H1        1.0  0.9436917309252523  0.9608823308877563  0.0498424628632463  1.0000
  H   H2        1.0  0.5562989507343303  0.4608742602120089  0.45015471145643465  1.0000
  H   H3        1.0  0.0563248242702201  0.0391087621148927  0.9501533809013551  1.0000
  H   H4        1.0  0.44370485375337404  0.5391208921701252  0.5498462731522125  1.0000
  H   H5        1.0  0.3441172386213509  0.950436939334054  0.0498011541586365  1.0000
  H   H6        1.0  0.1558847818562583  0.4504293453417959  0.45019503213148243  1.0000
  H   H7        1.0  0.6558991777134296  0.0495568601676197  0.950192567754442  1.0000
  H   H8        1.0  0.844129532512902  0.5495658069629242  0.5498065684754252  1.0000
  H   H9        1.0  0.647544255224787  0.10953238087681429  0.886832638147439  1.0000
  H   H10       1.0  0.8524141178221997  0.6095496852972246  0.6131600594377318  1.0000
  H   H11       1.0  0.35247184383252517  0.890460065678134  0.11315623383895003  1.0000
  H   H12       1.0  0.1475113978899216  0.39045223322210626  0.3868444894235666  1.0000
  H   H13       1.0  0.7464338202961472  0.20278185915863392  0.8095080148503655  1.0000
  H   H14       1.0  0.7534510886620042  0.7027799737106905  0.6904862524465898  1.0000
  H   H15       1.0  0.253530026502645  0.7972308854779868  0.190482323901378  1.0000
  H   H16       1.0  0.24646409552167373  0.29723006391731116  0.3095204084810277  1.0000
  H   H17       1.0  0.629504222549393  0.4841220306923404  0.7650456853178371  1.0000
  H   H18       1.0  0.8704139675935282  0.9841186505101194  0.7349507911879414  1.0000
  H   H19       1.0  0.3704754880573944  0.5159015393118623  0.23494709300625521  1.0000
  H   H20       1.0  0.1295400827995863  0.0159225107434509  0.2650498438344259  1.0000
  H   H21       1.0  0.42262211256305454  0.7769524441997577  0.7497437066280598  1.0000
  H   H22       1.0  0.0772981485135844  0.2769510226236491  0.750256733750895  1.0000
  H   H23       1.0  0.5773003292223392  0.22306571303030856  0.2502538679769587  1.0000
  H   H24       1.0  0.9226925281128119  0.7230711937508404  0.2497436323496771  1.0000
  H   H25       1.0  0.18654402470512818  0.990844019591769  0.7939697530664205  1.0000
  H   H26       1.0  0.3134587723601214  0.4908260903046724  0.7060335953515775  1.0000
  H   H27       1.0  0.8134494874701376  0.0091876689665042  0.20603394977571557  1.0000
  H   H28       1.0  0.6865553434848052  0.5091825941069956  0.2939649740136617  1.0000
  H   H29       1.0  0.0633172448864769  0.9637731036069399  0.8625382429236979  1.0000
  H   H30       1.0  0.43667843031973047  0.4637922040226955  0.6374634205388645  1.0000
  H   H31       1.0  0.9366866983981696  0.0362234018616689  0.1374648635258922  1.0000
  H   H32       1.0  0.5633093516043532  0.5361988890919065  0.36253269951468076  1.0000
  H   H33       1.0  0.152694379587615  0.7201926625748313  0.9059824425033796  1.0000
  H   H34       1.0  0.34726155354883304  0.22021155950614002  0.5940162037070564  1.0000
  H   H35       1.0  0.8472934617874658  0.2798011368835276  0.0940145869050255  1.0000
  H   H36       1.0  0.6527474862609708  0.7797700609011359  0.4059847858153702  1.0000
  C   C1        1.0  0.43193752369860766  0.3851476577860637  0.8946777600813647  1.0000
  C   C2        1.0  0.06813914833605851  0.8851452475069552  0.6053243866691818  1.0000
  C   C3        1.0  0.568113178547229  0.6148529073389284  0.1053199340925701  1.0000
  C   C4        1.0  0.9318519453825188  0.11483637268642609  0.3946823450706632  1.0000
  C   C5        1.0  0.5826273613866562  0.23918298982443528  0.8731770692364478  1.0000
  C   C6        1.0  0.9174190891770381  0.7391780356538858  0.6268232218720442  1.0000
  C   C7        1.0  0.4174441423304458  0.7608270476827101  0.1268185225822762  1.0000
  C   C8        1.0  0.08255635862136762  0.2608089973431191  0.3731844045801225  1.0000
  C   C9        1.0  0.6330093152948708  0.2874275859556263  0.8328170422233188  1.0000
  C   C10       1.0  0.866996297033552  0.7874176084034801  0.667182051338095  1.0000
  C   C11       1.0  0.3670412082366424  0.7125878644559619  0.16717792382605268  1.0000
  C   C12       1.0  0.13296318750345654  0.2125775440359305  0.3328216198891242  1.0000
  C   C13       1.0  0.5160963529861817  0.5592587606202244  0.7902070101392553  1.0000
  C   C14       1.0  0.9839216817581333  0.05924572086765779  0.7097935813959353  1.0000
  C   C15       1.0  0.4839411622449035  0.44074721742102707  0.2097891562211416  1.0000
  C   C16       1.0  0.016084779627888696  0.9407697293993493  0.29020801184030637  1.0000
  C   C17       1.0  0.3970420178525559  0.7332495152264329  0.7812144183461456  1.0000
  C   C18       1.0  0.10296345740604813  0.23323077734732325  0.7187875405398361  1.0000
  C   C19       1.0  0.6029642847778335  0.26677270114063134  0.2187847499073428  1.0000
  C   C20       1.0  0.8970455225701883  0.7667724942292224  0.2812125395642155  1.0000
  C   C21       1.0  0.2518462524429594  0.8600229008152026  0.8075138394009047  1.0000
  C   C22       1.0  0.24816321213489084  0.3600055702240752  0.6924892843629706  1.0000
  C   C23       1.0  0.7481862853562475  0.1399911962183751  0.1924862626281296  1.0000
  C   C24       1.0  0.7518380539951934  0.6399977012785384  0.3075129102678176  1.0000
  C   C25       1.0  0.17893417354618182  0.8446786000760939  0.8486081163202996  1.0000
  C   C26       1.0  0.32110448654910334  0.3446783492241253  0.6513939017731689  1.0000
  C   C27       1.0  0.821090610744541  0.15533549691461704  0.15139349399419194  1.0000
  C   C28       1.0  0.6789280912525087  0.655314096655715  0.3486068065535975  1.0000
  C   C29       1.0  0.23371079010372858  0.6985928388709084  0.874854538153713  1.0000
  C   C30       1.0  0.2663376743141797  0.1985876225677572  0.625147943590207  1.0000
  C   C31       1.0  0.7663269036928924  0.3014077262499271  0.12514435630654222  1.0000
  C   C32       1.0  0.733681954744263  0.8013912913096563  0.3748548744200875  1.0000
  C   C33       1.0  0.38201244841992127  0.5306529594012163  0.8668139611558915  1.0000
  C   C34       1.0  0.11804131120241827  0.030653635808953097  0.6331896995485238  1.0000
  C   C35       1.0  0.6180436078374784  0.46935301838810517  0.13318555660625012  1.0000
  C   C36       1.0  0.8819601732830693  0.9693361035711875  0.366815829444576  1.0000
  C   C37       1.0  0.5119493932861445  0.46629375099669096  0.8269760436778242  1.0000
  C   C38       1.0  0.9880847475123602  0.9662861772676051  0.6730239674723749  1.0000
  C   C39       1.0  0.4881038866608449  0.5337189929042836  0.1730210466623134  1.0000
  C   C40       1.0  0.0118824707019556  0.0337089752301978  0.3269778923487507  1.0000
  C   C41       1.0  0.34444988569376983  0.37684804424338125  0.9379450150391123  1.0000
  C   C42       1.0  0.15559297891100243  0.8768628076449547  0.5620565370000676  1.0000
  C   C43       1.0  0.6555458084944307  0.6231362828140378  0.0620520217117289  1.0000
  C   C44       1.0  0.8444085850266916  0.12311881250207078  0.4379502044967581  1.0000
  O   O1        1.0  0.25886627406170254  0.5207137325492255  0.957262214103622  1.0000
  O   O2        1.0  0.24116429904626094  0.020729310850306597  0.5427423858065908  1.0000
  O   O3        1.0  0.7411138735321926  0.47926518167283666  0.0427372329909659  1.0000
  O   O4        1.0  0.7588712338438341  0.9792374240457848  0.45726347807732287  1.0000
  O   O5        1.0  0.36147743263039445  0.2226477433838525  0.9562128820673764  1.0000
  O   O6        1.0  0.1384809217310874  0.7226807559943678  0.5437839350177072  1.0000
  O   O7        1.0  0.6384761032149983  0.7773257585150334  0.04377987199482901  1.0000
  O   O8        1.0  0.8614760049146781  0.27730357084870144  0.4562206431604139  1.0000
  O   O9        1.0  0.1511567990896197  0.040263719077472615  0.05197274009591271  1.0000
  O   O10       1.0  0.3488292930637514  0.5402618251328662  0.4480252553994077  1.0000
  O   O11       1.0  0.8488596966336032  0.9597260207765855  0.9480221943103119  1.0000
  O   O12       1.0  0.6511772677331606  0.45973738671448683  0.55197785348237  1.0000
