data_image0
_chemical_formula_structural       Ag8H8C32Cl8O16
_chemical_formula_sum              "Ag8 H8 C32 Cl8 O16"
_cell_length_a       6.246321789002178
_cell_length_b       10.816054850789783
_cell_length_c       14.749721672518787
_cell_angle_alpha    92.98926905759569
_cell_angle_beta     89.99991599802472
_cell_angle_gamma    90.00000691858021

_space_group_name_H-M_alt    "P 1"
_space_group_IT_number       1

loop_
  _space_group_symop_operation_xyz
  'x, y, z'

loop_
  _atom_site_type_symbol
  _atom_site_label
  _atom_site_symmetry_multiplicity
  _atom_site_fract_x
  _atom_site_fract_y
  _atom_site_fract_z
  _atom_site_occupancy
  Ag  Ag1       1.0  0.0486724628378212  0.2992337480892573  0.5534690157605624  1.0000
  Ag  Ag2       1.0  0.5486693209580765  0.20076318128934634  0.44652114446844837  1.0000
  Ag  Ag3       1.0  0.9513317282707662  0.7007660604126329  0.44652973132380674  1.0000
  Ag  Ag4       1.0  0.45132846638222907  0.7992412343546034  0.553476383393196  1.0000
  Ag  Ag5       1.0  0.6683730698363562  0.4433530206728021  0.5834148938510565  1.0000
  Ag  Ag6       1.0  0.16836720325363078  0.05665327925130009  0.4165802110485969  1.0000
  Ag  Ag7       1.0  0.3316295203279225  0.5566495758728041  0.4165846140595733  1.0000
  Ag  Ag8       1.0  0.8316353869023416  0.9433512443849069  0.5834241002688784  1.0000
  H   H1        1.0  0.1915897039223325  0.8897126322030143  0.7244823682034252  1.0000
  H   H2        1.0  0.6915871676535233  0.6102908242700309  0.2755204155495789  1.0000
  H   H3        1.0  0.8084096843558088  0.11029182663778409  0.2755178730406555  1.0000
  H   H4        1.0  0.3084170234554123  0.38970805848358486  0.7244783040414615  1.0000
  H   H5        1.0  0.8230477860655727  0.1271170291932293  0.844444575506877  1.0000
  H   H6        1.0  0.32305375036111184  0.3729006225135834  0.1555629678586428  1.0000
  H   H7        1.0  0.17695000126050087  0.8728792275026791  0.15556355844665856  1.0000
  H   H8        1.0  0.6769424360347288  0.6270955153914171  0.8444377042922608  1.0000
  C   C1        1.0  0.42772209613815454  0.9094198300946562  0.830085503358859  1.0000
  C   C2        1.0  0.9277151071559049  0.5905826341555452  0.16990827918887413  1.0000
  C   C3        1.0  0.5722772921439019  0.09057997840648109  0.1699132437270876  1.0000
  C   C4        1.0  0.07227947830789111  0.4094124808085767  0.8300862603575466  1.0000
  C   C5        1.0  0.33149438280959503  0.9416662722155138  0.7494300122316133  1.0000
  C   C6        1.0  0.8314919605011895  0.5583380458078295  0.2505659235926245  1.0000
  C   C7        1.0  0.6685066064132387  0.0583372392789698  0.25056884482712855  1.0000
  C   C8        1.0  0.16850422590229644  0.4416607829487802  0.7494294042723337  1.0000
  C   C9        1.0  0.4126913420222494  0.0401316328549655  0.701715638800941  1.0000
  C   C10       1.0  0.9126949059518737  0.4598700932084013  0.2982778113378258  1.0000
  C   C11       1.0  0.5873112481412904  0.9598700487415142  0.2982845199620953  1.0000
  C   C12       1.0  0.08730288138800552  0.5401297152924868  0.7017209357486464  1.0000
  C   C13       1.0  0.5876886506062889  0.10972089086979511  0.7373072239294203  1.0000
  C   C14       1.0  0.08769426146716343  0.39027974291710865  0.26268234227747195  1.0000
  C   C15       1.0  0.4123155404950013  0.8902753010322044  0.2626968399475587  1.0000
  C   C16       1.0  0.9123019249355835  0.6097181708903746  0.7373136364399002  1.0000
  C   C17       1.0  0.6836217910637856  0.07681753646374288  0.8177920062688242  1.0000
  C   C18       1.0  0.18362763708199034  0.4231906305311029  0.18220382193581486  1.0000
  C   C19       1.0  0.31637919815168664  0.923176825539521  0.18221335931403354  1.0000
  C   C20       1.0  0.8163669483800149  0.5768063467287091  0.8177914509430122  1.0000
  C   C21       1.0  0.6083227076728761  0.9752835800477583  0.863106569855617  1.0000
  C   C22       1.0  0.10832255776733753  0.5247179448688116  0.13689282191577948  1.0000
  C   C23       1.0  0.39167668060510863  0.0247098130103822  0.13689605485146927  1.0000
  C   C24       1.0  0.8916720276949807  0.4752753401970651  0.8631030193354688  1.0000
  C   C25       1.0  0.3249870611874002  0.06914716128053301  0.6114867577892865  1.0000
  C   C26       1.0  0.8249775487294287  0.43085370877133755  0.38851282762346523  1.0000
  C   C27       1.0  0.6750219327412381  0.9308554784626749  0.3885154635022018  1.0000
  C   C28       1.0  0.17501703672358102  0.5691470470756245  0.6114873036488716  1.0000
  C   C29       1.0  0.6896190919666695  0.208413884119075  0.6830956303910796  1.0000
  C   C30       1.0  0.18960858554213192  0.29158692196093466  0.3169026873130106  1.0000
  C   C31       1.0  0.31038029630999386  0.7915887448234856  0.31690591255782147  1.0000
  C   C32       1.0  0.8103908027344602  0.7084101740902896  0.6831000473673967  1.0000
  Cl  Cl1       1.0  0.3261758849394171  0.7870350074098837  0.8866690066062404  1.0000
  Cl  Cl2       1.0  0.8261561881899413  0.7129637436571487  0.11332608941400217  1.0000
  Cl  Cl3       1.0  0.673812296746668  0.21296388614037198  0.11333039133580058  1.0000
  Cl  Cl4       1.0  0.17384960386870327  0.28702953061133474  0.8866690734878232  1.0000
  Cl  Cl5       1.0  0.74664878139086  0.929634321441647  0.95598679533078  1.0000
  Cl  Cl6       1.0  0.2466488977910046  0.5703784205484935  0.04401690550797349  1.0000
  Cl  Cl7       1.0  0.2533361984093219  0.07035720931853719  0.044015096048639187  1.0000
  Cl  Cl8       1.0  0.7533504904916769  0.4296140035647653  0.9559829783228152  1.0000
  O   O1        1.0  0.6452633226630695  0.3209242628755149  0.7007664148788206  1.0000
  O   O2        1.0  0.14526895639954066  0.17907636733534094  0.2992217567905654  1.0000
  O   O3        1.0  0.3547312627885051  0.6790774295188626  0.2992344222325869  1.0000
  O   O4        1.0  0.8547368356472235  0.8209225586151302  0.700779676182911  1.0000
  O   O5        1.0  0.8221644072190204  0.166740097812351  0.6224358244859828  1.0000
  O   O6        1.0  0.32215367963623726  0.3332626660489169  0.37756653115223315  1.0000
  O   O7        1.0  0.1778397838848704  0.8332606796344136  0.3775656634746837  1.0000
  O   O8        1.0  0.6778505114659411  0.6667455065848741  0.6224344984093264  1.0000
  O   O9        1.0  0.3477364528852008  0.17900239269526  0.5866417578699481  1.0000
  O   O10       1.0  0.8477189289851527  0.32099379094019287  0.4133536050503038  1.0000
  O   O11       1.0  0.6522693391583517  0.8209993320983244  0.4133611142749983  1.0000
  O   O12       1.0  0.1522820602336452  0.679006071556948  0.5866485337638279  1.0000
  O   O13       1.0  0.2377322903176307  0.9819139987378163  0.5606732400676435  1.0000
  O   O14       1.0  0.7377340949096621  0.5181023570614016  0.43932514983909227  1.0000
  O   O15       1.0  0.7622767036132532  0.0180941522984241  0.439326432800854  1.0000
  O   O16       1.0  0.26226529336959464  0.48190485742591693  0.5606738171934964  1.0000
