data_image0
_chemical_formula_structural       Zn2H12C8N2O14
_chemical_formula_sum              "Zn2 H12 C8 N2 O14"
_cell_length_a       7.110263514534693
_cell_length_b       7.176367284328597
_cell_length_c       8.1909333114146
_cell_angle_alpha    84.87835845629688
_cell_angle_beta     83.02459800179449
_cell_angle_gamma    62.170441763031725

_space_group_name_H-M_alt    "P 1"
_space_group_IT_number       1

loop_
  _space_group_symop_operation_xyz
  'x, y, z'

loop_
  _atom_site_type_symbol
  _atom_site_label
  _atom_site_symmetry_multiplicity
  _atom_site_fract_x
  _atom_site_fract_y
  _atom_site_fract_z
  _atom_site_occupancy
  Zn  Zn1       1.0  0.0  0.0  0.0  1.0000
  Zn  Zn2       1.0  0.5000004266969426  0.4999995694158841  0.5000003183566477  1.0000
  H   H1        1.0  0.2863768267890378  0.6065846703784886  0.08617060287915732  1.0000
  H   H2        1.0  0.7136232895225875  0.39341604523765733  0.9138299926522748  1.0000
  H   H3        1.0  0.42339009737585087  0.7222962885370804  0.010215991930714088  1.0000
  H   H4        1.0  0.5766100189357745  0.2777044270790724  0.9897846036007182  1.0000
  H   H5        1.0  0.3102876781760671  0.05699170185114609  0.8062430932728546  1.0000
  H   H6        1.0  0.6897124381355582  0.9430090137649997  0.1937575022585776  1.0000
  H   H7        1.0  0.2033979608507082  0.22370949362892384  0.9465346579763434  1.0000
  H   H8        1.0  0.7966000017424902  0.7762927982152804  0.05346604143363011  1.0000
  H   H9        1.0  0.38067207907379685  0.9074814402651797  0.3930561775090453  1.0000
  H   H10       1.0  0.6193280372378283  0.09251927535096627  0.6069444180223869  1.0000
  H   H11       1.0  0.3052543344578211  0.7936843937468792  0.2810472570122968  1.0000
  H   H12       1.0  0.6947472008290774  0.20631632816154877  0.7189519719171642  1.0000
  C   C1        1.0  0.13264552731263968  0.6905353788808386  0.7237700321662572  1.0000
  C   C2        1.0  0.8673545913380992  0.3094653424712632  0.2762293418236013  1.0000
  C   C3        1.0  0.05881383636044278  0.5906155654661731  0.6075639961224297  1.0000
  C   C4        1.0  0.9411862869685168  0.4093851673578328  0.3924329347842743  1.0000
  C   C5        1.0  0.8512537256233514  0.6111455298958006  0.6228130764158593  1.0000
  C   C6        1.0  0.14874713010964064  0.38885361467191604  0.37718633875585544  1.0000
  C   C7        1.0  0.6757030221308469  0.7362273608967199  0.753630344709393  1.0000
  C   C8        1.0  0.32429783360214515  0.2637717836709967  0.2463690704623218  1.0000
  N   N1        1.0  0.20273218164299314  0.47972467857128004  0.48660595184441047  1.0000
  N   N2        1.0  0.7972679393468524  0.5202760485167701  0.5133922006038674  1.0000
  O   O1        1.0  0.2903126270794586  0.744318869883699  0.08084747655225752  1.0000
  O   O2        1.0  0.7096874892321666  0.2556818457324468  0.9191531189791816  1.0000
  O   O3        1.0  0.9847988742614433  0.8313278010676797  0.8120259339359778  1.0000
  O   O4        1.0  0.015201981471555777  0.1686713435000371  0.18797348123572993  1.0000
  O   O5        1.0  0.1692213135581397  0.1540492325783873  0.8652330466936676  1.0000
  O   O6        1.0  0.8307788027534856  0.8459514830377656  0.13476754883777178  1.0000
  O   O7        1.0  0.3309828123908287  0.6258417703182815  0.7242600853916771  1.0000
  O   O8        1.0  0.6690166267060034  0.3741573736931016  0.275739474840428  1.0000
  O   O9        1.0  0.32588778633645177  0.8029176231916039  0.397596517815174  1.0000
  O   O10       1.0  0.67411374661134  0.19708309298087556  0.602403932655868  1.0000
  O   O11       1.0  0.6748437757555051  0.6508039623652664  0.8965251803585658  1.0000
  O   O12       1.0  0.32515634055612  0.3491967532508795  0.1034754151728734  1.0000
  O   O13       1.0  0.5375374816963825  0.9131977117661239  0.7030562733124058  1.0000
  O   O14       1.0  0.46246263695435635  0.08680300958598512  0.29694310067745283  1.0000
