data_image0
_chemical_formula_structural       K2V2H36C18N4O20
_chemical_formula_sum              "K2 V2 H36 C18 N4 O20"
_cell_length_a       6.559980776830653
_cell_length_b       9.901978149211269
_cell_length_c       13.125774650783987
_cell_angle_alpha    71.60512232889775
_cell_angle_beta     76.28788409367542
_cell_angle_gamma    72.20354260688735

_space_group_name_H-M_alt    "P 1"
_space_group_IT_number       1

loop_
  _space_group_symop_operation_xyz
  'x, y, z'

loop_
  _atom_site_type_symbol
  _atom_site_label
  _atom_site_symmetry_multiplicity
  _atom_site_fract_x
  _atom_site_fract_y
  _atom_site_fract_z
  _atom_site_occupancy
  K   K1        1.0  0.5803979371380806  0.8288390752634313  0.6311817362987568  1.0000
  K   K2        1.0  0.41960554612180084  0.1711601218102814  0.36881825120315886  1.0000
  V   V1        1.0  0.10444849609250183  0.19640540704270387  0.8040779631298918  1.0000
  V   V2        1.0  0.895553016161692  0.8035948690493695  0.19591971136132713  1.0000
  H   H1        1.0  0.24530408036702056  0.28008929817627853  0.04758387592173112  1.0000
  H   H2        1.0  0.754693943990702  0.7199076899970435  0.952416532607451  1.0000
  H   H3        1.0  0.13181692177897733  0.12766457424420707  0.07618118033552432  1.0000
  H   H4        1.0  0.8681826144924187  0.8723368001518066  0.9238164626835967  1.0000
  H   H5        1.0  0.5225558044686165  0.9774545601336013  0.8858113670138508  1.0000
  H   H6        1.0  0.47744605319599026  0.0225490212081425  0.1141862278433194  1.0000
  H   H7        1.0  0.3009810218927884  0.9533062498803272  0.9923868365971699  1.0000
  H   H8        1.0  0.6990236278703464  0.046694028166406595  0.007610465028733396  1.0000
  H   H9        1.0  0.6030706022464044  0.19956153769879847  0.8130425988953434  1.0000
  H   H10       1.0  0.39692968334564693  0.8004420555226657  0.18695670342022203  1.0000
  H   H11       1.0  0.5483085216849162  0.27978559908788  0.9225638390575455  1.0000
  H   H12       1.0  0.4516858944585565  0.7202168973715072  0.07743718740626099  1.0000
  H   H13       1.0  0.23887467235299914  0.47218661359372754  0.843158503704089  1.0000
  H   H14       1.0  0.7611189944698112  0.5278136640402095  0.15684086346328033  1.0000
  H   H15       1.0  0.488107632948676  0.47494579994786795  0.7548250431621355  1.0000
  H   H16       1.0  0.5118879447209322  0.5250577967701273  0.24517557896426478  1.0000
  H   H17       1.0  0.14676883923524306  0.5946870311563115  0.597235837053077  1.0000
  H   H18       1.0  0.8532311026054415  0.40531325038695337  0.4027627843836683  1.0000
  H   H19       1.0  0.014252650980587634  0.5735954861184069  0.7319252228578819  1.0000
  H   H20       1.0  0.9857457204465873  0.42640480087604965  0.2680743455243828  1.0000
  H   H21       1.0  0.5861301044122201  0.3653715322968551  0.6169459598421057  1.0000
  H   H22       1.0  0.41387215882168266  0.6346309561921399  0.38305261343268887  1.0000
  H   H23       1.0  0.3738155899808504  0.4021749206603785  0.5430811959778126  1.0000
  H   H24       1.0  0.6261835942439546  0.5978231742000658  0.4569195687268178  1.0000
  H   H25       1.0  7.104683066234015e-05  0.7881336530474525  0.42670010962076077  1.0000
  H   H26       1.0  0.9999344124120171  0.21186444572231974  0.5732999093532527  1.0000
  H   H27       1.0  0.0971225092595987  0.8649311810746808  0.48263395973019385  1.0000
  H   H28       1.0  0.9028857387635298  0.13506362725713925  0.5173672870382758  1.0000
  H   H29       1.0  0.703173450333331  0.5356982063875009  0.8662373000880805  1.0000
  H   H30       1.0  0.2968257355505202  0.4642998820444149  0.13376270410368818  1.0000
  H   H31       1.0  0.46857841881868734  0.6289832324188325  0.8909481850390507  1.0000
  H   H32       1.0  0.5314211726344595  0.37101376316034157  0.1090527975703424  1.0000
  H   H33       1.0  0.15374769455304  0.7471461050574247  0.8050558824202695  1.0000
  H   H34       1.0  0.846248292003949  0.2528563859507713  0.19494419709801036  1.0000
  H   H35       1.0  0.09956382775386875  0.9132652849577527  0.7485844639169699  1.0000
  H   H36       1.0  0.9004357051994346  0.08673610229531188  0.2514147001278815  1.0000
  C   C1        1.0  0.1686687839412144  0.22404553401077715  0.012273890172302506  1.0000
  C   C2        1.0  0.8313319706971003  0.7759525553984756  0.9877259275868085  1.0000
  C   C3        1.0  0.9518391243827934  0.32120605998612456  0.9845358856176744  1.0000
  C   C4        1.0  0.04816599774468952  0.6787887013913406  0.015460410426051391  1.0000
  C   C5        1.0  0.42753585070379774  0.013373056770397797  0.9577458903092476  1.0000
  C   C6        1.0  0.5724589224633831  0.9866326999389797  0.04224973293045051  1.0000
  C   C7        1.0  0.47350526365553963  0.2624028408958805  0.8627151119943902  1.0000
  C   C8        1.0  0.5264923484967101  0.737595265844284  0.1372873601686352  1.0000
  C   C9        1.0  0.3673383077350039  0.4100009888706282  0.7929299730956672  1.0000
  C   C10       1.0  0.6326584949377009  0.5899992971464981  0.20706978171925533  1.0000
  C   C11       1.0  0.09273386213361334  0.5133895253610347  0.6697919095055198  1.0000
  C   C12       1.0  0.9072625366288422  0.4866118470803113  0.33020610637891684  1.0000
  C   C13       1.0  0.9213464171532519  0.4583325979627232  0.6453088627075941  1.0000
  C   C14       1.0  0.0786519526148838  0.5416676954602692  0.35469146618753195  1.0000
  C   C15       1.0  0.46996331622223414  0.1798002835513799  0.6286871903679838  1.0000
  C   C16       1.0  0.5300386016012553  0.8201988996879448  0.3713114625408522  1.0000
  C   C17       1.0  0.4310261581587014  0.3410449130563434  0.6211069347411708  1.0000
  C   C18       1.0  0.5689773267602192  0.6589542775888403  0.37889229224787613  1.0000
  N   N1        1.0  0.3136732392242222  0.1715020443457504  0.9190133305679636  1.0000
  N   N2        1.0  0.6863262870929107  0.828499368621422  0.0809888755283623  1.0000
  N   N3        1.0  0.269402166912684  0.38834833233985216  0.7108994557714539  1.0000
  N   N4        1.0  0.7305977782460857  0.6116519363463622  0.2890976446395542  1.0000
  O   O1        1.0  0.9126075633624425  0.342383831185593  0.8872436023304784  1.0000
  O   O2        1.0  0.08738725835032572  0.6576175724210528  0.11275840255094492  1.0000
  O   O3        1.0  0.3583878452623281  0.1043256297103312  0.7100947421948403  1.0000
  O   O4        1.0  0.6416120932602708  0.8956746646899918  0.28990540026763506  1.0000
  O   O5        1.0  0.9395196275372653  0.31604179228437346  0.6820067500921495  1.0000
  O   O6        1.0  0.06047955502850043  0.6839563090045999  0.31799477512535657  1.0000
  O   O7        1.0  0.0023190945375191107  0.053634529388915594  0.854591089767453  1.0000
  O   O8        1.0  0.9976867101155803  0.9463668746305275  0.14540884957251168  1.0000
  O   O9        1.0  0.816553964498148  0.3740510518017998  0.05555433504376592  1.0000
  O   O10       1.0  0.183438477321566  0.6259525365330062  0.9444458994350812  1.0000
  O   O11       1.0  0.6023465032579552  0.1240028444015877  0.5584241662618084  1.0000
  O   O12       1.0  0.39765656447836756  0.8759974840960325  0.441579405899695  1.0000
  O   O13       1.0  0.772557862192606  0.5447814352320179  0.5963508979652943  1.0000
  O   O14       1.0  0.22744085132689665  0.4552221698691667  0.4036501118086591  1.0000
  O   O15       1.0  0.962526592247109  0.8405197218588536  0.48329300811349196  1.0000
  O   O16       1.0  0.03748165411697363  0.15947509290149495  0.5167089991678465  1.0000
  O   O17       1.0  0.6131924745986481  0.6371255689308059  0.8503552502996712  1.0000
  O   O18       1.0  0.38680828169871256  0.36287251404991844  0.1496438069465711  1.0000
  O   O19       1.0  0.14965896139724327  0.8171962127143855  0.732702781579647  1.0000
  O   O20       1.0  0.8503394083708856  0.18280408070859974  0.2672975473154864  1.0000
