data_image0
_chemical_formula_structural       Sm2Ag2H42C58S4N6O24
_chemical_formula_sum              "Sm2 Ag2 H42 C58 S4 N6 O24"
_cell_length_a       8.789898221695665
_cell_length_b       10.119774784463395
_cell_length_c       18.399
_cell_angle_alpha    92.25216166770052
_cell_angle_beta     99.65824540190714
_cell_angle_gamma    105.46534595378638

_space_group_name_H-M_alt    "P 1"
_space_group_IT_number       1

loop_
  _space_group_symop_operation_xyz
  'x, y, z'

loop_
  _atom_site_type_symbol
  _atom_site_label
  _atom_site_symmetry_multiplicity
  _atom_site_fract_x
  _atom_site_fract_y
  _atom_site_fract_z
  _atom_site_occupancy
  Sm  Sm1       1.0  0.1897918409575752  0.39156742221955193  0.023806372386808106  1.0000
  Sm  Sm2       1.0  0.8102064507958745  0.608434218622449  0.976194178371344  1.0000
  Ag  Ag1       1.0  0.2074462772945367  0.0416782720177622  0.42519124133028907  1.0000
  Ag  Ag2       1.0  0.7925539893198206  0.9583223395023664  0.5748089019581502  1.0000
  H   H1        1.0  0.4745720466524475  0.7198449303457011  0.4961968597786637  1.0000
  H   H2        1.0  0.525428553154569  0.2801567104962999  0.5038049629868553  1.0000
  H   H3        1.0  0.24428749052278684  0.6876745044821035  0.3891632203755934  1.0000
  H   H4        1.0  0.755712930540362  0.3123230190724016  0.61083741205551  1.0000
  H   H5        1.0  0.2618181892240372  0.8679077353738477  0.29747225118135395  1.0000
  H   H6        1.0  0.7381802569782111  0.1320908175025295  0.7025293322272574  1.0000
  H   H7        1.0  0.5037955263039606  0.06772423272847308  0.3159098284148669  1.0000
  H   H8        1.0  0.4962017658715041  0.9322743201479041  0.6840905754822587  1.0000
  H   H9        1.0  0.7477219434350673  0.1732184023174668  0.3139058597442599  1.0000
  H   H10       1.0  0.25227732360130517  0.8267791212370311  0.6860935931753573  1.0000
  H   H11       1.0  0.1869690537676973  0.3763015494998001  0.46384965197613337  1.0000
  H   H12       1.0  0.8130317004881179  0.6236970033765772  0.5361499423930454  1.0000
  H   H13       1.0  0.2954770524575068  0.4127673355454178  0.5755506926475888  1.0000
  H   H14       1.0  0.7045243681836268  0.5872332759747039  0.4244479126133457  1.0000
  H   H15       1.0  0.4398056704801121  0.4149464099536003  0.7025959966521782  1.0000
  H   H16       1.0  0.5601980582145886  0.5850542015665283  0.2974022500927163  1.0000
  H   H17       1.0  0.32946256068223784  0.2273874952814978  0.7822818119197238  1.0000
  H   H18       1.0  0.6705452964781387  0.7726151748823753  0.21771844074356747  1.0000
  H   H19       1.0  0.0721134990704968  0.047870672414362  0.7280706756177722  1.0000
  H   H20       1.0  0.9278920500363129  0.952131997749511  0.271932109592754  1.0000
  H   H21       1.0  0.3123875102879268  0.5152013312017232  0.22590907295730742  1.0000
  H   H22       1.0  0.6876127563264236  0.4847992803184056  0.7740905268233365  1.0000
  H   H23       1.0  0.8421860455180266  0.5755864989654711  0.20730603454244803  1.0000
  H   H24       1.0  0.1578120674915624  0.424411024589034  0.7926933258812809  1.0000
  H   H25       1.0  0.7870637999215405  0.42079295820039414  0.3069627099467027  1.0000
  H   H26       1.0  0.2129384415537174  0.5792066239978553  0.6930375693798326  1.0000
  H   H27       1.0  0.5138620065281004  0.1726697737583933  0.8821139639858018  1.0000
  H   H28       1.0  0.48614090133247606  0.8273318670836075  0.11788641324808681  1.0000
  H   H29       1.0  0.5889208489333555  0.9735758603596237  0.8327963086044363  1.0000
  H   H30       1.0  0.4110779304615519  0.0264237218386256  0.16720423674224352  1.0000
  H   H31       1.0  0.4460776428862446  0.7351488879748018  0.8571673307927341  1.0000
  H   H32       1.0  0.5539199824818866  0.2648506942234476  0.14283203504246703  1.0000
  H   H33       1.0  0.13813493910969046  0.9012721746117904  0.9719036868470925  1.0000
  H   H34       1.0  0.8618659938899853  0.0987304955520827  0.028095467333102416  1.0000
  H   H35       1.0  0.2955288056574332  0.283685225881861  0.18262894083450482  1.0000
  H   H36       1.0  0.7044699737374744  0.7163143563163884  0.8173705174965777  1.0000
  H   H37       1.0  0.1950393139614377  0.165665238402859  0.11840396810936941  1.0000
  H   H38       1.0  0.8049594654334697  0.8343343437953905  0.8815960337295151  1.0000
  H   H39       1.0  0.5108413532197461  0.5826188260116111  0.08299470923123661  1.0000
  H   H40       1.0  0.4891566053410443  0.41738178550851757  0.91700524906544  1.0000
  H   H41       1.0  0.544289586815772  0.44041389177088053  0.07664292016352191  1.0000
  H   H42       1.0  0.4557091925791355  0.5595856904273759  0.9233576251831652  1.0000
  C   C1        1.0  0.4757976449794725  0.7937780326207644  0.4544825949586128  1.0000
  C   C2        1.0  0.5242016220568999  0.2062194909337407  0.5455184884844045  1.0000
  C   C3        1.0  0.3486669887836911  0.7768806847300309  0.3952908954918329  1.0000
  C   C4        1.0  0.6513322782526815  0.22311683882446687  0.6047101879511845  1.0000
  C   C5        1.0  0.35746385054120117  0.8772230983374811  0.3449912605004428  1.0000
  C   C6        1.0  0.6425360828804899  0.1227764838607683  0.6550099208499207  1.0000
  C   C7        1.0  0.4956620578318223  0.9880265101548175  0.3543669894383044  1.0000
  C   C8        1.0  0.504337209204543  0.0119710133996804  0.6456335504969105  1.0000
  C   C9        1.0  0.6207865593621095  0.9961344785597461  0.41406937784272213  1.0000
  C   C10       1.0  0.3792135285083802  0.0038620156728796998  0.5859306621268987  1.0000
  C   C11       1.0  0.7740617999029525  0.1083917106655363  0.4253658692309231  1.0000
  C   C12       1.0  0.22593910880166132  0.8916037542452173  0.5746336707731103  1.0000
  C   C13       1.0  0.8222380023597324  0.18917392069308647  0.3688612002189728  1.0000
  C   C14       1.0  0.17776372717899852  0.8108205148957878  0.6311378398194663  1.0000
  C   C15       1.0  0.9717555051485364  0.288421135826141  0.3825108984197599  1.0000
  C   C16       1.0  0.028244915914612537  0.711576387728364  0.6174881034879436  1.0000
  C   C17       1.0  0.0686625116364041  0.30252078686215356  0.4528345557283586  1.0000
  C   C18       1.0  0.9313344473464014  0.6974767366923444  0.5471652557072986  1.0000
  C   C19       1.0  0.011584167485402511  0.2193001133140626  0.507170213794879  1.0000
  C   C20       1.0  0.9884142787168456  0.7806984395623147  0.4928302825981279  1.0000
  C   C21       1.0  0.10544316803196813  0.2279124494374614  0.5837688278809878  1.0000
  C   C22       1.0  0.894558585801825  0.7720891914045396  0.4162325438726171  1.0000
  C   C23       1.0  0.24770928175934873  0.3323484761395434  0.6099893150391794  1.0000
  C   C24       1.0  0.7522916512403272  0.6676541940243368  0.390010926156613  1.0000
  C   C25       1.0  0.3305565746342012  0.3328003484424187  0.6815928682654829  1.0000
  C   C26       1.0  0.6694474872531586  0.6672012923995821  0.3184065144486894  1.0000
  C   C27       1.0  0.2693813093577829  0.23013166739874438  0.7257695062150803  1.0000
  C   C28       1.0  0.7306239065563603  0.7698699734432565  0.2742299689949732  1.0000
  C   C29       1.0  0.1264501688901234  0.1303471462472388  0.6959759505067922  1.0000
  C   C30       1.0  0.8735535598045773  0.8696534652728899  0.30402447026929746  1.0000
  C   C31       1.0  0.018189200706700607  0.37958508627924903  0.3239875856661669  1.0000
  C   C32       1.0  0.9818133739612165  0.6204155252408725  0.6760127426140415  1.0000
  C   C33       1.0  0.16683699136235222  0.4063515723020643  0.2995495162111226  1.0000
  C   C34       1.0  0.8331640960861223  0.5936480098961852  0.7004501271117363  1.0000
  C   C35       1.0  0.19944585287261427  0.4979838642080452  0.24585521081899492  1.0000
  C   C36       1.0  0.8005529265223005  0.5020157179902043  0.7541442475120874  1.0000
  C   C37       1.0  0.0838038847345359  0.5601044686520851  0.21376206402965894  1.0000
  C   C38       1.0  0.9161925866068117  0.4398951135461644  0.7862377528174634  1.0000
  C   C39       1.0  0.9341086030014766  0.5311537616117192  0.23467258579191966  1.0000
  C   C40       1.0  0.06589050958609732  0.4688468499084024  0.7653285520162428  1.0000
  C   C41       1.0  0.9035102313201834  0.44255591059157945  0.28983825331058455  1.0000
  C   C42       1.0  0.09649052293563193  0.5574426422847978  0.7101624280741918  1.0000
  C   C43       1.0  0.2713548534203341  0.1663240044024974  0.9594466194635133  1.0000
  C   C44       1.0  0.7286437715257749  0.8336786657613757  0.04055289323271442  1.0000
  C   C45       1.0  0.3180864429550354  0.04837401081096  0.9282828615646892  1.0000
  C   C46       1.0  0.6819141568519812  0.9516276300310409  0.07171678716963469  1.0000
  C   C47       1.0  0.44597093015707395  0.0687195869810466  0.8897563679429938  1.0000
  C   C48       1.0  0.5540308236767189  0.9312820538609543  0.11024391679500668  1.0000
  C   C49       1.0  0.4894509010567632  0.95575109346003  0.8628188138284048  1.0000
  C   C50       1.0  0.510549365557587  0.0442495180600986  0.13718078595223912  1.0000
  C   C51       1.0  0.4099128094533242  0.8231250285827869  0.8767920174242931  1.0000
  C   C52       1.0  0.5900866363269088  0.176876612259214  0.1232075388141425  1.0000
  C   C53       1.0  0.2834334878207372  0.8027959215626908  0.9164304591463266  1.0000
  C   C54       1.0  0.7165651371253788  0.1972067486011824  0.0835690535499012  1.0000
  C   C55       1.0  0.2354800044979442  0.9151886063541568  0.9407198240765952  1.0000
  C   C56       1.0  0.7645197744749481  0.0848140638097163  0.059279781115520805  1.0000
  C   C57       1.0  0.2077301180543358  0.6650036901976648  0.9391253614500102  1.0000
  C   C58       1.0  0.7922688400844394  0.3350000092880876  0.06087528721548812  1.0000
  S   S1        1.0  0.31158986749561995  0.3116941034071203  0.3264608726630912  1.0000
  S   S2        1.0  0.6884112199528545  0.6883054787911291  0.6735387706597606  1.0000
  S   S3        1.0  0.13025541486791073  0.671231087537997  0.14290737970030423  1.0000
  S   S4        1.0  0.869743697719656  0.3287695239821318  0.8570921275844583  1.0000
  N   N1        1.0  0.6080474586564294  0.9007544257089464  0.4638450637714443  1.0000
  N   N2        1.0  0.3919526292140603  0.0992420685236794  0.5361555197059786  1.0000
  N   N3        1.0  0.8671697265425777  0.1263523480525564  0.4925014717383149  1.0000
  N   N4        1.0  0.13282936174992702  0.8736410582144528  0.5074984213702862  1.0000
  N   N5        1.0  0.047376184410005406  0.1286642049825346  0.6269347586147875  1.0000
  N   N6        1.0  0.952624082204352  0.8713364065375869  0.3730659281814539  1.0000
  O   O1        1.0  0.40280968874758116  0.3695656671534948  0.3999504882626256  1.0000
  O   O2        1.0  0.5971902446741097  0.6304339150447547  0.6000490625643382  1.0000
  O   O3        1.0  0.2118081924648365  0.1677321167267252  0.32322166786184436  1.0000
  O   O4        1.0  0.788192894983638  0.8322674654715242  0.6767779754610077  1.0000
  O   O5        1.0  0.41179624410619914  0.3297617902690817  0.26854460196199886  1.0000
  O   O6        1.0  0.5882036893154989  0.6702377919291678  0.731454948864972  1.0000
  O   O7        1.0  0.22168239269351633  0.8061854784952089  0.1784063406239511  1.0000
  O   O8        1.0  0.7783170530867166  0.193816162346792  0.8215943026300823  1.0000
  O   O9        1.0  0.22543482404512363  0.6055366775459134  0.10147005368068562  1.0000
  O   O10       1.0  0.7745628013230004  0.394462904652336  0.8985298556623179  1.0000
  O   O11       1.0  0.9740334044689618  0.6702820527697639  0.09845841776976273  1.0000
  O   O12       1.0  0.0259648872844878  0.3297195880722299  0.901541589480587  1.0000
  O   O13       1.0  0.158192192224142  0.1442882817145872  0.9965223814555061  1.0000
  O   O14       1.0  0.8418080743902154  0.8557123298055344  0.0034772183251377225  1.0000
  O   O15       1.0  0.3466803223839321  0.2902677392688773  0.9499760997719591  1.0000
  O   O16       1.0  0.6533148404818334  0.7097349308949958  0.050022048421020315  1.0000
  O   O17       1.0  0.2909579840126  0.5790831053729235  0.9492963615932625  1.0000
  O   O18       1.0  0.7090409741261753  0.4209205941128218  0.05070483058003819  1.0000
  O   O19       1.0  0.06517796977005469  0.6375743208877082  0.9515331882884652  1.0000
  O   O20       1.0  0.9348206551760612  0.3624283492761649  0.048465780899960016  1.0000
  O   O21       1.0  0.2210345848737063  0.26354757273040963  0.1336977888899398  1.0000
  O   O22       1.0  0.7789641945212011  0.7364520094678397  0.866302212948945  1.0000
  O   O23       1.0  0.4626289461178459  0.48469428948720855  0.0899352396859783  1.0000
  O   O24       1.0  0.537370166469728  0.515306322032913  0.9100648111065796  1.0000
