data_image0
_chemical_formula_structural       Cu2H24C20Cl4O12
_chemical_formula_sum              "Cu2 H24 C20 Cl4 O12"
_cell_length_a       7.6988558674484455
_cell_length_b       9.517083723259871
_cell_length_c       10.117176028108545
_cell_angle_alpha    107.14902012349536
_cell_angle_beta     89.94767986512223
_cell_angle_gamma    113.90900641541704

_space_group_name_H-M_alt    "P 1"
_space_group_IT_number       1

loop_
  _space_group_symop_operation_xyz
  'x, y, z'

loop_
  _atom_site_type_symbol
  _atom_site_label
  _atom_site_symmetry_multiplicity
  _atom_site_fract_x
  _atom_site_fract_y
  _atom_site_fract_z
  _atom_site_occupancy
  Cu  Cu1       1.0  0.0520010284763259  0.0002267538864372995  0.7503513537702347  1.0000
  Cu  Cu2       1.0  0.9479758169922547  0.9997684651576365  0.2496516335891955  1.0000
  H   H1        1.0  0.17948790199838532  0.19048228287863372  0.567235549204014  1.0000
  H   H2        1.0  0.9890753775512736  0.8094188875655063  0.9326156759446816  1.0000
  H   H3        1.0  0.8204907477121778  0.8094983700779537  0.4327634778064323  1.0000
  H   H4        1.0  0.010929123183927884  0.1905822573638716  0.06737013244907082  1.0000
  H   H5        1.0  0.09561657351766677  0.3909971366329258  0.8048118052460964  1.0000
  H   H6        1.0  0.7052207677687435  0.608393027481064  0.6949314803407561  1.0000
  H   H7        1.0  0.9044032201771586  0.6090138194656162  0.19518852626955407  1.0000
  H   H8        1.0  0.29478877677307486  0.3915948459192933  0.305060602901861  1.0000
  H   H9        1.0  0.9245215328413181  0.27058970302337565  0.6522102375859333  1.0000
  H   H10       1.0  0.6536185752628186  0.7282323136876555  0.8474653044145057  1.0000
  H   H11       1.0  0.07548303352344012  0.7294297618212724  0.347794389126804  1.0000
  H   H12       1.0  0.34638226722350407  0.2717615149870483  0.15251456259154852  1.0000
  H   H13       1.0  0.11189693077086095  0.5574165646372718  0.6507929797945878  1.0000
  H   H14       1.0  0.5552692376500871  0.4418427434222991  0.849103180797485  1.0000
  H   H15       1.0  0.8881424937736213  0.4425894857662414  0.3491990922807346  1.0000
  H   H16       1.0  0.44475969715804103  0.5581683269483051  0.15091101678266483  1.0000
  H   H17       1.0  0.14429123421384557  0.41319724808349173  0.5079256849484536  1.0000
  H   H18       1.0  0.7318352881439268  0.5863383730651179  0.991823262574215  1.0000
  H   H19       1.0  0.8557344259604279  0.5867942795887017  0.49206837457197855  1.0000
  H   H20       1.0  0.2681935364194743  0.4136932296384116  0.008183666954018091  1.0000
  H   H21       1.0  0.3272396784787901  0.5292868551788174  0.653988082260952  1.0000
  H   H22       1.0  0.7989883390740288  0.47056396379907267  0.8456495680184802  1.0000
  H   H23       1.0  0.6727875435443239  0.47069741356199307  0.34600696873086184  1.0000
  H   H24       1.0  0.20104284014720966  0.5294567784200125  0.15436231583903753  1.0000
  C   C1        1.0  0.4236640176267913  0.0613241636832242  0.8233936785587446  1.0000
  C   C2        1.0  0.36277860309083815  0.9395118844884465  0.6772803988630258  1.0000
  C   C3        1.0  0.5763091374467777  0.9386844548649761  0.17661888330702874  1.0000
  C   C4        1.0  0.6372092187101828  0.06048449578548799  0.32271598130835605  1.0000
  C   C5        1.0  0.6109660325775864  0.1203693969835129  0.8901030146114763  1.0000
  C   C6        1.0  0.4909492347723159  0.880354517605376  0.6105375146762597  1.0000
  C   C7        1.0  0.38901248042  0.8796343516252989  0.10990624465537732  1.0000
  C   C8        1.0  0.5090296149984965  0.1196395200287768  0.3894691045888337  1.0000
  C   C9        1.0  0.7378409323624452  0.0608262652632803  0.823182564417799  1.0000
  C   C10       1.0  0.677375731401277  0.9398305867978892  0.6773840423812132  1.0000
  C   C11       1.0  0.26214908589656727  0.9391641339386609  0.17682306190278754  1.0000
  C   C12       1.0  0.32261515818216674  0.060171935546812  0.3226229023825482  1.0000
  C   C13       1.0  0.07921625115761798  0.337432465081612  0.690828021721309  1.0000
  C   C14       1.0  0.7420505378663832  0.6619793211614391  0.8089081635914256  1.0000
  C   C15       1.0  0.9207909828690576  0.6625663724786648  0.30917198507452787  1.0000
  C   C16       1.0  0.257958561939759  0.3380206351319756  0.1910802854089724  1.0000
  C   C17       1.0  0.17135249376313763  0.46686264413833095  0.6221506289951861  1.0000
  C   C18       1.0  0.7052671633501433  0.5326694934693279  0.8775991783053386  1.0000
  C   C19       1.0  0.8286691883669804  0.5331313181290582  0.3778450821710423  1.0000
  C   C20       1.0  0.2947595783955848  0.4673475659483088  0.12240676373195213  1.0000
  Cl  Cl1       1.0  0.6810085604235853  0.2589044030470901  0.054983441384905477  1.0000
  Cl  Cl2       1.0  0.42227587153346496  0.7415495571056355  0.44575785579314003  1.0000
  Cl  Cl3       1.0  0.3189784104265599  0.7410799019343131  0.9450175639813737  1.0000
  Cl  Cl4       1.0  0.5776963510950283  0.25844679474912613  0.55423555671522  1.0000
  O   O1        1.0  0.2950367885098543  0.10239295324058867  0.8781026556936381  1.0000
  O   O2        1.0  0.19314682859035776  0.8985358255367901  0.6225828842478975  1.0000
  O   O3        1.0  0.7049502004315613  0.8976095600055628  0.12190329950278311  1.0000
  O   O4        1.0  0.8068327811468379  0.1014726991834891  0.377417788610046  1.0000
  O   O5        1.0  0.9090395713167895  0.1019896618836498  0.877623060735509  1.0000
  O   O6        1.0  0.8073140757763679  0.8984543713197508  0.6229567632028719  1.0000
  O   O7        1.0  0.09092592258129165  0.8979958507902595  0.12237828034552221  1.0000
  O   O8        1.0  0.1926589464523047  0.1015383949320281  0.3770425933760819  1.0000
  O   O9        1.0  0.16764071852846746  0.22622376209870507  0.6671943986927928  1.0000
  O   O10       1.0  0.9415756351367649  0.7739075491542167  0.8326924169445108  1.0000
  O   O11       1.0  0.8323470179659367  0.7737568775293369  0.33280264468062637  1.0000
  O   O12       1.0  0.05842810674536028  0.22609727707858696  0.1672993346547997  1.0000
