data_image0
_chemical_formula_structural       Zn2H26C46N2O12
_chemical_formula_sum              "Zn2 H26 C46 N2 O12"
_cell_length_a       16.53009575051897
_cell_length_b       17.383432073346842
_cell_length_c       17.788396586037866
_cell_angle_alpha    88.63033368814897
_cell_angle_beta     91.12231420530739
_cell_angle_gamma    80.42171218240588

_space_group_name_H-M_alt    "P 1"
_space_group_IT_number       1

loop_
  _space_group_symop_operation_xyz
  'x, y, z'

loop_
  _atom_site_type_symbol
  _atom_site_label
  _atom_site_symmetry_multiplicity
  _atom_site_fract_x
  _atom_site_fract_y
  _atom_site_fract_z
  _atom_site_occupancy
  Zn  Zn1       1.0  0.5871170530356692  0.49272942577744777  0.5015947335907001  1.0000
  Zn  Zn2       1.0  0.41525088592418047  0.5004825189419864  0.49812511140140703  1.0000
  H   H1        1.0  0.8818044088381072  0.39692599898155834  0.4288867340773166  1.0000
  H   H2        1.0  0.12046244159243  0.5936382496452737  0.5711898251673091  1.0000
  H   H3        1.0  0.7293095356933534  0.40056623287044607  0.434588925050747  1.0000
  H   H4        1.0  0.2731750737561285  0.5896235662718398  0.5669564071642412  1.0000
  H   H5        1.0  0.6981541507437328  0.5996980202958682  0.5605415635858648  1.0000
  H   H6        1.0  0.3038191080762331  0.39628870218100337  0.4331128319460902  1.0000
  H   H7        1.0  0.849262260024041  0.6042883299945248  0.5625171178935348  1.0000
  H   H8        1.0  0.15259558844655877  0.392368853923209  0.4294039240454524  1.0000
  H   H9        1.0  0.36099122155413005  0.7494982689932286  0.5761142244306471  1.0000
  H   H10       1.0  0.6549607810478973  0.23032460546071587  0.48190745264344065  1.0000
  H   H11       1.0  0.4204116984815088  0.006723533540686304  0.5802542947154166  1.0000
  H   H12       1.0  0.5967426850632335  0.9801514741389785  0.5220140267795941  1.0000
  H   H13       1.0  0.6577830675865712  0.08658842730889663  0.494264238286533  1.0000
  H   H14       1.0  0.36582631208768385  0.8886711996376635  0.6039861793663093  1.0000
  H   H15       1.0  0.5823807376034863  0.8773967407538665  0.4702238918377973  1.0000
  H   H16       1.0  0.4259662999899946  0.12889488253259174  0.6064170758453855  1.0000
  H   H17       1.0  0.6253228872064511  0.5315558162568623  0.8797519023970253  1.0000
  H   H18       1.0  0.36329941116243  0.5436073356727109  0.11971566284106672  1.0000
  H   H19       1.0  0.6273980729900259  0.510481869949423  0.7408825239935695  1.0000
  H   H20       1.0  0.36792382770931187  0.5220815944799214  0.2595708976447497  1.0000
  H   H21       1.0  0.3646793798461445  0.5380240664555346  0.7332298210199255  1.0000
  H   H22       1.0  0.6281354175101228  0.5181991210199045  0.26352333020366814  1.0000
  H   H23       1.0  0.3610430808110578  0.5586199930935721  0.8720124142990926  1.0000
  H   H24       1.0  0.6247078472005967  0.5412426106924785  0.12387029862236432  1.0000
  H   H25       1.0  0.39117284324792934  0.3673537026999514  0.6755354885868244  1.0000
  H   H26       1.0  0.6006511047208748  0.6752678774025613  0.33691502820082775  1.0000
  C   C1        1.0  0.500853547999604  0.5041549943928559  0.353108417298472  1.0000
  C   C2        1.0  0.498042236839396  0.5072200436289478  0.6466781784995989  1.0000
  C   C3        1.0  0.5683581741438458  0.5331272398560004  0.847404566863581  1.0000
  C   C4        1.0  0.4211149794978794  0.5384615716875204  0.1514824595491717  1.0000
  C   C5        1.0  0.5696584036001083  0.5213526768560401  0.7704794841044419  1.0000
  C   C6        1.0  0.42361121911897476  0.5262257935074642  0.229001036035136  1.0000
  C   C7        1.0  0.4963282772704432  0.5219890447703225  0.7292561138193889  1.0000
  C   C8        1.0  0.49827460984597843  0.5183393751949978  0.26961196018483957  1.0000
  C   C9        1.0  0.421266056947644  0.5364961235874617  0.7661720888038276  1.0000
  C   C10       1.0  0.5705039006517579  0.5243761740549149  0.23128700537173333  1.0000
  C   C11       1.0  0.419265410593404  0.5482315659808565  0.8431079757254452  1.0000
  C   C12       1.0  0.5686295650179218  0.5369693321735056  0.1538212153275254  1.0000
  C   C13       1.0  0.49309174681266643  0.5455369952939366  0.8852530483945387  1.0000
  C   C14       1.0  0.49384732911189383  0.5432437197443533  0.1124513597389338  1.0000
  C   C15       1.0  0.49213776125748865  0.5513419121937345  0.9643841223702552  1.0000
  C   C16       1.0  0.49247268077487405  0.5505657098254915  0.0330757081892301  1.0000
  C   C17       1.0  0.8433009523186783  0.44235849310871367  0.4591168524628415  1.0000
  C   C18       1.0  0.15894389283491256  0.5493920451002695  0.5395833496568514  1.0000
  C   C19       1.0  0.7592939128758829  0.4441093923953759  0.4619408532939744  1.0000
  C   C20       1.0  0.24302675028869192  0.54739639632394  0.537697198863178  1.0000
  C   C21       1.0  0.74167969686809  0.5556021854508232  0.533318618708151  1.0000
  C   C22       1.0  0.26042982879725673  0.4391484373178828  0.46199884760982  1.0000
  C   C23       1.0  0.5317797091432156  0.34478044587792317  0.5160221890018875  1.0000
  C   C24       1.0  0.4716254395943765  0.6498872697913781  0.500801201274399  1.0000
  C   C25       1.0  0.8252063042178152  0.5579934217035643  0.5338536872290902  1.0000
  C   C26       1.0  0.1768291040716505  0.4370980119269633  0.46039588648998375  1.0000
  C   C27       1.0  0.8781385830887417  0.4998792243674614  0.4966949375438078  1.0000
  C   C28       1.0  0.12394985598003666  0.4936705061595534  0.499451097460053  1.0000
  C   C29       1.0  0.9639111358818795  0.4984131913192302  0.4973029011907144  1.0000
  C   C30       1.0  0.03813219427906489  0.49535505496565696  0.4983129621434585  1.0000
  C   C31       1.0  0.5390154491942027  0.259507275722335  0.5349555810502551  1.0000
  C   C32       1.0  0.468270520432199  0.7358638225457813  0.5087006700554895  1.0000
  C   C33       1.0  0.47572677047516265  0.22991175619885246  0.5724717519968152  1.0000
  C   C34       1.0  0.5305607751816409  0.7730543393354878  0.4786465225056062  1.0000
  C   C35       1.0  0.4764846233169422  0.14984457530576384  0.5782819960815928  1.0000
  C   C36       1.0  0.534125076262761  0.8501436622804591  0.49518855897864  1.0000
  C   C37       1.0  0.5406504708361767  0.09669444484372042  0.5480365161159498  1.0000
  C   C38       1.0  0.47552893330255586  0.8933330252690512  0.5411502284251527  1.0000
  C   C39       1.0  0.6065511314225063  0.12703608531590765  0.5161696564586009  1.0000
  C   C40       1.0  0.4122706855169654  0.8561241401410132  0.56884727569296  1.0000
  C   C41       1.0  0.6054334552478053  0.20703954050765824  0.5092743171156613  1.0000
  C   C42       1.0  0.4089399603840531  0.7786135997048476  0.5530714295087122  1.0000
  C   C43       1.0  0.5401928839940099  0.013286480020340703  0.5434719396134968  1.0000
  C   C44       1.0  0.47691658487018873  0.9749853120757169  0.5573528717727925  1.0000
  C   C45       1.0  0.40731853663076123  0.28334349588714514  0.6079455603905262  1.0000
  C   C46       1.0  0.5929627335285018  0.7322445614879101  0.4268352442720555  1.0000
  N   N1        1.0  0.7095798690718168  0.49914705592552644  0.49888127209784733  1.0000
  N   N2        1.0  0.2927450858892583  0.4937497984513828  0.4992080715027853  1.0000
  O   O1        1.0  0.5710285831309958  0.49505747076862155  0.3861637750517559  1.0000
  O   O2        1.0  0.42907039255540264  0.5061138290575187  0.6134710758537949  1.0000
  O   O3        1.0  0.43256410914911203  0.5026971429152953  0.3848679745121331  1.0000
  O   O4        1.0  0.5677323656407864  0.4970189227888967  0.6158880861337934  1.0000
  O   O5        1.0  0.5974639844501437  0.37299427410622604  0.5080891329478732  1.0000
  O   O6        1.0  0.40511205061877575  0.6224270353882276  0.49899641250218707  1.0000
  O   O7        1.0  0.4588794446356204  0.3819144594805764  0.5071583372872226  1.0000
  O   O8        1.0  0.5440322378895103  0.610845877854132  0.4993641140057433  1.0000
  O   O9        1.0  0.33416514291256755  0.28388069263758103  0.5960241914673361  1.0000
  O   O10       1.0  0.4371889052446676  0.3287979426639894  0.6592138202977297  1.0000
  O   O11       1.0  0.6672383773879745  0.7276714648114222  0.435040111185522  1.0000
  O   O12       1.0  0.5568026824428784  0.7046611712739976  0.3661195574300892  1.0000
