data_image0
_chemical_formula_structural       Cu12H136C160N24O32
_chemical_formula_sum              "Cu12 H136 C160 N24 O32"
_cell_length_a       8.999137833043285
_cell_length_b       22.560326127052345
_cell_length_c       23.16145441708628
_cell_angle_alpha    89.99986588889334
_cell_angle_beta     90.00028498484821
_cell_angle_gamma    89.99979184008623

_space_group_name_H-M_alt    "P 1"
_space_group_IT_number       1

loop_
  _space_group_symop_operation_xyz
  'x, y, z'

loop_
  _atom_site_type_symbol
  _atom_site_label
  _atom_site_symmetry_multiplicity
  _atom_site_fract_x
  _atom_site_fract_y
  _atom_site_fract_z
  _atom_site_occupancy
  Cu  Cu1       1.0  0.3973579547066351  0.03268078015225481  0.5313426302060267  1.0000
  Cu  Cu2       1.0  0.10265120047677811  0.9673187941444396  0.03134547577717231  1.0000
  Cu  Cu3       1.0  0.602642732445041  0.5326819002090062  0.46865751014942003  1.0000
  Cu  Cu4       1.0  0.8973488770757712  0.4673229866023973  0.9686519478329461  1.0000
  Cu  Cu5       1.0  0.6026596514977811  0.9673210071374215  0.46865269777953245  1.0000
  Cu  Cu6       1.0  0.8973430701887964  0.03268122013403742  0.968653306202178  1.0000
  Cu  Cu7       1.0  0.3973426484893139  0.4673287522091131  0.5313503385972781  1.0000
  Cu  Cu8       1.0  0.10265428330471593  0.5326814602306912  0.0313459706463917  1.0000
  Cu  Cu9       1.0  0.258618093519658  0.25000088332573267  0.526748408212768  1.0000
  Cu  Cu10      1.0  0.2413598892832383  0.7499991453013453  0.026752882603950902  1.0000
  Cu  Cu11      1.0  0.7413750659480914  0.7499978011829426  0.47325253252608956  1.0000
  Cu  Cu12      1.0  0.7586243804522328  0.24999953921224013  0.9732493533816893  1.0000
  H   H1        1.0  0.6001258880863176  0.15390290626530861  0.3829806768938441  1.0000
  H   H2        1.0  0.5593897860371656  0.9647925290984817  0.6160095531965909  1.0000
  H   H3        1.0  0.6686541128302468  0.9848044546486677  0.7132837527594874  1.0000
  H   H4        1.0  0.5487361790862978  0.16897061865986981  0.6901931823918304  1.0000
  H   H5        1.0  0.4469826153362677  0.1419091419712615  0.5947418543427007  1.0000
  H   H6        1.0  0.7008525483216135  0.13814549544174787  0.7762773380464552  1.0000
  H   H7        1.0  0.7683938298072094  0.06461192852655273  0.7815267261826336  1.0000
  H   H8        1.0  0.44701635670649165  0.10328843536375841  0.8060818216478511  1.0000
  H   H9        1.0  0.5093748883268676  0.0293661429455483  0.8061424118529388  1.0000
  H   H10       1.0  0.6129315534997347  0.1278109102513696  0.8888474832799675  1.0000
  H   H11       1.0  0.6972677033379784  0.05737791820510551  0.8846700151118514  1.0000
  H   H12       1.0  0.1999532657086078  0.09042140522965521  0.0120753267392715  1.0000
  H   H13       1.0  0.3905528107104886  0.13872928040174773  0.949941431265728  1.0000
  H   H14       1.0  0.531991174602517  0.9639566725525841  0.897730609482018  1.0000
  H   H15       1.0  0.33593076744909217  0.9226080444968547  0.9622622505887932  1.0000
  H   H16       1.0  0.8998779689293599  0.846095094574359  0.882979006238941  1.0000
  H   H17       1.0  0.9406095721277268  0.0352074438376135  0.11601258968066473  1.0000
  H   H18       1.0  0.8313475908922572  0.015194397732301503  0.2132870535546871  1.0000
  H   H19       1.0  0.9512618979602296  0.8310296190505045  0.1901939956898602  1.0000
  H   H20       1.0  0.053017343359457014  0.8580911663084195  0.09474269312897123  1.0000
  H   H21       1.0  0.7991477322979322  0.8618545351464209  0.2762803751087262  1.0000
  H   H22       1.0  0.7316065174033924  0.9353889759465374  0.28152730536437093  1.0000
  H   H23       1.0  0.0529862837091102  0.8967140239690466  0.30608127716809014  1.0000
  H   H24       1.0  0.9906246600071714  0.9706351455610329  0.3061412569803538  1.0000
  H   H25       1.0  0.8870746003918414  0.8721906225169536  0.3888476459549963  1.0000
  H   H26       1.0  0.8027372863326293  0.9426231813583712  0.38467071648766904  1.0000
  H   H27       1.0  0.3000523113255015  0.909579545195307  0.5120776344275484  1.0000
  H   H28       1.0  0.10945276640127591  0.8612723895458385  0.4499423728266336  1.0000
  H   H29       1.0  0.9680150920173958  0.03604528209694989  0.3977324022262253  1.0000
  H   H30       1.0  0.1640716323696907  0.07739226603894171  0.46226508364151914  1.0000
  H   H31       1.0  0.3998748105039526  0.6539013048284447  0.6170174604170385  1.0000
  H   H32       1.0  0.4406092032584327  0.46479125738842  0.3839904666822634  1.0000
  H   H33       1.0  0.3313458061146619  0.48480446245586256  0.2867153580451145  1.0000
  H   H34       1.0  0.45126549403606486  0.6689692383499733  0.30980751111927424  1.0000
  H   H35       1.0  0.5530215257337904  0.6419073839680606  0.4052584690423373  1.0000
  H   H36       1.0  0.29914718201122537  0.638145873327396  0.22372256215040665  1.0000
  H   H37       1.0  0.2316043452195373  0.5646128605613683  0.21847377321052622  1.0000
  H   H38       1.0  0.5529836898777634  0.6032871858946082  0.19391902142940157  1.0000
  H   H39       1.0  0.4906236064685744  0.529366314114249  0.1938581678011744  1.0000
  H   H40       1.0  0.38706938180516204  0.6278118743233918  0.11115200869893732  1.0000
  H   H41       1.0  0.30273498218154776  0.557378108410589  0.11532877375218221  1.0000
  H   H42       1.0  0.800046897586931  0.5904236482745162  0.9879242503787681  1.0000
  H   H43       1.0  0.6094491367587055  0.6387313977023653  0.05005933110558661  1.0000
  H   H44       1.0  0.46801671200371703  0.4639564820516568  0.1022681170521977  1.0000
  H   H45       1.0  0.6640741606094523  0.4226103835603823  0.03773397958560311  1.0000
  H   H46       1.0  0.1001265420936051  0.3460954038057055  0.11701955692755213  1.0000
  H   H47       1.0  0.05939220330649421  0.5352087982225058  0.8839858179147344  1.0000
  H   H48       1.0  0.16865658855869012  0.5151931676602575  0.7867118313704252  1.0000
  H   H49       1.0  0.0487394161103012  0.33102922271289265  0.8098071922914941  1.0000
  H   H50       1.0  0.946982613957914  0.3580936660627928  0.9052571379692369  1.0000
  H   H51       1.0  0.2008566357721904  0.361853238113909  0.7237207426838098  1.0000
  H   H52       1.0  0.2683971835269148  0.4353871500211639  0.7184727814758743  1.0000
  H   H53       1.0  0.9470177681009988  0.3967125995930446  0.6939197612441604  1.0000
  H   H54       1.0  0.009376498723511904  0.47063419894686126  0.6938600448512062  1.0000
  H   H55       1.0  0.1129263402407616  0.37219061075697385  0.6111525847923361  1.0000
  H   H56       1.0  0.1972607928703525  0.44262303685245297  0.615329353871843  1.0000
  H   H57       1.0  0.6999494013124377  0.40958030566121556  0.4879225111796402  1.0000
  H   H58       1.0  0.890549384503608  0.3612718367080915  0.5500574510330765  1.0000
  H   H59       1.0  0.03198111976196571  0.536045137887797  0.6022703209757341  1.0000
  H   H60       1.0  0.8359253154968586  0.5773924372436241  0.5377358184004352  1.0000
  H   H61       1.0  0.39987060503120386  0.8460940052190085  0.6170185368430199  1.0000
  H   H62       1.0  0.44060559580561437  0.0352079284424605  0.3839831842579144  1.0000
  H   H63       1.0  0.33134349146575914  0.015192013586627702  0.28670898470172557  1.0000
  H   H64       1.0  0.45126920376641527  0.8310280658414727  0.30980646310349874  1.0000
  H   H65       1.0  0.5530249899287157  0.8580939750890196  0.4052573593979291  1.0000
  H   H66       1.0  0.29914394478696243  0.8618509727886378  0.22372014868365403  1.0000
  H   H67       1.0  0.23160599695824405  0.9353854262118587  0.21847205580515802  1.0000
  H   H68       1.0  0.5529834700602481  0.8967080328631668  0.19391652858914205  1.0000
  H   H69       1.0  0.49062493845283944  0.9706298820232959  0.1938576653918176  1.0000
  H   H70       1.0  0.38706716203792985  0.8721868877454142  0.11115000345078843  1.0000
  H   H71       1.0  0.30272656734861414  0.9426198797912735  0.11533049387728772  1.0000
  H   H72       1.0  0.800046561056469  0.9095790522981918  0.9879256140040698  1.0000
  H   H73       1.0  0.6094403487402644  0.8612707338770209  0.05005778246435711  1.0000
  H   H74       1.0  0.46800642972542766  0.0360442282328748  0.10227033125865152  1.0000
  H   H75       1.0  0.6640690593167093  0.0773928562864725  0.037739121905858  1.0000
  H   H76       1.0  0.10012741392189642  0.15390270341601567  0.11701977575376793  1.0000
  H   H77       1.0  0.059390254630415015  0.9647921271802956  0.8839866240564265  1.0000
  H   H78       1.0  0.16865445829570552  0.9848069463074864  0.7867125919343679  1.0000
  H   H79       1.0  0.04873126149198732  0.1689712817392319  0.8098060815428454  1.0000
  H   H80       1.0  0.946974704884525  0.1419070749466229  0.9052569523538668  1.0000
  H   H81       1.0  0.20085320568286852  0.1381481386590764  0.7237218608886238  1.0000
  H   H82       1.0  0.2683955317827299  0.06461458437171791  0.7184736353776062  1.0000
  H   H83       1.0  0.947015765455099  0.10328953635335844  0.6939162095593617  1.0000
  H   H84       1.0  0.009379611607137404  0.029367528245671803  0.6938579567575331  1.0000
  H   H85       1.0  0.11293633853057371  0.12781205128437992  0.6111519995412067  1.0000
  H   H86       1.0  0.19727698626841325  0.057378605924377296  0.6153323830273223  1.0000
  H   H87       1.0  0.6999575164089364  0.09042445836809071  0.4879276238396599  1.0000
  H   H88       1.0  0.8905648398456874  0.13873028424701062  0.5500602949387743  1.0000
  H   H89       1.0  0.03199140206674401  0.9639551754234436  0.6022706972826981  1.0000
  H   H90       1.0  0.8359270831957205  0.9226090779975634  0.5377393111142512  1.0000
  H   H91       1.0  0.6001227938283833  0.3460956066555809  0.3829813215690977  1.0000
  H   H92       1.0  0.5593984020726737  0.5352087568699703  0.6160169503464062  1.0000
  H   H93       1.0  0.6686617992263283  0.5151915625000498  0.7132907637326441  1.0000
  H   H94       1.0  0.5487365551871548  0.3310285596381561  0.6901951566365271  1.0000
  H   H95       1.0  0.44698052346658573  0.3580948465806202  0.5947437669565973  1.0000
  H   H96       1.0  0.7008615345296009  0.36185103814231206  0.7762814008683493  1.0000
  H   H97       1.0  0.7683999264355066  0.4353862671926266  0.7815293262977436  1.0000
  H   H98       1.0  0.4470205817756538  0.3967092823259648  0.8060819193228143  1.0000
  H   H99       1.0  0.5093784427307214  0.4706319271340361  0.8061410459395904  1.0000
  H   H100      1.0  0.6129348898294327  0.37218813994573463  0.8888485002974209  1.0000
  H   H101      1.0  0.6972715118764867  0.4426214626035119  0.8846695764877739  1.0000
  H   H102      1.0  0.19995959647182812  0.409576365995072  0.0120745316124982  1.0000
  H   H103      1.0  0.390561802173771  0.36126905981894464  0.9499403143931462  1.0000
  H   H104      1.0  0.5319831147312258  0.5360439754818955  0.8977280744211669  1.0000
  H   H105      1.0  0.3359245549024551  0.5773900739750246  0.9622613483830521  1.0000
  H   H106      1.0  0.8998766183268927  0.6539050537191856  0.8829818155708511  1.0000
  H   H107      1.0  0.9406142907626676  0.4647925458119745  0.11601555458591412  1.0000
  H   H108      1.0  0.8313487942894399  0.4848077331200643  0.21328867762601086  1.0000
  H   H109      1.0  0.9512670779451683  0.6689721213241812  0.19019202145007344  1.0000
  H   H110      1.0  0.053030547407672705  0.6419072347129102  0.0947425075311514  1.0000
  H   H111      1.0  0.7991431909738795  0.6381489924400229  0.2762784710502473  1.0000
  H   H112      1.0  0.7316037544367263  0.564615080531965  0.2815264322592697  1.0000
  H   H113      1.0  0.052980947445405505  0.6032905174695459  0.3060829065023327  1.0000
  H   H114      1.0  0.9906211055991252  0.5293684748620889  0.30614132763926  1.0000
  H   H115      1.0  0.8870590406737195  0.6278129495749596  0.3888470606779464  1.0000
  H   H116      1.0  0.8027234768201837  0.5573783072033862  0.38466770108897924  1.0000
  H   H117      1.0  0.30003820198637493  0.5904290170018242  0.5120732485199043  1.0000
  H   H118      1.0  0.1094304402951138  0.6387330534000526  0.44993874041574605  1.0000
  H   H119      1.0  0.9680175957610686  0.46395709266798946  0.39772802925361367  1.0000
  H   H120      1.0  0.1640811785322995  0.42261289609904656  0.46226210008114077  1.0000
  H   H121      1.0  0.0544531384172799  0.24999946128166076  0.7269079192321899  1.0000
  H   H122      1.0  0.7922758417879694  0.2499994056675235  0.6954512011410972  1.0000
  H   H123      1.0  0.7319649368398802  0.2500000222990196  0.5878003033708127  1.0000
  H   H124      1.0  0.6914072519534857  0.24999857789489255  0.3391569836574391  1.0000
  H   H125      1.0  0.4455629431913551  0.749999642484433  0.22690804241449317  1.0000
  H   H126      1.0  0.7077311916870884  0.7499990463691759  0.19544567965039764  1.0000
  H   H127      1.0  0.7680251735794174  0.7499995752692287  0.08779489944176792  1.0000
  H   H128      1.0  0.8085916041034268  0.7499995283878818  0.8391553538654081  1.0000
  H   H129      1.0  0.9455466883653331  0.7499983367091191  0.27309388501780774  1.0000
  H   H130      1.0  0.2077250962047188  0.7499988355794901  0.3045497396058536  1.0000
  H   H131      1.0  0.2680348899272076  0.7499999919728143  0.4122006373730331  1.0000
  H   H132      1.0  0.30859035238963634  0.7499965605645967  0.6608422300825296  1.0000
  H   H133      1.0  0.5544346611296476  0.25000037179109574  0.7730911713199263  1.0000
  H   H134      1.0  0.29226307897155834  0.2500000813993708  0.8045513753227028  1.0000
  H   H135      1.0  0.23196242977933687  0.24999955250312675  0.9122030190284678  1.0000
  H   H136      1.0  0.19140933388249695  0.2499995993716553  0.16084515512871891  1.0000
  C   C1        1.0  0.4621095205796806  0.19841736028201498  0.4443294024328993  1.0000
  C   C2        1.0  0.5617765604918149  0.19689653189914944  0.3982227249123511  1.0000
  C   C3        1.0  0.4086426160724415  0.1426211845697054  0.4737381887731332  1.0000
  C   C4        1.0  0.5600098528715948  0.009248695532484402  0.634569493557251  1.0000
  C   C5        1.0  0.6207404024112436  0.021181038224561605  0.6883925840247829  1.0000
  C   C6        1.0  0.6185067356548473  0.07895455706734823  0.7108708108516313  1.0000
  C   C7        1.0  0.5565281538152433  0.12302093993188379  0.6758107258178968  1.0000
  C   C8        1.0  0.4979022639071787  0.10834838687821254  0.6221672492771972  1.0000
  C   C9        1.0  0.6692974848480661  0.09130932187283489  0.7714175621759338  1.0000
  C   C10       1.0  0.5450425929013819  0.07534372265998002  0.8143137291367142  1.0000
  C   C11       1.0  0.5919052353032229  0.0812761506434967  0.8777221349791305  1.0000
  C   C12       1.0  0.2759212833225604  0.06425521999491927  0.9857556491893934  1.0000
  C   C13       1.0  0.38200221415352337  0.09061606288524623  0.9506236455801871  1.0000
  C   C14       1.0  0.4768490252469066  0.05550838556071372  0.9172217305324323  1.0000
  C   C15       1.0  0.45927089030110596  0.993902629130567  0.9215636364824321  1.0000
  C   C16       1.0  0.3511053066129364  0.9702762333430215  0.9572776363938615  1.0000
  C   C17       1.0  0.0378937629265579  0.8015772310718393  0.9443318767184438  1.0000
  C   C18       1.0  0.9382286011687528  0.8031014322639721  0.8982238174356356  1.0000
  C   C19       1.0  0.09135881815555542  0.8573742225427735  0.9737384814763105  1.0000
  C   C20       1.0  0.93998862958361  0.9907525625166685  0.13457294342879322  1.0000
  C   C21       1.0  0.8792609854489797  0.9788183173026399  0.1883942156695824  1.0000
  C   C22       1.0  0.8814904925583493  0.9210443011263224  0.2108708513989868  1.0000
  C   C23       1.0  0.9434708519478436  0.8769788891260503  0.1758114192924936  1.0000
  C   C24       1.0  0.002094709150014801  0.8916518554169672  0.12216920762386252  1.0000
  C   C25       1.0  0.8307016228731356  0.9086907204114285  0.2714183953427992  1.0000
  C   C26       1.0  0.9549592815529595  0.9246575461852445  0.31431217767690367  1.0000
  C   C27       1.0  0.9081018886354503  0.9187249656357108  0.3777222326806466  1.0000
  C   C28       1.0  0.22408363703146256  0.9357459205277721  0.48575707639165705  1.0000
  C   C29       1.0  0.11800226040910643  0.9093847189082781  0.4506257895053454  1.0000
  C   C30       1.0  0.023156136691156303  0.9444915900854196  0.4172236096069853  1.0000
  C   C31       1.0  0.0407354379419829  0.006099109092119201  0.42156552792633323  1.0000
  C   C32       1.0  0.14890036361087772  0.029724089182728605  0.4572809801657272  1.0000
  C   C33       1.0  0.5378963302468805  0.6984174786743225  0.5556703605224272  1.0000
  C   C34       1.0  0.43822597047533673  0.696895797852129  0.601775746248407  1.0000
  C   C35       1.0  0.5913604072966336  0.6426221824482498  0.5262604059789951  1.0000
  C   C36       1.0  0.43998993565708844  0.5092467545409178  0.36542983665543727  1.0000
  C   C37       1.0  0.37926038908002374  0.5211802015954063  0.31160758251957793  1.0000
  C   C38       1.0  0.3814935316921933  0.5789537712710242  0.2891296558852688  1.0000
  C   C39       1.0  0.4434739361781368  0.6230199796101702  0.324189640575419  1.0000
  C   C40       1.0  0.5020988479867441  0.6083463256876628  0.3778327187761407  1.0000
  C   C41       1.0  0.3307037816174586  0.5913091989016408  0.2285815811721434  1.0000
  C   C42       1.0  0.4549577072013521  0.5753430788674763  0.18568631407063663  1.0000
  C   C43       1.0  0.40809834462832134  0.5812766140986697  0.12227832647297283  1.0000
  C   C44       1.0  0.7240813397886541  0.5642585864620031  0.014243124010342  1.0000
  C   C45       1.0  0.6180001698137475  0.5906177261325071  0.04937593109741561  1.0000
  C   C46       1.0  0.523155899664758  0.5555101064300915  0.08277749434105171  1.0000
  C   C47       1.0  0.5407345021833337  0.4939032766881937  0.07843502185709643  1.0000
  C   C48       1.0  0.6489003001991237  0.47027858248947046  0.0427189169855993  1.0000
  C   C49       1.0  0.9621122632124326  0.30157953664254217  0.05567024183542911  1.0000
  C   C50       1.0  0.0617762999323617  0.3031013907088039  0.10177786589716932  1.0000
  C   C51       1.0  0.9086433681035831  0.3573762333990159  0.026261351257211605  1.0000
  C   C52       1.0  0.06001345782631522  0.4907533457246771  0.8654257220805235  1.0000
  C   C53       1.0  0.12074565510975081  0.4788178118830261  0.8116044770216535  1.0000
  C   C54       1.0  0.11851444971897965  0.4210438530295164  0.7891284046021811  1.0000
  C   C55       1.0  0.056532267676558924  0.37697933336107775  0.8241888005528608  1.0000
  C   C56       1.0  0.9979049436968455  0.3916534605621039  0.8778309788043117  1.0000
  C   C57       1.0  0.16930120904786614  0.4086899008466887  0.728580888787633  1.0000
  C   C58       1.0  0.045042294289125116  0.42465745385649  0.6856870700926906  1.0000
  C   C59       1.0  0.09189862981988033  0.4187249576996308  0.6222783238526121  1.0000
  C   C60       1.0  0.7759167269981406  0.43574562063275835  0.5142425778789601  1.0000
  C   C61       1.0  0.8819994540064755  0.4093850666634823  0.5493756518014123  1.0000
  C   C62       1.0  0.9768419255705185  0.444491719490081  0.5827781835048214  1.0000
  C   C63       1.0  0.959259934296988  0.5060994461935805  0.5784363999624134  1.0000
  C   C64       1.0  0.8510959055103697  0.5297242263230187  0.5427208939266139  1.0000
  C   C65       1.0  0.5378925286484915  0.8015751186377074  0.5556702430662456  1.0000
  C   C66       1.0  0.43822659993929863  0.8031003795787585  0.6017777840864583  1.0000
  C   C67       1.0  0.5913649892362258  0.8573735106254715  0.5262618884807182  1.0000
  C   C68       1.0  0.43998886264103737  0.9907522052583956  0.3654262661627143  1.0000
  C   C69       1.0  0.37925720188840734  0.9788176462881568  0.31160231219298856  1.0000
  C   C70       1.0  0.38149309110512775  0.9210427976721078  0.289127107632531  1.0000
  C   C71       1.0  0.4434750066003304  0.8769781878270778  0.32418891967476077  1.0000
  C   C72       1.0  0.5021020077016588  0.8916542869295299  0.37783110095706013  1.0000
  C   C73       1.0  0.3307001194835451  0.9086871463557104  0.22858078805888485  1.0000
  C   C74       1.0  0.4549594562944464  0.9246540753333363  0.18568462110092557  1.0000
  C   C75       1.0  0.40809236902034485  0.9187220906090587  0.12227621525367034  1.0000
  C   C76       1.0  0.7240763209978951  0.9357461240475828  0.014244428047142306  1.0000
  C   C77       1.0  0.6179909452986934  0.9093848379044901  0.049376431652525817  1.0000
  C   C78       1.0  0.5231452454254325  0.9444907422052398  0.0827774831997417  1.0000
  C   C79       1.0  0.5407300476775135  0.0060987149084752  0.0784373042609801  1.0000
  C   C80       1.0  0.6488967425735696  0.0297242241857987  0.042721145592565804  1.0000
  C   C81       1.0  0.9621116199493474  0.19842056691386034  0.05567079104060471  1.0000
  C   C82       1.0  0.06177567048283092  0.19689725223506113  0.1017784185695021  1.0000
  C   C83       1.0  0.9086432310532404  0.1426231321924618  0.026261595769099703  1.0000
  C   C84       1.0  0.0600067523064709  0.0092483382709361  0.8654275655578945  1.0000
  C   C85       1.0  0.1207399525239836  0.0211812537149783  0.8116045663167741  1.0000
  C   C86       1.0  0.11850711176484202  0.07895704291566122  0.7891296575893636  1.0000
  C   C87       1.0  0.05652341872941952  0.1230215684058322  0.8241895214454333  1.0000
  C   C88       1.0  0.9978962278893704  0.10834594258079733  0.8778321648656515  1.0000
  C   C89       1.0  0.16929931510146196  0.09131151013961869  0.7285825453996041  1.0000
  C   C90       1.0  0.045043878837582006  0.07534468436782052  0.6856857408049636  1.0000
  C   C91       1.0  0.0919134951612364  0.08127682165038412  0.6222774128208997  1.0000
  C   C92       1.0  0.7759261906953088  0.06425675327021452  0.5142460231179841  1.0000
  C   C93       1.0  0.8820120122021677  0.09061662511690828  0.5493786052655949  1.0000
  C   C94       1.0  0.976857024693601  0.055509310686645115  0.5827790581561132  1.0000
  C   C95       1.0  0.9592699449328138  0.9939013484275281  0.5784388668369475  1.0000
  C   C96       1.0  0.8511016856017406  0.9702772548523912  0.5427225510896677  1.0000
  C   C97       1.0  0.4621112750645225  0.301577216520336  0.44433014848324615  1.0000
  C   C98       1.0  0.5617760787278032  0.3030997838616969  0.39822217223994033  1.0000
  C   C99       1.0  0.4086383082424874  0.3573765020595019  0.47373794425438837  1.0000
  C   C100      1.0  0.5600187808669264  0.49075325972133765  0.6345736946079725  1.0000
  C   C101      1.0  0.6207505499061554  0.4788162666151266  0.688397675757301  1.0000
  C   C102      1.0  0.6185151848471833  0.4210422536877234  0.7108734436308667  1.0000
  C   C103      1.0  0.5565336691233898  0.3769787048869587  0.6758121636811583  1.0000
  C   C104      1.0  0.4979032012203961  0.39165501834849453  0.6221699489756247  1.0000
  C   C105      1.0  0.6693071573447967  0.40868771256904785  0.7714202230896988  1.0000
  C   C106      1.0  0.5450443420136539  0.4246547191222093  0.8143150584297133  1.0000
  C   C107      1.0  0.5919081494516265  0.41872295691127454  0.8777234777815155  1.0000
  C   C108      1.0  0.27592404304176205  0.43574320083292417  0.9857552262260043  1.0000
  C   C109      1.0  0.3820074354558116  0.40938317464880214  0.950622419142107  1.0000
  C   C110      1.0  0.47684948317571246  0.4444894645848196  0.9172208558978241  1.0000
  C   C111      1.0  0.45926421333678763  0.5060971808456501  0.921561601367003  1.0000
  C   C112      1.0  0.35109841532099745  0.5297218750443733  0.9572777062385003  1.0000
  C   C113      1.0  0.037898675727703314  0.6984222506441852  0.944331562420864  1.0000
  C   C114      1.0  0.9382313053720849  0.6968990668102605  0.898225665364656  1.0000
  C   C115      1.0  0.09136534839868922  0.6426255538898503  0.9737400212450996  1.0000
  C   C116      1.0  0.9399963698865863  0.509247555053456  0.13457392341661742  1.0000
  C   C117      1.0  0.8792608389552187  0.5211826456410051  0.18839560022455973  1.0000
  C   C118      1.0  0.8814920443317434  0.5789579342640893  0.21087037738706735  1.0000
  C   C119      1.0  0.943475337595743  0.6230215674197055  0.1758099814384764  1.0000
  C   C120      1.0  0.0021059952376419003  0.6083465537032069  0.12216866669491823  1.0000
  C   C121      1.0  0.8306997289082788  0.5913127729634837  0.27141746144337736  1.0000
  C   C122      1.0  0.9549553100307763  0.5753452199529862  0.3143138706459609  1.0000
  C   C123      1.0  0.9080867511061118  0.5812772728632539  0.3777221851228135  1.0000
  C   C124      1.0  0.22407198753577262  0.5642610424924117  0.48575404532832084  1.0000
  C   C125      1.0  0.11798703810784875  0.5906193801822469  0.45062183490986035  1.0000
  C   C126      1.0  0.0231456777728809  0.5555113975857894  0.4172201667126814  1.0000
  C   C127      1.0  0.04073433634501811  0.49390455738996764  0.4215615185087672  1.0000
  C   C128      1.0  0.14890503243444192  0.47028155027865637  0.4572778880526799  1.0000
  C   C129      1.0  0.13993077278594515  0.24999994742638174  0.6395697912474675  1.0000
  C   C130      1.0  0.027746956076555303  0.24999953582421602  0.6810925492712913  1.0000
  C   C131      1.0  0.8794562083432356  0.2499993815459831  0.6627862389972279  1.0000
  C   C132      1.0  0.8460081856702218  0.25000036331464776  0.6038287689438917  1.0000
  C   C133      1.0  0.9637292135715118  0.25000032496318164  0.564525220651035  1.0000
  C   C134      1.0  0.30642123611617933  0.24999804007536852  0.6505567419943433  1.0000
  C   C135      1.0  0.9510875867839773  0.24999908323277964  0.4989874414577288  1.0000
  C   C136      1.0  0.6115587160586173  0.2499981501683592  0.37453076384067435  1.0000
  C   C137      1.0  0.3600641986290399  0.7500002530058939  0.13956672550494184  1.0000
  C   C138      1.0  0.4722463198011297  0.7500001214490195  0.18109013398456852  1.0000
  C   C139      1.0  0.620547077012347  0.7499991490801537  0.1627848650599617  1.0000
  C   C140      1.0  0.6539810169361006  0.7499996389425191  0.10382616494600683  1.0000
  C   C141      1.0  0.5362561566599952  0.7499997718590523  0.06452411415556011  1.0000
  C   C142      1.0  0.19357609715380872  0.7500008041530322  0.15055335167281217  1.0000
  C   C143      1.0  0.5488755159976862  0.7500004115480224  0.998986600630694  1.0000
  C   C144      1.0  0.8884417000902473  0.7499994277469637  0.8745301532207039  1.0000
  C   C145      1.0  0.8600657203562251  0.7499969640532598  0.36043330825574327  1.0000
  C   C146      1.0  0.9722506482641793  0.7499991486807076  0.3189088232237226  1.0000
  C   C147      1.0  0.12054361843116371  0.7499984164463597  0.3372142699973253  1.0000
  C   C148      1.0  0.15398830745915865  0.7499987644455361  0.3961738988049746  1.0000
  C   C149      1.0  0.03626394589623771  0.7499983595454935  0.4354757200878225  1.0000
  C   C150      1.0  0.6935752570437118  0.7499979848896671  0.3494485162689571  1.0000
  C   C151      1.0  0.048908906336279805  0.7499978282510185  0.5010122040309569  1.0000
  C   C152      1.0  0.3884399995007827  0.7499978748018067  0.6254688816511874  1.0000
  C   C153      1.0  0.6399256271403575  0.25000064779197834  0.8604286024545403  1.0000
  C   C154      1.0  0.5277390611164706  0.25000033609296685  0.8189077844819863  1.0000
  C   C155      1.0  0.3794438600073066  0.24999997868822285  0.8372143486689653  1.0000
  C   C156      1.0  0.34600325277070004  0.24999993208775356  0.8961721852722848  1.0000
  C   C157      1.0  0.4637303354682276  0.2499997991722012  0.9354720773058248  1.0000
  C   C158      1.0  0.8064148398216419  0.2500014264130784  0.8494411127826142  1.0000
  C   C159      1.0  0.4510931966632512  0.24999915949356222  0.0010117495724273  1.0000
  C   C160      1.0  0.1115603491187258  0.24999970001073282  0.1254712192781327  1.0000
  N   N1        1.0  0.49715120517364414  0.05210099838907921  0.601549436377404  1.0000
  N   N2        1.0  0.2587065900957056  0.0048283396357647  0.9888552463562023  1.0000
  N   N3        1.0  0.0028477287061861004  0.9479001800200424  0.10155385861654052  1.0000
  N   N4        1.0  0.24130170325956615  0.9951719069123829  0.4888587305588033  1.0000
  N   N5        1.0  0.5028493057937242  0.5520993297573682  0.39844936450293744  1.0000
  N   N6        1.0  0.7412976833662057  0.5048316885168092  0.011141503409732  1.0000
  N   N7        1.0  0.9971525250502395  0.4479008501485497  0.8984457679758509  1.0000
  N   N8        1.0  0.7586981216374513  0.49517208278471264  0.511142083644586  1.0000
  N   N9        1.0  0.5028541776438048  0.947901232163929  0.398447186851172  1.0000
  N   N10       1.0  0.7412999039495319  0.9951734476588713  0.011142672129409401  1.0000
  N   N11       1.0  0.997142097120559  0.052098947744461624  0.8984492408776464  1.0000
  N   N12       1.0  0.7587025683881736  0.0048294371211171005  0.5111448006987588  1.0000
  N   N13       1.0  0.4971494097634661  0.4479020142806932  0.6015537349973954  1.0000
  N   N14       1.0  0.25869992093524274  0.4951714285517853  0.9888568468175196  1.0000
  N   N15       1.0  0.0028595250840908006  0.552100050630564  0.10155171876437664  1.0000
  N   N16       1.0  0.24130170509180723  0.5048332505617665  0.488856698334125  1.0000
  N   N17       1.0  0.10450368887323691  0.2500004841106219  0.5833289016902371  1.0000
  N   N18       1.0  0.412385772447955  0.24999685513612493  0.4660921772616718  1.0000
  N   N19       1.0  0.3954816791545143  0.7500002948982143  0.08332720026059802  1.0000
  N   N20       1.0  0.08761667598078302  0.7500007866490036  0.9660948659349915  1.0000
  N   N21       1.0  0.8954928042539549  0.7499973138830998  0.4166724708047057  1.0000
  N   N22       1.0  0.5876196104336345  0.7499960670366476  0.5339078999920306  1.0000
  N   N23       1.0  0.6045048129696867  0.25000016264503705  0.9166689911997707  1.0000
  N   N24       1.0  0.9123864844459249  0.2500001141303372  0.0339078018183585  1.0000
  O   O1        1.0  0.47028864264657955  0.09431112973127398  0.4582884968932248  1.0000
  O   O2        1.0  0.3099256051181812  0.1474509272493378  0.5124295260167528  1.0000
  O   O3        1.0  0.0297137067603686  0.9056838712956362  0.9582894229114559  1.0000
  O   O4        1.0  0.19007442035073302  0.8525433734877981  0.012431508130056602  1.0000
  O   O5        1.0  0.529712596558717  0.594312623384262  0.5417076173547244  1.0000
  O   O6        1.0  0.6900784856416351  0.6474527611123477  0.48756819423380204  1.0000
  O   O7        1.0  0.970288041210992  0.40568619855330473  0.04171029981318241  1.0000
  O   O8        1.0  0.8099289209458505  0.3525458745987109  0.987567472100949  1.0000
  O   O9        1.0  0.529722296289563  0.9056848952331222  0.54170855809965  1.0000
  O   O10       1.0  0.6900775553153125  0.8525424381831358  0.4875688242270186  1.0000
  O   O11       1.0  0.9702861200049144  0.09431171042032098  0.04170806382290951  1.0000
  O   O12       1.0  0.8099298512889919  0.14745309473536852  0.9875672738630785  1.0000
  O   O13       1.0  0.47028056288930026  0.40568739089502526  0.458291164623546  1.0000
  O   O14       1.0  0.3099268972205707  0.35254503687595223  0.5124323147661656  1.0000
  O   O15       1.0  0.02972512017723971  0.594315145473729  0.9582932314530483  1.0000
  O   O16       1.0  0.19007535067959222  0.6474585722283734  0.012434763897630301  1.0000
  O   O17       1.0  0.35238374083265006  0.25000104801021195  0.7016148930208175  1.0000
  O   O18       1.0  0.38747315380611275  0.24999404704079353  0.6046473551811715  1.0000
  O   O19       1.0  0.07734149324657122  0.24999753470996913  0.4722456093010195  1.0000
  O   O20       1.0  0.8255676419336028  0.24999875834774338  0.47649002724211453  1.0000
  O   O21       1.0  0.147618685173903  0.7500012194180744  0.20161054959819322  1.0000
  O   O22       1.0  0.11253470909175431  0.7500013615913592  0.10464251159596223  1.0000
  O   O23       1.0  0.42261991823945533  0.7500009788064405  0.97225283688082  1.0000
  O   O24       1.0  0.6743885080700097  0.7499994607994797  0.9764885676105595  1.0000
  O   O25       1.0  0.6476171971801181  0.7499994095111049  0.2983907969935801  1.0000
  O   O26       1.0  0.6125300066873011  0.749995772335339  0.395357903095686  1.0000
  O   O27       1.0  0.9226572223111945  0.749995830726775  0.5277518774347885  1.0000
  O   O28       1.0  0.17442773996306474  0.749999482904876  0.5235096182439707  1.0000
  O   O29       1.0  0.8523744742379551  0.250000124634937  0.7983834831085874  1.0000
  O   O30       1.0  0.8874662288329773  0.2500021987360128  0.8953515211158776  1.0000
  O   O31       1.0  0.5773454608255905  0.24999814897117284  0.02775414835587501  1.0000
  O   O32       1.0  0.32557575973017805  0.24999922373228858  0.023510646092880415  1.0000
