data_image0
_chemical_formula_structural       Zn2H44C74Br8N4O8
_chemical_formula_sum              "Zn2 H44 C74 Br8 N4 O8"
_cell_length_a       8.950845317589375
_cell_length_b       15.848876141761286
_cell_length_c       17.067487324803476
_cell_angle_alpha    115.2686072964455
_cell_angle_beta     90.90281352749818
_cell_angle_gamma    91.73404433157515

_space_group_name_H-M_alt    "P 1"
_space_group_IT_number       1

loop_
  _space_group_symop_operation_xyz
  'x, y, z'

loop_
  _atom_site_type_symbol
  _atom_site_label
  _atom_site_symmetry_multiplicity
  _atom_site_fract_x
  _atom_site_fract_y
  _atom_site_fract_z
  _atom_site_occupancy
  Zn  Zn1       1.0  0.9481911942480746  0.268853020581389  0.021171886720423992  1.0000
  Zn  Zn2       1.0  0.051815337743143196  0.7311488871943439  0.9788354680282512  1.0000
  H   H1        1.0  0.7359146600114742  0.29807281763179816  0.16403266338374323  1.0000
  H   H2        1.0  0.2640675148629157  0.7019296571644844  0.8359628844885878  1.0000
  H   H3        1.0  0.5794965525892906  0.5776614393076327  0.2537837006718604  1.0000
  H   H4        1.0  0.4205025333784818  0.4223438483958332  0.7462154941843765  1.0000
  H   H5        1.0  0.7305771819486041  0.594362730608836  0.13607675946838788  1.0000
  H   H6        1.0  0.2694220912346381  0.4056453501608884  0.8639235198249723  1.0000
  H   H7        1.0  0.8764195549353386  0.4596863253775325  0.03937307448752854  1.0000
  H   H8        1.0  0.1235760327801287  0.5403176109703338  0.9606290684593476  1.0000
  H   H9        1.0  0.300172274029613  0.22898182295574535  0.22708424454875603  1.0000
  H   H10       1.0  0.6998101640594427  0.7710248558945451  0.7729141072788367  1.0000
  H   H11       1.0  0.15575422046406825  0.17521519455783618  0.3223666374656916  1.0000
  H   H12       1.0  0.8442397995482551  0.8247817452743146  0.6776316032256205  1.0000
  H   H13       1.0  0.45070038052075023  0.3459682922794726  0.5379062119000366  1.0000
  H   H14       1.0  0.5493036365578802  0.6540272166693198  0.46208925674213935  1.0000
  H   H15       1.0  0.5975793861900839  0.3953348852316623  0.4419000747446944  1.0000
  H   H16       1.0  0.4024130429435644  0.6046711043656929  0.5580993080417687  1.0000
  H   H17       1.0  0.2592631259730637  0.035014167379444  0.39977523368849444  1.0000
  H   H18       1.0  0.7407385597126749  0.9649814222788748  0.6002266823750021  1.0000
  H   H19       1.0  0.7929786755214892  0.9434582432404638  0.36655520300252686  1.0000
  H   H20       1.0  0.2070219461734411  0.056535093221881993  0.6334329355746038  1.0000
  H   H21       1.0  0.7178785508126707  0.10678154317979249  0.44526180850733255  1.0000
  H   H22       1.0  0.2821253962884639  0.8932118131508203  0.5547281376086914  1.0000
  H   H23       1.0  0.7003202678856298  0.29078907332792164  0.5324337917564536  1.0000
  H   H24       1.0  0.2996817834267773  0.7092121096902204  0.4675708818310796  1.0000
  H   H25       1.0  0.7416736701478043  0.46357274582415187  0.607012761778286  1.0000
  H   H26       1.0  0.25833859788087205  0.5364290360645255  0.3929846552398574  1.0000
  H   H27       1.0  0.2200649300196176  0.4341679662450203  0.5871262659036064  1.0000
  H   H28       1.0  0.779951412279047  0.5658275071444338  0.4128670006343358  1.0000
  H   H29       1.0  0.14442519786756236  0.28841622162801867  0.6720881431321218  1.0000
  H   H30       1.0  0.8555793076408164  0.7115869899349152  0.32791207366151565  1.0000
  H   H31       1.0  0.2859618429168407  0.2516701838447871  0.7797928524367209  1.0000
  H   H32       1.0  0.7140360085399636  0.7483344640151586  0.22021076664536576  1.0000
  H   H33       1.0  0.610749415269531  0.11231028690587408  0.5886174660721011  1.0000
  H   H34       1.0  0.3892486669693511  0.8876818276879063  0.4113842301550435  1.0000
  H   H35       1.0  0.4652218015432795  0.14420118612706995  0.47966292055463106  1.0000
  H   H36       1.0  0.5347787492609372  0.8557944185904276  0.5203401589452669  1.0000
  H   H37       1.0  0.7259737237586562  0.22308387536130433  0.8726452433432714  1.0000
  H   H38       1.0  0.27401842131263265  0.7769194006702093  0.12735953015374685  1.0000
  H   H39       1.0  0.882781167784799  0.07700762268421361  0.0063041534593680105  1.0000
  H   H40       1.0  0.1172301641646314  0.9229976945057102  0.99369813714074  1.0000
  H   H41       1.0  0.7499373241237066  0.9281527708759539  0.9028768994996456  1.0000
  H   H42       1.0  0.25007158004255103  0.0718504960872508  0.09712808194499442  1.0000
  H   H43       1.0  0.5955254990776524  0.9313612859351891  0.7778857819276298  1.0000
  H   H44       1.0  0.4044654026784045  0.06864135748011789  0.22212400444502126  1.0000
  C   C1        1.0  0.7294039789643489  0.3642272482285448  0.1591835756668871  1.0000
  C   C2        1.0  0.27058236657030216  0.6357710490047522  0.8408115783020379  1.0000
  C   C3        1.0  0.6439400450058128  0.436021752290763  0.21584507477247428  1.0000
  C   C4        1.0  0.3560485058794923  0.5639758310122359  0.7841486585139351  1.0000
  C   C5        1.0  0.643747373684505  0.5207645397348274  0.20879626062365736  1.0000
  C   C6        1.0  0.356248100032154  0.4792372801314144  0.7912033030460109  1.0000
  C   C7        1.0  0.7265579376037791  0.5301236755356838  0.1445820253582397  1.0000
  C   C8        1.0  0.2734333186487418  0.4698816236269748  0.8554176611055625  1.0000
  C   C9        1.0  0.8083495960733628  0.4554709626564275  0.09016662379556813  1.0000
  C   C10       1.0  0.19164934346109413  0.5445329718777785  0.909835560740831  1.0000
  C   C11       1.0  0.5552429238389179  0.42613153888488137  0.28447576480797215  1.0000
  C   C12       1.0  0.4447471363588491  0.5738716154914628  0.7155189739162894  1.0000
  C   C13       1.0  0.45727456819206935  0.31265019081806134  0.3290866913417219  1.0000
  C   C14       1.0  0.5427165360620378  0.687352286369098  0.6709095560858035  1.0000
  C   C15       1.0  0.3341568495415714  0.25146848754015133  0.2948436587411365  1.0000
  C   C16       1.0  0.6658351875526164  0.7485319303793078  0.7051547324706605  1.0000
  C   C17       1.0  0.253245650541075  0.22265159592700454  0.3489197061639048  1.0000
  C   C18       1.0  0.7467485010785921  0.7773474459321504  0.6510799365050489  1.0000
  C   C19       1.0  0.29489245519256  0.2551788360075591  0.4365680595090496  1.0000
  C   C20       1.0  0.7051125795296259  0.7448160174339832  0.5634306837857537  1.0000
  C   C21       1.0  0.4185555056623115  0.3180762935184021  0.469357987059837  1.0000
  C   C22       1.0  0.5814442763436601  0.6819227091814283  0.5306387816760465  1.0000
  C   C23       1.0  0.5011196353078446  0.34706077503483357  0.4161200963808868  1.0000
  C   C24       1.0  0.4988769060953898  0.6529396115571656  0.5838759956844515  1.0000
  C   C25       1.0  0.2000935582316785  0.23140747576977108  0.49864239259535753  1.0000
  C   C26       1.0  0.7999106400407072  0.7685915678757098  0.5013579634919553  1.0000
  C   C27       1.0  0.0988842250396544  0.14280421100532684  0.4550999752431722  1.0000
  C   C28       1.0  0.9011277093402511  0.8571934246478319  0.5448993470180171  1.0000
  C   C29       1.0  0.14193138607539876  0.051447580532311576  0.41031584832018814  1.0000
  C   C30       1.0  0.8580715809251769  0.9485493472360957  0.5896819146267449  1.0000
  C   C31       1.0  0.029367230248048787  0.9810175621122  0.37904595005706215  1.0000
  C   C32       1.0  0.9706391502013572  0.018979313251371394  0.6209477339308691  1.0000
  C   C33       1.0  0.8778492172564397  0.9999524248743368  0.39167435768305847  1.0000
  C   C34       1.0  0.12215486423458091  4.376788639600106e-05  0.6083202047688233  1.0000
  C   C35       1.0  0.836243332176039  0.0922342617792751  0.43670366497449464  1.0000
  C   C36       1.0  0.16376525640657752  0.9077626340571214  0.5632918126891512  1.0000
  C   C37       1.0  0.9469199132982098  0.16392842354719755  0.46890786540834745  1.0000
  C   C38       1.0  0.05309415321569588  0.8360678215910297  0.5310915310104108  1.0000
  C   C39       1.0  0.9371514332867928  0.2650794837082415  0.5176263085683958  1.0000
  C   C40       1.0  0.0628560204143014  0.7349174271873264  0.48237033253165157  1.0000
  C   C41       1.0  0.8138208153711021  0.32150792176104653  0.5445978460011105  1.0000
  C   C42       1.0  0.186183213294342  0.6784883143635482  0.45540024834949844  1.0000
  C   C43       1.0  0.8366260128620694  0.41851663937568157  0.5864081980928404  1.0000
  C   C44       1.0  0.1633836461896792  0.5814795575895885  0.41358702232469824  1.0000
  C   C45       1.0  0.9825818153318124  0.45744374741620675  0.6007408073656962  1.0000
  C   C46       1.0  0.017429958245408293  0.5425510734887594  0.3992556645089992  1.0000
  C   C47       1.0  0.10762545987181937  0.402275236577509  0.5762060447349668  1.0000
  C   C48       1.0  0.8923887382494229  0.5977231105877222  0.4237947536614257  1.0000
  C   C49       1.0  0.08308653336970198  0.30601770816574714  0.5351412249667291  1.0000
  C   C50       1.0  0.916922075603999  0.6939799076191447  0.4648562897555665  1.0000
  C   C51       1.0  0.295131824242887  0.2195934868354428  0.5684722541926491  1.0000
  C   C52       1.0  0.7048655767837744  0.7804041639042366  0.4315274764970455  1.0000
  C   C53       1.0  0.24690673411250688  0.25043795076732067  0.6534006792230828  1.0000
  C   C54       1.0  0.7530955016328135  0.7495652909139637  0.3466018644433576  1.0000
  C   C55       1.0  0.326215035398107  0.230934924006533  0.7144221346549317  1.0000
  C   C56       1.0  0.6737862322900837  0.7690704058516927  0.28558061982639066  1.0000
  C   C57       1.0  0.4561110059395475  0.1816906088156074  0.6901027957165838  1.0000
  C   C58       1.0  0.543890132923856  0.8183133534187235  0.3099017711453272  1.0000
  C   C59       1.0  0.5082208140229695  0.15043872557198057  0.6061735986545005  1.0000
  C   C60       1.0  0.49177873072450484  0.8495582618285766  0.39382883190121737  1.0000
  C   C61       1.0  0.42634714966697357  0.16917442280035294  0.5457371845529126  1.0000
  C   C62       1.0  0.5736477943811735  0.8308204649914186  0.4542637885724617  1.0000
  C   C63       1.0  0.5571233489029269  0.0788504787057818  0.7440160122868564  1.0000
  C   C64       1.0  0.4428741777093562  0.9211500156913245  0.25598892338849305  1.0000
  C   C65       1.0  0.6459018066532989  0.07781962322975741  0.8179051745869472  1.0000
  C   C66       1.0  0.3540914320607555  0.9221844082822555  0.18210459308082957  1.0000
  C   C67       1.0  0.7251759272849012  0.15698177057869597  0.8780042460354239  1.0000
  C   C68       1.0  0.27481850191880136  0.8430229369133996  0.12200404065544748  1.0000
  C   C69       1.0  0.8132763659788367  0.07383983888563249  0.9518557499931648  1.0000
  C   C70       1.0  0.18672908395643614  0.9261620405854102  0.04814923629317754  1.0000
  C   C71       1.0  0.7383274877363278  0.9920305318269554  0.8943456055315128  1.0000
  C   C72       1.0  0.26167804700241243  0.007972751404530201  0.10566051162318503  1.0000
  C   C73       1.0  0.654049603601166  0.9937983030435403  0.8258860346277858  1.0000
  C   C74       1.0  0.3459469577365368  0.006205013933623598  0.1741223262206617  1.0000
  Br  Br1       1.0  0.07038464391305868  0.2175605629107195  0.1159137582348109  1.0000
  Br  Br2       1.0  0.9296182670246863  0.7824203836225652  0.8840842582095053  1.0000
  Br  Br3       1.0  0.0586791604335701  0.3218994075546888  0.9247312793464603  1.0000
  Br  Br4       1.0  0.9413218848221021  0.6781031581465199  0.07527274529688552  1.0000
  Br  Br5       1.0  0.0858861730226792  0.8552038794541872  0.315908602640377  1.0000
  Br  Br6       1.0  0.9141222927568646  0.1447909071278914  0.6840848843958512  1.0000
  Br  Br7       1.0  0.0115203598711275  0.5899124802150836  0.6541693320383857  1.0000
  Br  Br8       1.0  0.9884872898496937  0.4100872165194359  0.34582780484900166  1.0000
  N   N1        1.0  0.8099115234383731  0.3740998729601515  0.09760728216395625  1.0000
  N   N2        1.0  0.1900795835982834  0.6259033386301242  0.9023921796217851  1.0000
  N   N3        1.0  0.8075102090145662  0.1545547878043578  0.943433990394482  1.0000
  N   N4        1.0  0.1924919359055792  0.8454477917469205  0.0565712254116164  1.0000
  O   O1        1.0  0.5013849803414914  0.4913622654792889  0.34447306067767874  1.0000
  O   O2        1.0  0.4986096921424161  0.5086437156816501  0.655525761185345  1.0000
  O   O3        1.0  0.5403352755267576  0.3350241708411374  0.2706150476393391  1.0000
  O   O4        1.0  0.45964808983728733  0.6649789799352205  0.7293790192560793  1.0000
  O   O5        1.0  0.5362772210464115  0.16817427406071767  0.7550974428550676  1.0000
  O   O6        1.0  0.46371931109595005  0.8318283301952575  0.24490946958452042  1.0000
  O   O7        1.0  0.508166741058929  0.008978969682459603  0.6821938917206652  1.0000
  O   O8        1.0  0.49182526036160107  0.9910236875829097  0.3178170858147454  1.0000
