data_image0
_chemical_formula_structural       Co2H16C20N28
_chemical_formula_sum              "Co2 H16 C20 N28"
_cell_length_a       8.145859070640839
_cell_length_b       8.085374514717232
_cell_length_c       11.794946427067917
_cell_angle_alpha    109.42177323304637
_cell_angle_beta     91.60878151372187
_cell_angle_gamma    99.36522671820104

_space_group_name_H-M_alt    "P 1"
_space_group_IT_number       1

loop_
  _space_group_symop_operation_xyz
  'x, y, z'

loop_
  _atom_site_type_symbol
  _atom_site_label
  _atom_site_symmetry_multiplicity
  _atom_site_fract_x
  _atom_site_fract_y
  _atom_site_fract_z
  _atom_site_occupancy
  Co  Co1       1.0  0.8020997268098924  0.9918080877235834  0.01902051136995192  1.0000
  Co  Co2       1.0  0.19789311503064513  0.008191661911631298  0.9809807038668911  1.0000
  H   H1        1.0  0.7289136172097347  0.8267642361907829  0.7538824826211511  1.0000
  H   H2        1.0  0.2710907298918741  0.17323827522010046  0.24611955575477404  1.0000
  H   H3        1.0  0.6238415824882111  0.922698601305974  0.5906560864776723  1.0000
  H   H4        1.0  0.37617214611044153  0.07730136175575097  0.40934211420253064  1.0000
  H   H5        1.0  0.6833066840950366  0.4566555564184894  0.8512474447065231  1.0000
  H   H6        1.0  0.31668078632159796  0.5433415103465435  0.14875051828393998  1.0000
  H   H7        1.0  0.7923333173391855  0.33873865978026174  0.0025554823329870043  1.0000
  H   H8        1.0  0.20764376522602387  0.6612622697741128  0.9974474564345144  1.0000
  H   H9        1.0  0.8379430131773592  0.15936503573148994  0.2839475337787434  1.0000
  H   H10       1.0  0.16205661760172066  0.8406387940895711  0.7160521940836305  1.0000
  H   H11       1.0  0.8532866726220193  0.0588424952243756  0.4593257881960682  1.0000
  H   H12       1.0  0.14672847349127247  0.9411588651530066  0.5406676728632789  1.0000
  H   H13       1.0  0.8023666137102057  0.519053187023502  0.2085105729739141  1.0000
  H   H14       1.0  0.19762979498299424  0.4809532258166128  0.7914947928383145  1.0000
  H   H15       1.0  0.7960304655963102  0.6452740757139777  0.04218938182059864  1.0000
  H   H16       1.0  0.2039525631277357  0.3547255459030437  0.9578158891623688  1.0000
  C   C1        1.0  0.7190826094718689  0.9653969804580737  0.7719964575689816  1.0000
  C   C2        1.0  0.28091559356297324  0.0346054697415639  0.22800631816967612  1.0000
  C   C3        1.0  0.659992869718373  0.018802628117327896  0.6809858281171232  1.0000
  C   C4        1.0  0.34000365651630193  0.981197161783484  0.3190146063531714  1.0000
  C   C5        1.0  0.6443775229233141  0.19719693108174846  0.707855064443912  1.0000
  C   C6        1.0  0.3556189879669632  0.8028028853604211  0.2921428324095246  1.0000
  C   C7        1.0  0.6931064510033097  0.3162939499667558  0.8255975362967691  1.0000
  C   C8        1.0  0.3068773350191877  0.683703076532687  0.17440120746024224  1.0000
  C   C9        1.0  0.7527486985936137  0.2515473703144693  0.9103407418149346  1.0000
  C   C10       1.0  0.24723451780874942  0.7484536381453848  0.08965976784526926  1.0000
  C   C11       1.0  0.8346480984294831  0.019309087734057997  0.2702031625610176  1.0000
  C   C12       1.0  0.16535088236302192  0.9806907319595196  0.7297964694408139  1.0000
  C   C13       1.0  0.8414143359128446  0.9622856999257504  0.36840359333447026  1.0000
  C   C14       1.0  0.15859426520303538  0.0377128697903117  0.6315958983717139  1.0000
  C   C15       1.0  0.8312058370175565  0.7800985204837613  0.3485804356251805  1.0000
  C   C16       1.0  0.16880175774393544  0.219901363672477  0.65142019416232  1.0000
  C   C17       1.0  0.8129618567998876  0.6622513513016626  0.228877195854686  1.0000
  C   C18       1.0  0.1870410625574834  0.3377497804877975  0.77112789039753  1.0000
  C   C19       1.0  0.8091722053828081  0.7314054183626832  0.13611841417977638  1.0000
  C   C20       1.0  0.1908231165895558  0.2685943168297129  0.8638862279500261  1.0000
  N   N1        1.0  0.009849772718276003  0.1701065941728785  0.07529167297403211  1.0000
  N   N2        1.0  0.9901431917785432  0.8298865236759237  0.924705456793163  1.0000
  N   N3        1.0  0.041111734238256786  0.2905749204390985  0.17081858233709823  1.0000
  N   N4        1.0  0.9588915005685196  0.7094209575596647  0.8291785029949922  1.0000
  N   N5        1.0  0.07825706400742403  0.40975536784499406  0.26189094870962043  1.0000
  N   N6        1.0  0.9217486355867665  0.5902405222523015  0.7381070258985789  1.0000
  N   N7        1.0  0.6131250740139649  0.7954841024796051  0.9511914007167663  1.0000
  N   N8        1.0  0.386874258031547  0.20451040149343663  0.04880615147092729  1.0000
  N   N9        1.0  0.4825268825154083  0.8104630939673069  0.910168941181695  1.0000
  N   N10       1.0  0.5174668955426757  0.1895273314456034  0.08983096595466833  1.0000
  N   N11       1.0  0.35137512197327686  0.8194278016149851  0.8696462396040234  1.0000
  N   N12       1.0  0.6486180864646657  0.18056660575833666  0.13035543343553976  1.0000
  N   N13       1.0  0.7620916565386296  0.07775669469744166  0.8866629299670239  1.0000
  N   N14       1.0  0.23789035560142932  0.9222442590539968  0.11334178735269516  1.0000
  N   N15       1.0  0.5805738974685755  0.24533760399121715  0.6140014051930152  1.0000
  N   N16       1.0  0.4194369142639971  0.7546597059930915  0.38599274077234474  1.0000
  N   N17       1.0  0.5658231571987358  0.4016509097385351  0.6334690891383588  1.0000
  N   N18       1.0  0.4341890976224719  0.5983477533258394  0.36652454656756833  1.0000
  N   N19       1.0  0.5432324910046732  0.5396311040636164  0.6371781478746217  1.0000
  N   N20       1.0  0.45678198466283243  0.46036628157476395  0.36281183383505333  1.0000
  N   N21       1.0  0.8199944242964252  0.907224596283285  0.1547307428686224  1.0000
  N   N22       1.0  0.18000022723015977  0.09277116417010225  0.8452704199115006  1.0000
  N   N23       1.0  0.8381660667637051  0.7290762351019846  0.45091993404697206  1.0000
  N   N24       1.0  0.16185390161255953  0.27093175471752323  0.5490819286510913  1.0000
  N   N25       1.0  0.8267184055881317  0.570214721954059  0.4407000530182188  1.0000
  N   N26       1.0  0.1732993368270357  0.42979455413856715  0.5593046178038109  1.0000
  N   N27       1.0  0.8165081766888919  0.43152296951283375  0.44831798986074745  1.0000
  N   N28       1.0  0.18350932689994442  0.5684850082081496  0.5516829835612144  1.0000
