data_image0
_chemical_formula_structural       Zn12H128C208N8O48
_chemical_formula_sum              "Zn12 H128 C208 N8 O48"
_cell_length_a       14.71581996523868
_cell_length_b       18.069424838006878
_cell_length_c       24.915832037391777
_cell_angle_alpha    90.00008855789076
_cell_angle_beta     90.05928600546493
_cell_angle_gamma    89.99995378401577

_space_group_name_H-M_alt    "P 1"
_space_group_IT_number       1

loop_
  _space_group_symop_operation_xyz
  'x, y, z'

loop_
  _atom_site_type_symbol
  _atom_site_label
  _atom_site_symmetry_multiplicity
  _atom_site_fract_x
  _atom_site_fract_y
  _atom_site_fract_z
  _atom_site_occupancy
  Zn  Zn1       1.0  0.5391135476745532  0.06483843172880199  0.8506644125567604  1.0000
  Zn  Zn2       1.0  0.5064023541893263  0.2561865344602198  0.8489234617802948  1.0000
  Zn  Zn3       1.0  0.4685560590730162  0.4491406697059331  0.8499589649205603  1.0000
  Zn  Zn4       1.0  0.0391135917444103  0.4351608633486209  0.3506633768039648  1.0000
  Zn  Zn5       1.0  0.006403268036102399  0.2438133317701201  0.3489230143378349  1.0000
  Zn  Zn6       1.0  0.9685566441570543  0.0508588958510927  0.34995834920930236  1.0000
  Zn  Zn7       1.0  0.9608868142869228  0.5648384987779735  0.6493364605019281  1.0000
  Zn  Zn8       1.0  0.9935957792346457  0.7561871371994401  0.6510772238699828  1.0000
  Zn  Zn9       1.0  0.0314424024699917  0.9491404662755156  0.6500410862951255  1.0000
  Zn  Zn10      1.0  0.460886859001036  0.935160930398652  0.14933622745190428  1.0000
  Zn  Zn11      1.0  0.49359737262305  0.7438128276670283  0.1510767766519407  1.0000
  Zn  Zn12      1.0  0.5314450268207053  0.5508603526840048  0.15004127396268527  1.0000
  H   H1        1.0  0.4870782355347957  0.9494350338080794  0.9289216116812892  1.0000
  H   H2        1.0  0.46507462654381726  0.8120543564185212  0.9312838257983315  1.0000
  H   H3        1.0  0.5577716687577235  0.8061104085188832  0.7664133259392328  1.0000
  H   H4        1.0  0.5762591708830058  0.9433173207475465  0.7714689257625122  1.0000
  H   H5        1.0  0.5254206690159648  0.5638698967760901  0.9270120217034118  1.0000
  H   H6        1.0  0.5482819025822252  0.7011869359297266  0.9297845785114658  1.0000
  H   H7        1.0  0.4416706197688143  0.7097205510775524  0.7678891218667088  1.0000
  H   H8        1.0  0.42486148437755844  0.5721865762418047  0.7720230152683101  1.0000
  H   H9        1.0  0.8302459527839118  0.08701277490546741  0.8169285296698375  1.0000
  H   H10       1.0  0.9875747314155774  0.13447963946101987  0.8103214373216117  1.0000
  H   H11       1.0  0.901857776524416  0.3389112673521595  0.8845250920183643  1.0000
  H   H12       1.0  0.7441141498268989  0.2913979124259  0.8881833190912685  1.0000
  H   H13       1.0  0.0119718812208731  0.3853363498679628  0.8465748407085129  1.0000
  H   H14       1.0  0.1686444676567334  0.43323433536507133  0.8453524614424238  1.0000
  H   H15       1.0  0.272830344399864  0.2117789837702091  0.8342397092352342  1.0000
  H   H16       1.0  0.1161208638891651  0.16191801897608832  0.8402931405603622  1.0000
  H   H17       1.0  0.3778684839698768  0.0196462667206916  0.9867007800425751  1.0000
  H   H18       1.0  0.28713191470244226  0.020169964259572695  0.0703624771695317  1.0000
  H   H19       1.0  0.2568526970732846  0.25696720438130427  0.0575169673039184  1.0000
  H   H20       1.0  0.34773928083458117  0.25510533358367127  0.972803377396154  1.0000
  H   H21       1.0  0.15298671415687445  0.030605352753887895  0.10539495704818339  1.0000
  H   H22       1.0  0.07400560550293278  0.0240175480756264  0.1933100811148449  1.0000
  H   H23       1.0  0.17987393298838583  0.2368754690680888  0.23653748109396122  1.0000
  H   H24       1.0  0.2612676317682627  0.24428344323861506  0.14889687802241977  1.0000
  H   H25       1.0  0.33567888330564705  0.03874844585437389  0.7340253507853873  1.0000
  H   H26       1.0  0.2353349175894053  0.038346056606293595  0.6541412760815816  1.0000
  H   H27       1.0  0.3488529641092554  0.24829343574595697  0.6052378102018423  1.0000
  H   H28       1.0  0.44438042152557955  0.24961395489525268  0.6877591750480859  1.0000
  H   H29       1.0  0.22676957787653143  0.020126243759925395  0.5714965882666972  1.0000
  H   H30       1.0  0.1275814401774511  0.013574239368267597  0.49152018073469594  1.0000
  H   H31       1.0  0.11768681132486589  0.25051315363521803  0.48340693156386283  1.0000
  H   H32       1.0  0.21696836114204388  0.25875087982338124  0.5646235464366853  1.0000
  H   H33       1.0  0.9870788209097227  0.5505660802231133  0.42892099564073743  1.0000
  H   H34       1.0  0.9650757556627311  0.6879456702199604  0.4312837654210283  1.0000
  H   H35       1.0  0.0577712729885107  0.6938884272335172  0.2664128220510378  1.0000
  H   H36       1.0  0.07625959060219858  0.5566820670717904  0.2714682682071227  1.0000
  H   H37       1.0  0.025421392632864595  0.9361309623221886  0.42701219131701856  1.0000
  H   H38       1.0  0.0482814028518277  0.7988133606671467  0.4297841923072311  1.0000
  H   H39       1.0  0.9416689286850186  0.79027858964524  0.2678883726645225  1.0000
  H   H40       1.0  0.9248596573439443  0.9278131377189143  0.2720228216772114  1.0000
  H   H41       1.0  0.33024398181154874  0.4129873644033495  0.316929475128397  1.0000
  H   H42       1.0  0.48757280682968224  0.36552148951667357  0.31032152683867753  1.0000
  H   H43       1.0  0.40185945187700867  0.16109007576319812  0.38452455201694846  1.0000
  H   H44       1.0  0.2441157784248489  0.2086024350145195  0.3881832337321  1.0000
  H   H45       1.0  0.511971723544697  0.11466406113390087  0.3465742963362003  1.0000
  H   H46       1.0  0.6686436775760425  0.06676541693614979  0.3453514617704911  1.0000
  H   H47       1.0  0.7728306936570205  0.28821956975228596  0.3342385570476906  1.0000
  H   H48       1.0  0.6161225231469488  0.33808120355530485  0.340292446099177  1.0000
  H   H49       1.0  0.8778666048778091  0.4803542027863514  0.4867006453815961  1.0000
  H   H50       1.0  0.7871314588053195  0.4798313386796877  0.5703631756783025  1.0000
  H   H51       1.0  0.7568524754781761  0.24303353763455954  0.5575169988670153  1.0000
  H   H52       1.0  0.8477383145812992  0.24489567950470095  0.4728029788674489  1.0000
  H   H53       1.0  0.6529869481417307  0.46939334557023216  0.6053956440761041  1.0000
  H   H54       1.0  0.5740058326384841  0.47598083574096955  0.6933103741801502  1.0000
  H   H55       1.0  0.6798757301100764  0.263123490808823  0.7365375358662544  1.0000
  H   H56       1.0  0.7612701157711399  0.25571527672740757  0.6488969247107618  1.0000
  H   H57       1.0  0.8356777023596396  0.4612515134086408  0.23402479357258693  1.0000
  H   H58       1.0  0.7353337365668793  0.46165379836232023  0.15414112067143995  1.0000
  H   H59       1.0  0.8488526709707358  0.2517056873009906  0.1052378208887959  1.0000
  H   H60       1.0  0.944380130017528  0.2503852812177385  0.1877595856053844  1.0000
  H   H61       1.0  0.7267697378836714  0.4798734408885251  0.07149645374204279  1.0000
  H   H62       1.0  0.627581656642846  0.48642529758394193  0.9915200841625731  1.0000
  H   H63       1.0  0.6176859034720649  0.24948692595128114  0.9834065687890785  1.0000
  H   H64       1.0  0.7169673988230868  0.241249903459746  0.06462354517036319  1.0000
  H   H65       1.0  0.0129202260386236  0.44943494216706625  0.571078841216007  1.0000
  H   H66       1.0  0.0349260100939262  0.3120559055912295  0.5687168750389517  1.0000
  H   H67       1.0  0.9422284538233184  0.3061120417358225  0.7335874163818232  1.0000
  H   H68       1.0  0.923740135887506  0.44331840189712307  0.7285315688743451  1.0000
  H   H69       1.0  0.9745783341789647  0.0638695066471513  0.5729880471158423  1.0000
  H   H70       1.0  0.9517176440965185  0.2011876617230328  0.5702156445495135  1.0000
  H   H71       1.0  0.058328079962755894  0.20972132590394213  0.7321118648678747  1.0000
  H   H72       1.0  0.07513735162567768  0.07218733125174029  0.7279778172068772  1.0000
  H   H73       1.0  0.6697550657815939  0.5870125511455981  0.683071164430501  1.0000
  H   H74       1.0  0.5124262404402414  0.6344806397160241  0.6896787113700781  1.0000
  H   H75       1.0  0.5981416336943113  0.8389115000473595  0.6154752855152239  1.0000
  H   H76       1.0  0.7558853071472953  0.7913974805329003  0.6118166037991414  1.0000
  H   H77       1.0  0.4880286821639644  0.8853364078343589  0.6534251396189246  1.0000
  H   H78       1.0  0.33135604859181456  0.9332344986112914  0.6546479739592854  1.0000
  H   H79       1.0  0.2271710704903782  0.7117792389515359  0.6657600766538037  1.0000
  H   H80       1.0  0.3838792413222976  0.6619181585699893  0.6597065889540088  1.0000
  H   H81       1.0  0.1221324420702672  0.519647373024874  0.5132991914754541  1.0000
  H   H82       1.0  0.21286758846515855  0.5201696837109183  0.4296370625298279  1.0000
  H   H83       1.0  0.2431465711483227  0.7569669313341476  0.4424824366380306  1.0000
  H   H84       1.0  0.15226141223025283  0.7551053428856848  0.5271972595657175  1.0000
  H   H85       1.0  0.347012099451419  0.5306065699787085  0.3946049954827942  1.0000
  H   H86       1.0  0.42599321495521275  0.5240179729658789  0.30669026537812977  1.0000
  H   H87       1.0  0.3201246762436583  0.7368753178971515  0.26346270279071854  1.0000
  H   H88       1.0  0.23872961104096646  0.7442846388208864  0.35110331372178644  1.0000
  H   H89       1.0  0.1643199861521651  0.5387467418776098  0.7659758455353014  1.0000
  H   H90       1.0  0.2646673486831332  0.538346117184673  0.8458583155084082  1.0000
  H   H91       1.0  0.15114637630055938  0.7482936748264776  0.8947624173184037  1.0000
  H   H92       1.0  0.05561823803508759  0.7496135274893375  0.8122410537278524  1.0000
  H   H93       1.0  0.27323134833190477  0.520128134922885  0.9285041864929012  1.0000
  H   H94       1.0  0.3724194289287511  0.5135757248055697  0.008479753369286398  1.0000
  H   H95       1.0  0.3823138233397644  0.7505135430180588  0.016593669643782494  1.0000
  H   H96       1.0  0.28303164844738404  0.7587511189308599  0.9353766930377673  1.0000
  H   H97       1.0  0.5129221714626411  0.050564881740840006  0.0710794296790738  1.0000
  H   H98       1.0  0.5349251009130781  0.1879444522885336  0.06871721533637037  1.0000
  H   H99       1.0  0.44222805869917886  0.19388840018817177  0.23358771519547614  1.0000
  H   H100      1.0  0.4237398770328156  0.056681487959728806  0.22853211514715344  1.0000
  H   H101      1.0  0.47457905715133814  0.43613112561343564  0.07298741402698278  1.0000
  H   H102      1.0  0.45171782390720244  0.29881408646023283  0.07021525857031459  1.0000
  H   H103      1.0  0.5583304661254543  0.2902793644702939  0.23211111701591844  1.0000
  H   H104      1.0  0.5751402810580686  0.42781278588477534  0.22797722383904775  1.0000
  H   H105      1.0  0.1697558126517151  0.9129865872211127  0.18307170943751314  1.0000
  H   H106      1.0  0.0124263544778671  0.865521936349964  0.18967880156194633  1.0000
  H   H107      1.0  0.0981412707460549  0.6610897550384464  0.11547514618976609  1.0000
  H   H108      1.0  0.2558848977662437  0.7086020031230403  0.1118173204676296  1.0000
  H   H109      1.0  0.9880292053173747  0.6146641191017892  0.15342620087719885  1.0000
  H   H110      1.0  0.8313559383735054  0.5667672404457135  0.15464737586470526  1.0000
  H   H111      1.0  0.7271700609863957  0.7882220386186702  0.16575932536881058  1.0000
  H   H112      1.0  0.8838788626005396  0.8380824499928181  0.15970669652110558  1.0000
  H   H113      1.0  0.6221312425203747  0.9803530954061299  0.0132990570382745  1.0000
  H   H114      1.0  0.7128671325688529  0.9798293978678956  0.9296377610376678  1.0000
  H   H115      1.0  0.7431470294164201  0.7430332645876021  0.9424828697775494  1.0000
  H   H116      1.0  0.6522604456553934  0.7448945819641961  0.0271964596850083  1.0000
  H   H117      1.0  0.8470130120117999  0.9693929025304086  0.8946044786806622  1.0000
  H   H118      1.0  0.9259934414462307  0.9759818140514155  0.8066897557409688  1.0000
  H   H119      1.0  0.8201244337754545  0.7631238930583207  0.7634615528340375  1.0000
  H   H120      1.0  0.7387307353179723  0.755715365467175  0.8511025572566522  1.0000
  H   H121      1.0  0.6643215230475408  0.9612514696936997  0.2659748878722041  1.0000
  H   H122      1.0  0.7646654881198033  0.9616533055198742  0.34585815987291807  1.0000
  H   H123      1.0  0.6511474419220776  0.7517059263806374  0.3947620271040434  1.0000
  H   H124      1.0  0.5556199841836359  0.7503854072309154  0.3122402609064138  1.0000
  H   H125      1.0  0.773230828476926  0.9798731183671022  0.42850365039058147  1.0000
  H   H126      1.0  0.8724182866349255  0.9864251227589801  0.5084800576975397  1.0000
  H   H127      1.0  0.8823142748915274  0.7494867619130543  0.5165937086701574  1.0000
  H   H128      1.0  0.7830327247519476  0.7412495891455108  0.4353766924462547  1.0000
  C   C1        1.0  0.5021001600376848  0.9149612880886548  0.8941783757806475  1.0000
  C   C2        1.0  0.4901396117181989  0.838855384059805  0.8950416923148125  1.0000
  C   C3        1.0  0.5093110428106372  0.7976918710565996  0.8487272639676533  1.0000
  C   C4        1.0  0.5404708380964748  0.8355900856257108  0.8031882472393332  1.0000
  C   C5        1.0  0.5516214586787241  0.9118083381099635  0.8058176227548728  1.0000
  C   C6        1.0  0.5079223229791979  0.5988648927047606  0.8929576105420266  1.0000
  C   C7        1.0  0.520275179730973  0.6749342729012894  0.8940534195115786  1.0000
  C   C8        1.0  0.49738982409813554  0.7167938931594549  0.8486365788414642  1.0000
  C   C9        1.0  0.46238601971603543  0.6796011954605417  0.8037735589236588  1.0000
  C   C10       1.0  0.45185766541523253  0.6033098963451948  0.8059834818425954  1.0000
  C   C11       1.0  0.6826723326706912  0.15834883975251296  0.857910642978851  1.0000
  C   C12       1.0  0.7776765971313324  0.186198611035401  0.8533077172611738  1.0000
  C   C13       1.0  0.8468804919416826  0.1422774105716087  0.8314276669034085  1.0000
  C   C14       1.0  0.9351385658695863  0.1693584835190975  0.8280341861844817  1.0000
  C   C15       1.0  0.957386677081672  0.24080902705076565  0.8466329880923738  1.0000
  C   C16       1.0  0.8868930213248234  0.2841303195327924  0.8685222434231006  1.0000
  C   C17       1.0  0.7984586116172566  0.2576015604038062  0.87149906342551  1.0000
  C   C18       1.0  0.05126528260004189  0.269664140568004  0.8435001929354796  1.0000
  C   C19       1.0  0.0684565736535276  0.34637880825619755  0.844724832934375  1.0000
  C   C20       1.0  0.1566789641210704  0.37382071398076994  0.8434388361811711  1.0000
  C   C21       1.0  0.23064293863361482  0.3253830615820661  0.8392061701051857  1.0000
  C   C22       1.0  0.2147125978717881  0.24895783141872124  0.8367891318396089  1.0000
  C   C23       1.0  0.1265199914614357  0.22165815654227577  0.8396243544834545  1.0000
  C   C24       1.0  0.32623561549185354  0.3529954185550395  0.8379025466506318  1.0000
  C   C25       1.0  0.4247159783129675  0.13633390635725814  0.9248966230901912  1.0000
  C   C26       1.0  0.3686042152391948  0.1374347323336522  0.9748109572230348  1.0000
  C   C27       1.0  0.3503206749691827  0.07136629854861809  0.0021753867520785996  1.0000
  C   C28       1.0  0.2987952278181822  0.07184064691771402  0.04882022640612859  1.0000
  C   C29       1.0  0.26527559289108643  0.13862531876426232  0.07012693673203069  1.0000
  C   C30       1.0  0.2838345969480329  0.20477902126104647  0.042305428781411095  1.0000
  C   C31       1.0  0.33401741655745815  0.20421608272506828  0.9949164711068476  1.0000
  C   C32       1.0  0.21397709332745052  0.13754677208270755  0.1209804202118363  1.0000
  C   C33       1.0  0.16019181404762856  0.0757363138725893  0.13411967155428778  1.0000
  C   C34       1.0  0.11564574624262751  0.07178772140758839  0.18307097774872716  1.0000
  C   C35       1.0  0.1235794853161991  0.12935848981375386  0.22048359037590606  1.0000
  C   C36       1.0  0.1751569963934614  0.19203505276517768  0.2074198651314134  1.0000
  C   C37       1.0  0.2195485841482849  0.1960351131407236  0.1581891673156619  1.0000
  C   C38       1.0  0.07789118673571949  0.12328974630197113  0.2737634920410058  1.0000
  C   C39       1.0  0.45721458129721526  0.14200296909876187  0.7634831003956819  1.0000
  C   C40       1.0  0.3966459004468277  0.14380210961117967  0.71542169621938  1.0000
  C   C41       1.0  0.3373718957234003  0.08455618190003379  0.7056106677502852  1.0000
  C   C42       1.0  0.2818675406738008  0.08447590609529948  0.6605703053301181  1.0000
  C   C43       1.0  0.2852129135046582  0.14307263917968527  0.6233441079284602  1.0000
  C   C44       1.0  0.3440288037179116  0.20280059753594054  0.6338726010490631  1.0000
  C   C45       1.0  0.398536820240082  0.20356324254441918  0.6795961351342114  1.0000
  C   C46       1.0  0.22839065986568838  0.14009354040310737  0.574580372953413  1.0000
  C   C47       1.0  0.2027736263321529  0.07113560308502538  0.5528972762346952  1.0000
  C   C48       1.0  0.14714092501403536  0.0671088819538639  0.507962825835527  1.0000
  C   C49       1.0  0.11482331721644098  0.13175397886852377  0.48344725584203013  1.0000
  C   C50       1.0  0.1415877111797812  0.2007545278205782  0.5038050692645724  1.0000
  C   C51       1.0  0.197812902765655  0.2047353147186755  0.5486530239720578  1.0000
  C   C52       1.0  0.05230785530589801  0.127796988751065  0.4363580792415219  1.0000
  C   C53       1.0  0.0020998730859673994  0.5850389629767817  0.39417895385926016  1.0000
  C   C54       1.0  0.9901400875295395  0.6611434421578507  0.3950412003001346  1.0000
  C   C55       1.0  0.0093106386997803  0.7023077251051149  0.3487267695221944  1.0000
  C   C56       1.0  0.0404704718584483  0.6644088397514311  0.3031881116379012  1.0000
  C   C57       1.0  0.0516225263970469  0.5881911389765122  0.3058165994139515  1.0000
  C   C58       1.0  0.007922401085693299  0.9011336916817141  0.3929569379758319  1.0000
  C   C59       1.0  0.020275333853469097  0.825063198880997  0.3940534643274134  1.0000
  C   C60       1.0  0.9973888195626798  0.7832075966254166  0.3486358219321061  1.0000
  C   C61       1.0  0.9623849786525014  0.820398008076836  0.30377324508008025  1.0000
  C   C62       1.0  0.9518572279792891  0.8966898722170386  0.30598285244200696  1.0000
  C   C63       1.0  0.1826711135315477  0.3416509300933726  0.3579135154079863  1.0000
  C   C64       1.0  0.2776781218165922  0.31380385385145365  0.3533081512470844  1.0000
  C   C65       1.0  0.34687857540404815  0.3577238555427654  0.3314281490258821  1.0000
  C   C66       1.0  0.435138714465623  0.3306427175292086  0.3280342372562615  1.0000
  C   C67       1.0  0.457386216609784  0.2591910921675264  0.34663255744753485  1.0000
  C   C68       1.0  0.386893284283488  0.21587099932500556  0.3685229684685749  1.0000
  C   C69       1.0  0.29845952847676926  0.24239816248503127  0.3715006211528119  1.0000
  C   C70       1.0  0.5512656885659197  0.2303362381354503  0.3434981731216595  1.0000
  C   C71       1.0  0.5684556968699327  0.15362156178851194  0.3447231279779713  1.0000
  C   C72       1.0  0.6566787943907499  0.12617959550895821  0.3434375020220699  1.0000
  C   C73       1.0  0.730640680999315  0.17461553015998277  0.3392032841925712  1.0000
  C   C74       1.0  0.7147109443766411  0.2510413190394515  0.33678673322297936  1.0000
  C   C75       1.0  0.6265203495403853  0.27834105774887524  0.3396219871615428  1.0000
  C   C76       1.0  0.8262361043466768  0.1470042146065751  0.33790083472264587  1.0000
  C   C77       1.0  0.9247155729542483  0.36366474061467363  0.4248951539461672  1.0000
  C   C78       1.0  0.8686031330392936  0.3625668247764438  0.4748114933778495  1.0000
  C   C79       1.0  0.8503202685103659  0.42863426440039365  0.5021744224326028  1.0000
  C   C80       1.0  0.7987961818781101  0.42815949567590644  0.5488204660586291  1.0000
  C   C81       1.0  0.7652772929861626  0.3613743377333877  0.5701275030543727  1.0000
  C   C82       1.0  0.7838350028629932  0.29522111726815575  0.5423051177525693  1.0000
  C   C83       1.0  0.8340163995603902  0.29578387958775915  0.49491572830402214  1.0000
  C   C84       1.0  0.7139781131343098  0.3624541331330774  0.6209813888709376  1.0000
  C   C85       1.0  0.6601914138518125  0.42426354772155855  0.634121110441299  1.0000
  C   C86       1.0  0.6156453414904136  0.4282117201654572  0.6830716183615023  1.0000
  C   C87       1.0  0.6235791379284522  0.37064102620373524  0.720484567768203  1.0000
  C   C88       1.0  0.6751580695449633  0.30796440163909716  0.7074199699723634  1.0000
  C   C89       1.0  0.7195496619074506  0.30396420737008606  0.658190070372818  1.0000
  C   C90       1.0  0.5778901534719197  0.37670935965830665  0.7737640746634112  1.0000
  C   C91       1.0  0.9572128237620416  0.35799531296159876  0.263483229848454  1.0000
  C   C92       1.0  0.8966427849667937  0.35619832351470376  0.21542102050257475  1.0000
  C   C93       1.0  0.8373727997549024  0.41544260892301565  0.20561126388773224  1.0000
  C   C94       1.0  0.7818670842540313  0.41552503890463294  0.16056929570318348  1.0000
  C   C95       1.0  0.7852111563838093  0.3569282243818677  0.1233434334801586  1.0000
  C   C96       1.0  0.8440264262362903  0.2971991430509391  0.13387185938365317  1.0000
  C   C97       1.0  0.8985344435149045  0.2964348993926579  0.1795953926125193  1.0000
  C   C98       1.0  0.7283895796568699  0.3599061497479425  0.07458010342226369  1.0000
  C   C99       1.0  0.7027717979342897  0.42886571795872197  0.0528966824718893  1.0000
  C   C100      1.0  0.6471404523531278  0.4328918264727831  0.0079630397416395  1.0000
  C   C101      1.0  0.6148236510990231  0.36824554925955505  0.9834474280697946  1.0000
  C   C102      1.0  0.6415873712605702  0.29924506855257965  0.0038055346232611  1.0000
  C   C103      1.0  0.6978112073866499  0.2952637868574826  0.048653083064110085  1.0000
  C   C104      1.0  0.5523054674253557  0.37220303352664535  0.9363586563589973  1.0000
  C   C105      1.0  0.9979012131298717  0.4149620594135826  0.6058216863753784  1.0000
  C   C106      1.0  0.0098630369877029  0.33885702681037333  0.6049590392579204  1.0000
  C   C107      1.0  0.9906911267352996  0.297692743863557  0.6512734695857816  1.0000
  C   C108      1.0  0.9595306140352731  0.33559218263850704  0.6968121272453444  1.0000
  C   C109      1.0  0.9483785594966745  0.4118098834134258  0.694183639469294  1.0000
  C   C110      1.0  0.9920746069172778  0.09886733070869982  0.6070424968544046  1.0000
  C   C111      1.0  0.9797223546580582  0.17493560982629924  0.6059471747807876  1.0000
  C   C112      1.0  0.0026095478445852995  0.2167934257649904  0.6513640146995952  1.0000
  C   C113      1.0  0.0376120306395222  0.17960190747319874  0.6962277951550887  1.0000
  C   C114      1.0  0.0481391014495216  0.1033100433327974  0.6940177862167329  1.0000
  C   C115      1.0  0.8173265762684777  0.658347878615629  0.6420887291057652  1.0000
  C   C116      1.0  0.7223236429736842  0.6861977219584573  0.6466912851587309  1.0000
  C   C117      1.0  0.6531191127842604  0.6422771668482881  0.6685720887321763  1.0000
  C   C118      1.0  0.5648610117016801  0.6693583048603171  0.6719651984741333  1.0000
  C   C119      1.0  0.5426135095580662  0.7408088233799149  0.6533668782822415  1.0000
  C   C120      1.0  0.6131071220691524  0.7841300230651597  0.6314772701896345  1.0000
  C   C121      1.0  0.7015415580620258  0.7576011996426215  0.6285004204322816  1.0000
  C   C122      1.0  0.44873539539587165  0.769663123988785  0.6564996576523325  1.0000
  C   C123      1.0  0.43154402800914937  0.8463789071782627  0.6552747023465526  1.0000
  C   C124      1.0  0.3433202515917698  0.8738203200378506  0.6565611307798846  1.0000
  C   C125      1.0  0.26935700493548603  0.8253827251228499  0.6607941441042087  1.0000
  C   C126      1.0  0.2852887801808635  0.748958043084805  0.663210695749541  1.0000
  C   C127      1.0  0.3734807340992816  0.721658304374941  0.6603754422610564  1.0000
  C   C128      1.0  0.1737643000734863  0.8529962543599723  0.6620969958269284  1.0000
  C   C129      1.0  0.07528619119315039  0.6363340680891482  0.5751034797553202  1.0000
  C   C130      1.0  0.13139659344986399  0.6374347510345615  0.5251883437042437  1.0000
  C   C131      1.0  0.149678777471884  0.5713662045674538  0.4978242103696643  1.0000
  C   C132      1.0  0.20120286507051333  0.5718409732932274  0.4511793707978028  1.0000
  C   C133      1.0  0.2347231136888723  0.6386261312361582  0.4298731369549102  1.0000
  C   C134      1.0  0.2161640434413812  0.7047793517001252  0.4576939164010837  1.0000
  C   C135      1.0  0.1659826470658317  0.7042171428019942  0.5050837072013364  1.0000
  C   C136      1.0  0.2860216136777963  0.6375457824152092  0.3790188495616106  1.0000
  C   C137      1.0  0.3398083132824112  0.5757363678271618  0.3658795293426422  1.0000
  C   C138      1.0  0.3843537057808746  0.5717876419620109  0.3169286198456973  1.0000
  C   C139      1.0  0.3764199096649675  0.6293583359241595  0.27951607179038257  1.0000
  C   C140      1.0  0.32484165694528855  0.6920349604877175  0.29257986710848627  1.0000
  C   C141      1.0  0.280450064904656  0.6960357081782007  0.3418101680597373  1.0000
  C   C142      1.0  0.42210957366258123  0.6232900024693678  0.22623656512021734  1.0000
  C   C143      1.0  0.042784187142253  0.6420012820642994  0.736519817141797  1.0000
  C   C144      1.0  0.10335490354445649  0.6438010386136381  0.7845796186059387  1.0000
  C   C145      1.0  0.1626282864625921  0.5845550929410732  0.7943893763450374  1.0000
  C   C146      1.0  0.2181340009959882  0.5844748766423606  0.8394301404766651  1.0000
  C   C147      1.0  0.21479060711824619  0.6430727980052852  0.8766543975198002  1.0000
  C   C148      1.0  0.15597194149336957  0.7028013259188413  0.8661283785991285  1.0000
  C   C149      1.0  0.1014646040793394  0.7035628024720992  0.8204052469451425  1.0000
  C   C150      1.0  0.27161014651071  0.6400943192205374  0.9254193323078183  1.0000
  C   C151      1.0  0.29722792855486807  0.5711358578522763  0.9471031546102039  1.0000
  C   C152      1.0  0.3528599543221773  0.5671080890757095  0.9920376002673378  1.0000
  C   C153      1.0  0.38517743447312114  0.6317543662878647  0.016552409461446895  1.0000
  C   C154      1.0  0.3584130354144648  0.7007554004169588  0.9961951053860287  1.0000
  C   C155      1.0  0.3021891992883852  0.7047366821120561  0.9513475569451797  1.0000
  C   C156      1.0  0.4476962983318415  0.627797435442453  0.06364198410037149  1.0000
  C   C157      1.0  0.49790160475368583  0.0850380740370653  0.10582106062393137  1.0000
  C   C158      1.0  0.5098621537182453  0.16114231780363747  0.10495854679160739  1.0000
  C   C159      1.0  0.4906900434057563  0.2023080444916729  0.1512733762663672  1.0000
  C   C160      1.0  0.4595282088524186  0.1644098299223771  0.19681158961678588  1.0000
  C   C161      1.0  0.4483796278600635  0.08819102401768929  0.19418341883022086  1.0000
  C   C162      1.0  0.49207808305241224  0.4011339160007877  0.10704222676355357  1.0000
  C   C163      1.0  0.4797245467603801  0.3250628755413416  0.1059464175680347  1.0000
  C   C164      1.0  0.5026105832216955  0.2832054689688519  0.1513648638699792  1.0000
  C   C165      1.0  0.5376150658566557  0.3203976132447863  0.19622627860696434  1.0000
  C   C166      1.0  0.5481440993753208  0.39669112604367035  0.19401595456291423  1.0000
  C   C167      1.0  0.31732943212013953  0.8416516292153062  0.1420887934263533  1.0000
  C   C168      1.0  0.22232380986610423  0.8138013045135182  0.1466933240991963  1.0000
  C   C169      1.0  0.153120593952039  0.8577236118183292  0.16857257197984407  1.0000
  C   C170      1.0  0.064862519702281  0.8306419854493683  0.1719656513470724  1.0000
  C   C171      1.0  0.0426130506965379  0.7591914419198531  0.15336845439465208  1.0000
  C   C172      1.0  0.1131073850278099  0.7158707028573659  0.13147799523510878  1.0000
  C   C173      1.0  0.20154247459941388  0.7423978017234275  0.12850157680819047  1.0000
  C   C174      1.0  0.948733764670429  0.7303368818226018  0.1565000452726508  1.0000
  C   C175      1.0  0.9315431534807034  0.6536211072925225  0.15527580684956624  1.0000
  C   C176      1.0  0.8433200825051513  0.6261803084089833  0.1565605993241803  1.0000
  C   C177      1.0  0.769358146293456  0.6746185142276389  0.16079286472420048  1.0000
  C   C178      1.0  0.7852871286179165  0.7510426375501852  0.16321070524185893  1.0000
  C   C179      1.0  0.8734797347058745  0.7783428658472499  0.16037508124693994  1.0000
  C   C180      1.0  0.6737641093874984  0.6470044969906894  0.16209528367358664  1.0000
  C   C181      1.0  0.5752844280402128  0.8636660091908084  0.07510361556739298  1.0000
  C   C182      1.0  0.6313961907921453  0.862564629792942  0.025188880082858096  1.0000
  C   C183      1.0  0.6496790515207922  0.9286336169992495  0.9978244503290836  1.0000
  C   C184      1.0  0.7012044980278205  0.9281587152082553  0.9511788079719421  1.0000
  C   C185      1.0  0.7347234537354126  0.8613751502044451  0.9298724987730153  1.0000
  C   C186      1.0  0.7161651301859209  0.7952214477087195  0.9576952110028356  1.0000
  C   C187      1.0  0.665980951817005  0.7957832794034799  0.005084569578087899  1.0000
  C   C188      1.0  0.7860233123812107  0.8624536968855522  0.8790190157432886  1.0000
  C   C189      1.0  0.8398092712026609  0.9242630482533586  0.8658797646252551  1.0000
  C   C190      1.0  0.8843539805697488  0.9282116407196594  0.8169292606835156  1.0000
  C   C191      1.0  0.8764195616329643  0.8706408723132881  0.7795162464799076  1.0000
  C   C192      1.0  0.8248413710146281  0.8079643093620916  0.7925799714993644  1.0000
  C   C193      1.0  0.7804511420201194  0.8039636955646259  0.8418102684134893  1.0000
  C   C194      1.0  0.922108539753438  0.8767118295090341  0.72623634504108  1.0000
  C   C195      1.0  0.5427851455154382  0.857995839607433  0.23651713803624827  1.0000
  C   C196      1.0  0.6033565445296035  0.856197805936219  0.2845785431133265  1.0000
  C   C197      1.0  0.6626271509041927  0.9154420733844828  0.29438876775351724  1.0000
  C   C198      1.0  0.7181342250831263  0.9155251162948445  0.33943033512955617  1.0000
  C   C199      1.0  0.714789531148824  0.8569289366304317  0.37665573005378405  1.0000
  C   C200      1.0  0.6559722824979345  0.7972004248544239  0.3661280391855755  1.0000
  C   C201      1.0  0.6014656250592979  0.7964350127402683  0.32040450554895017  1.0000
  C   C202      1.0  0.7716090669464107  0.8599063751451865  0.4254198654791352  1.0000
  C   C203      1.0  0.7972274598836933  0.9288654193053388  0.4471033639999433  1.0000
  C   C204      1.0  0.8528588017977937  0.9328915870154687  0.4920374125973338  1.0000
  C   C205      1.0  0.8851757300548541  0.8682453832589445  0.5165529823651694  1.0000
  C   C206      1.0  0.8584120153101936  0.7992453877272891  0.4961947678165899  1.0000
  C   C207      1.0  0.8021875032656779  0.7952640474079189  0.4513468133338349  1.0000
  C   C208      1.0  0.9476925520128389  0.8722045870614251  0.563643363471165  1.0000
  N   N1        1.0  0.5326742559672083  0.950858887654441  0.8504123339306912  1.0000
  N   N2        1.0  0.4742421928242067  0.5634829899444469  0.8497000337677532  1.0000
  N   N3        1.0  0.0326733243983384  0.5491412502045563  0.35041206881834336  1.0000
  N   N4        1.0  0.9742430753316994  0.936515750169114  0.3496998508382845  1.0000
  N   N5        1.0  0.9673264020916362  0.45085866534331115  0.649587768262812  1.0000
  N   N6        1.0  0.025753933960317  0.06348416538092039  0.6503011893968847  1.0000
  N   N7        1.0  0.4673295484135167  0.049141027892943584  0.14958830720347996  1.0000
  N   N8        1.0  0.5257595722887415  0.43651747902379157  0.1502998039888368  1.0000
  O   O1        1.0  0.6673887291907689  0.0915509072397924  0.8417214550569125  1.0000
  O   O2        1.0  0.6226667851803073  0.19977687369285488  0.8781975640440791  1.0000
  O   O3        1.0  0.3398487201890886  0.42038163793943534  0.8538587993028486  1.0000
  O   O4        1.0  0.38779687424746356  0.3104976251476046  0.8213033544047476  1.0000
  O   O5        1.0  0.47854526268378816  0.08038578277236039  0.9199456891115573  1.0000
  O   O6        1.0  0.41535208579393407  0.18792544385175347  0.8912872041825037  1.0000
  O   O7        1.0  0.0253615213118579  0.06683860965110001  0.27991122152389636  1.0000
  O   O8        1.0  0.094302128606607  0.17128632592775966  0.30938968262043426  1.0000
  O   O9        1.0  0.4601404549133719  0.0796894452795556  0.7885588570584757  1.0000
  O   O10       1.0  0.5017203904263496  0.1991719155184555  0.7761653203026454  1.0000
  O   O11       1.0  0.043293849223076095  0.06359625305053379  0.41443445516628674  1.0000
  O   O12       1.0  0.011495750304249  0.18575566586478934  0.42170450558647576  1.0000
  O   O13       1.0  0.16738812244039994  0.40845105184178715  0.3417231985793307  1.0000
  O   O14       1.0  0.12266764571052849  0.300226299190463  0.3782003906841779  1.0000
  O   O15       1.0  0.8398492764567038  0.07961636000579381  0.3538578144957184  1.0000
  O   O16       1.0  0.8877946041195699  0.18950027207249323  0.3213032946471017  1.0000
  O   O17       1.0  0.9785468424456453  0.4196144786475741  0.4199466915038171  1.0000
  O   O18       1.0  0.9153517318737413  0.31207645823616303  0.3912860785261429  1.0000
  O   O19       1.0  0.5253624717051935  0.4331594369809082  0.7799130721910997  1.0000
  O   O20       1.0  0.5943011438665807  0.3287100780140547  0.8093914154620804  1.0000
  O   O21       1.0  0.9601379560949399  0.42030999508671124  0.2885590561782863  1.0000
  O   O22       1.0  0.0017164900273769  0.3008289057359618  0.27616373117940185  1.0000
  O   O23       1.0  0.5432913977324388  0.4364009613587001  0.9144351042903193  1.0000
  O   O24       1.0  0.5114927399894141  0.31423992459656347  0.921704616118049  1.0000
  O   O25       1.0  0.8326109254737731  0.5915510773917702  0.6582778423321967  1.0000
  O   O26       1.0  0.8773327612855367  0.6997763834636929  0.6218006506777342  1.0000
  O   O27       1.0  0.1601497685608138  0.9203807884344994  0.646139614250522  1.0000
  O   O28       1.0  0.1122030840698329  0.8104985366343769  0.6786969431097134  1.0000
  O   O29       1.0  0.0214583216617683  0.5803848834791764  0.5800547527828995  1.0000
  O   O30       1.0  0.0846486741559502  0.6879262244167136  0.6087137587816045  1.0000
  O   O31       1.0  0.474639294052281  0.566840478567144  0.22008756826795658  1.0000
  O   O32       1.0  0.4056979040495108  0.6712881772721743  0.19060962544728  1.0000
  O   O33       1.0  0.0398576944373161  0.5796893670431512  0.711442384957884  1.0000
  O   O34       1.0  0.9982791595382353  0.6991710098136678  0.7238365059029093  1.0000
  O   O35       1.0  0.456709008298894  0.5635984007678945  0.08556473301556619  1.0000
  O   O36       1.0  0.488509024479562  0.6857599909497836  0.07829441893545659  1.0000
  O   O37       1.0  0.33261235638110526  0.9084495617286802  0.1582783824746414  1.0000
  O   O38       1.0  0.3773343003912899  0.8002241486966567  0.1218022734877806  1.0000
  O   O39       1.0  0.6601530429913894  0.5796182776051991  0.14613863034509217  1.0000
  O   O40       1.0  0.6122028499881865  0.6895011835551798  0.17869367321607393  1.0000
  O   O41       1.0  0.5214571819699713  0.9196152396167104  0.08005414887038138  1.0000
  O   O42       1.0  0.5846483215250801  0.8120755785396837  0.10871423852987049  1.0000
  O   O43       1.0  0.9746348065057829  0.9331624127386885  0.7200874103785253  1.0000
  O   O44       1.0  0.9056982764588993  0.8287119293554567  0.6906089506306684  1.0000
  O   O45       1.0  0.539860630981174  0.920309916847245  0.21144138182383895  1.0000
  O   O46       1.0  0.4982806957897735  0.80082855345087  0.22383531993168043  1.0000
  O   O47       1.0  0.9567051980484961  0.9364025556558886  0.5855657830406074  1.0000
  O   O48       1.0  0.9885046563732518  0.8142398223153364  0.5782961344200217  1.0000
