data_image0
_chemical_formula_structural       La2H26C32O24
_chemical_formula_sum              "La2 H26 C32 O24"
_cell_length_a       9.045216139285744
_cell_length_b       9.893945796334163
_cell_length_c       12.204246855912515
_cell_angle_alpha    100.14194551143336
_cell_angle_beta     104.11544819338853
_cell_angle_gamma    108.4227201097465

_space_group_name_H-M_alt    "P 1"
_space_group_IT_number       1

loop_
  _space_group_symop_operation_xyz
  'x, y, z'

loop_
  _atom_site_type_symbol
  _atom_site_label
  _atom_site_symmetry_multiplicity
  _atom_site_fract_x
  _atom_site_fract_y
  _atom_site_fract_z
  _atom_site_occupancy
  La  La1       1.0  0.2690735429035485  0.03780903958642771  0.9595710252918862  1.0000
  La  La2       1.0  0.7309270197462254  0.9621902286042215  0.040423291213542774  1.0000
  H   H1        1.0  0.6836782166233064  0.42748554690323465  0.3287774335614486  1.0000
  H   H2        1.0  0.3163202791896183  0.5725114906466972  0.6712178205171782  1.0000
  H   H3        1.0  0.6784756652326537  0.4646761487510604  0.685360024461609  1.0000
  H   H4        1.0  0.32152916029617984  0.5353273610109925  0.31464715610125893  1.0000
  H   H5        1.0  0.28420534203876  0.11962017209667411  0.39864802950229716  1.0000
  H   H6        1.0  0.715811172175016  0.8803788745890345  0.6013547490314792  1.0000
  H   H7        1.0  0.3416336828518567  0.49811311069856157  0.05260243832329082  1.0000
  H   H8        1.0  0.6583734071156826  0.5018903918321557  0.9474043134114538  1.0000
  H   H9        1.0  0.22537809691526434  0.8634965102716167  0.2058431622046655  1.0000
  H   H10       1.0  0.7746159259746078  0.1365061620770405  0.794149728059999  1.0000
  H   H11       1.0  0.9076390864462027  0.4117628062129058  0.15662395988865546  1.0000
  H   H12       1.0  0.0923649410533472  0.5882363351726669  0.8433774923988366  1.0000
  H   H13       1.0  0.013350852368859061  0.7193712377238911  0.5071470774128954  1.0000
  H   H14       1.0  0.986642960033251  0.28062797892410163  0.4928534386448574  1.0000
  H   H15       1.0  0.439811850186274  0.2751521105982136  0.7043694573471272  1.0000
  H   H16       1.0  0.5601825191310255  0.7248404534641751  0.29562849072256375  1.0000
  H   H17       1.0  0.8725055362788794  0.6253485810903997  0.24911872907606647  1.0000
  H   H18       1.0  0.12749421589948184  0.3746539572218453  0.7508808681425448  1.0000
  H   H19       1.0  0.13874363348038812  0.7816371335527637  0.7347720535651945  1.0000
  H   H20       1.0  0.8612529648290206  0.218368816379659  0.2652242459034894  1.0000
  H   H21       1.0  0.9212013563592906  0.9663480080055962  0.787040402011371  1.0000
  H   H22       1.0  0.0787970911211318  0.033656729072980306  0.21296176683253518  1.0000
  H   H23       1.0  0.3288103195334032  0.802130148908205  0.7931614410541101  1.0000
  H   H24       1.0  0.6711843521164057  0.19787143016034753  0.20682975397558323  1.0000
  H   H25       1.0  0.03768493860936672  0.11153843632575194  0.7692871067731061  1.0000
  H   H26       1.0  0.9623155900640515  0.8884685069813119  0.23071576218690387  1.0000
  C   C1        1.0  0.4047311338597979  0.1895044040500693  0.22183002333182597  1.0000
  C   C2        1.0  0.5952757656839652  0.8105013241465856  0.7781770385024984  1.0000
  C   C3        1.0  0.4777162799025803  0.26490327070416  0.35051110867370733  1.0000
  C   C4        1.0  0.5222808193676587  0.7350904063066113  0.6494858442771232  1.0000
  C   C5        1.0  0.6262314318330058  0.38734687063792717  0.3912421042514255  1.0000
  C   C6        1.0  0.37375486626850574  0.6126402509745007  0.6087503306286807  1.0000
  C   C7        1.0  0.697905839482992  0.45787428357991194  0.5115784129248269  1.0000
  C   C8        1.0  0.30208859443699515  0.5421181706274681  0.4884269047467953  1.0000
  C   C9        1.0  0.621505837284431  0.4071389034791366  0.5919484193126436  1.0000
  C   C10       1.0  0.37848652979870684  0.5928513200875258  0.4080578359321835  1.0000
  C   C11       1.0  0.47153979792800976  0.2852228209757328  0.5505814261643991  1.0000
  C   C12       1.0  0.5284486512332408  0.7147587707181985  0.4494072506005296  1.0000
  C   C13       1.0  0.4006871772389431  0.21424938316465617  0.4296260843848501  1.0000
  C   C14       1.0  0.5993150293581165  0.7857375901795011  0.5703698994556561  1.0000
  C   C15       1.0  0.8546789877188559  0.5884533158985974  0.5561581753020945  1.0000
  C   C16       1.0  0.14533011357495704  0.4115601290075902  0.4438537347800633  1.0000
  C   C17       1.0  0.07981825586765721  0.27709684469430584  0.052699860494328704  1.0000
  C   C18       1.0  0.9201834713028063  0.7229023649531713  0.9472979263979937  1.0000
  C   C19       1.0  0.11997695326566327  0.4394987946284986  0.09972139272574762  1.0000
  C   C20       1.0  0.8800314126875222  0.5605025579603408  0.9002795120050777  1.0000
  C   C21       1.0  0.26246235008571267  0.5398325224718763  0.09098381594922965  1.0000
  C   C22       1.0  0.7375448944152295  0.4601688154234653  0.9090185314626426  1.0000
  C   C23       1.0  0.29838671408830925  0.6918359347339235  0.127763643068441  1.0000
  C   C24       1.0  0.7016219700237798  0.30816869046389433  0.8722419185391743  1.0000
  C   C25       1.0  0.1975226582688379  0.7448281578411411  0.17828604373607956  1.0000
  C   C26       1.0  0.8024818060326381  0.25517215254860304  0.821711566882044  1.0000
  C   C27       1.0  0.059999412661419164  0.6438174662255634  0.19209892084082714  1.0000
  C   C28       1.0  0.9399989214400293  0.3561817481658594  0.8078999187160107  1.0000
  C   C29       1.0  0.01817790091985226  0.49133747383606163  0.1503197108520027  1.0000
  C   C30       1.0  0.9818204116473697  0.5086617771736999  0.8496766721708653  1.0000
  C   C31       1.0  0.44543467365502926  0.794556668363491  0.10955381909531789  1.0000
  C   C32       1.0  0.5545652689471084  0.2054436442828163  0.8904454680237137  1.0000
  O   O1        1.0  0.260700520023903  0.08847903360214811  0.1796093618118206  1.0000
  O   O2        1.0  0.7393154716948162  0.9115323226235434  0.8203903067058179  1.0000
  O   O3        1.0  0.4914618333584713  0.22712429568216658  0.15539388467046678  1.0000
  O   O4        1.0  0.5085275903434764  0.7728727952053377  0.8446014470313443  1.0000
  O   O5        1.0  0.9140665413836474  0.6291543369245431  0.4698321789618092  1.0000
  O   O6        1.0  0.08593530442983177  0.37084276911811304  0.5301571093843549  1.0000
  O   O7        1.0  0.9274305712384533  0.6555253318982041  0.6604682521200758  1.0000
  O   O8        1.0  0.072555773759575  0.34447694464925865  0.33955438918374636  1.0000
  O   O9        1.0  0.38458079313870286  0.2292333214778353  0.6195430370065367  1.0000
  O   O10       1.0  0.6154230994476464  0.7707603338389221  0.3804526294599242  1.0000
  O   O11       1.0  0.17720358194545582  0.24117137200868652  0.005498451755727294  1.0000
  O   O12       1.0  0.8228004527321744  0.7588277571707708  0.9945038193764262  1.0000
  O   O13       1.0  0.9517139207094801  0.1846951581379912  0.061496166880942775  1.0000
  O   O14       1.0  0.048289407783606526  0.8153051619704712  0.9385012487289117  1.0000
  O   O15       1.0  0.5789805791912103  0.7721871274546573  0.13765717449012274  1.0000
  O   O16       1.0  0.4210183625157455  0.2278186809791904  0.862347703441671  1.0000
  O   O17       1.0  0.4339895511005808  0.8995062136444222  0.06346108137558566  1.0000
  O   O18       1.0  0.5660098972750308  0.10049302764661411  0.9365354966555444  1.0000
  O   O19       1.0  0.9694477812370506  0.7029590231262192  0.24721157633527469  1.0000
  O   O20       1.0  0.030553762687709714  0.29704239998108056  0.7527873395012818  1.0000
  O   O21       1.0  0.0311097517289625  0.0133276651188083  0.7786128630758  1.0000
  O   O22       1.0  0.9688917582194495  0.9866814331049133  0.22139460521535181  1.0000
  O   O23       1.0  0.2517718158712441  0.8542273519407503  0.7768743557710492  1.0000
  O   O24       1.0  0.748224972861948  0.14577637232573437  0.22312163359804774  1.0000
