data_image0
_chemical_formula_structural       Ca2H28C32N8O24
_chemical_formula_sum              "Ca2 H28 C32 N8 O24"
_cell_length_a       7.878592042828713
_cell_length_b       8.264476843411149
_cell_length_c       15.322630610080015
_cell_angle_alpha    74.64797859478159
_cell_angle_beta     78.91763114273816
_cell_angle_gamma    87.39122943097169

_space_group_name_H-M_alt    "P 1"
_space_group_IT_number       1

loop_
  _space_group_symop_operation_xyz
  'x, y, z'

loop_
  _atom_site_type_symbol
  _atom_site_label
  _atom_site_symmetry_multiplicity
  _atom_site_fract_x
  _atom_site_fract_y
  _atom_site_fract_z
  _atom_site_occupancy
  Ca  Ca1       1.0  0.2838916747247352  0.36358710202234334  0.5015098941197067  1.0000
  Ca  Ca2       1.0  0.71610827545161  0.6364147203496133  0.4984880521493338  1.0000
  H   H1        1.0  0.026665930302449705  0.7397214852086264  0.2682678527491902  1.0000
  H   H2        1.0  0.9733314143804535  0.2602815742929892  0.7317308095538451  1.0000
  H   H3        1.0  0.9807144155872364  0.8645645536709169  0.10654660867783151  1.0000
  H   H4        1.0  0.0192881309469044  0.13543226732591046  0.8934511451042866  1.0000
  H   H5        1.0  0.7911743606922456  0.3907703760977411  0.10006869971211779  1.0000
  H   H6        1.0  0.20882810345442246  0.6092289159841968  0.8999313293299451  1.0000
  H   H7        1.0  0.7314639111453403  0.9500748664567594  0.8946127274533849  1.0000
  H   H8        1.0  0.2685334213567004  0.04992317405091029  0.10538663291242759  1.0000
  H   H9        1.0  0.5469453897249892  0.4407249488665812  0.9092465350393866  1.0000
  H   H10       1.0  0.4530545291962298  0.5592730996569414  0.09075259084956136  1.0000
  H   H11       1.0  0.48251712715303086  0.4952129459260134  0.749528596690439  1.0000
  H   H12       1.0  0.517481457364859  0.5047863341321418  0.2504717840669102  1.0000
  H   H13       1.0  0.7378072264694425  0.15830452603444914  0.17044864968520557  1.0000
  H   H14       1.0  0.2621951713187869  0.8416947372385908  0.8295533475753415  1.0000
  H   H15       1.0  0.7133007830004132  0.7705922944692319  0.8273604984010205  1.0000
  H   H16       1.0  0.28669389672400314  0.22940570921367956  0.17264106466014079  1.0000
  H   H17       1.0  0.6061720499392891  0.17148421911746678  0.4293467370786174  1.0000
  H   H18       1.0  0.3938290706683958  0.8285125402536339  0.570655070378919  1.0000
  H   H19       1.0  0.9433296782123363  0.17217281579564772  0.5493290489319591  1.0000
  H   H20       1.0  0.056670224679841424  0.8278277326218912  0.45067038399843545  1.0000
  H   H21       1.0  0.7253237768081676  0.9931232522468106  0.2718298331522034  1.0000
  H   H22       1.0  0.2746799614738292  0.006877288988576401  0.7281705602085681  1.0000
  H   H23       1.0  0.7551030919971994  0.7316855551219634  0.7170689399528811  1.0000
  H   H24       1.0  0.24489810105934853  0.2683137425550158  0.2829305502547754  1.0000
  H   H25       1.0  0.4330054267310571  0.10725975990918363  0.4091165263491376  1.0000
  H   H26       1.0  0.5669957442060181  0.8927395281648244  0.590883619931347  1.0000
  H   H27       1.0  0.07737850678505248  0.04702535417007429  0.5975873792833397  1.0000
  H   H28       1.0  0.9226213518681659  0.9529751750415302  0.40241336579271797  1.0000
  C   C1        1.0  0.9484325150663083  0.4909416816072039  0.2727266777161574  1.0000
  C   C2        1.0  0.051566078587228496  0.5090613626964142  0.7272731794941194  1.0000
  C   C3        1.0  0.9811911176752872  0.6621108227734284  0.22983438758073757  1.0000
  C   C4        1.0  0.018811308322845798  0.3378909595995552  0.7701666045755999  1.0000
  C   C5        1.0  0.9556549238376634  0.7323128621038038  0.14064673411005654  1.0000
  C   C6        1.0  0.044347631832131605  0.26768772313848643  0.8593504961249891  1.0000
  C   C7        1.0  0.8906844921494964  0.6291054892137636  0.09560486559087872  1.0000
  C   C8        1.0  0.10931412057830407  0.3708963099443352  0.9043945100622537  1.0000
  C   C9        1.0  0.8466891005506765  0.4618580029536403  0.1382595099121033  1.0000
  C   C10       1.0  0.15331206734117586  0.5381400303718848  0.8617408108840722  1.0000
  C   C11       1.0  0.8773702092703034  0.3899666383501952  0.2273089279855397  1.0000
  C   C12       1.0  0.1226283592185382  0.610035141601969  0.7726917598132559  1.0000
  C   C13       1.0  0.9954642557109425  0.42843196004029244  0.36702287953490037  1.0000
  C   C14       1.0  0.004534337942601491  0.5715710842633257  0.6329769776753694  1.0000
  C   C15       1.0  0.8337092986640113  0.20996492785836554  0.27691601596088583  1.0000
  C   C16       1.0  0.1662892286310935  0.7900380876363542  0.7230858094678749  1.0000
  C   C17       1.0  0.555946900588438  0.2477533791685076  0.7363189004186381  1.0000
  C   C18       1.0  0.44405167783902033  0.7522433913926675  0.2636818293700927  1.0000
  C   C19       1.0  0.6322422286810506  0.09397495324213878  0.7746309685760194  1.0000
  C   C20       1.0  0.36775510991142096  0.906025596762504  0.22536804275840444  1.0000
  C   C21       1.0  0.6706352679354454  0.0655038225454589  0.8624576331075389  1.0000
  C   C22       1.0  0.3293646067468218  0.9344942067721362  0.1375428049270652  1.0000
  C   C23       1.0  0.6333489156584519  0.18885019697200525  0.9102418253425527  1.0000
  C   C24       1.0  0.3666509841885102  0.8111490966970364  0.0897577821035327  1.0000
  C   C25       1.0  0.5696979101507438  0.3461603974890081  0.870683581325693  1.0000
  C   C26       1.0  0.43030321959258805  0.6538401261275552  0.12931770258476394  1.0000
  C   C27       1.0  0.5330424574068006  0.37449464729571247  0.7828379476423137  1.0000
  C   C28       1.0  0.4669574393949461  0.6255033916248462  0.21716183431946942  1.0000
  C   C29       1.0  0.483136227626936  0.2810455685725159  0.6495286613982643  1.0000
  C   C30       1.0  0.5168675358197562  0.7189562370143251  0.3504709013739812  1.0000
  C   C31       1.0  0.674094950251515  0.9695949544728323  0.717819226327002  1.0000
  C   C32       1.0  0.3259061512819059  0.0304030500437875  0.2821830626876718  1.0000
  N   N1        1.0  0.870121882710393  0.698868371873047  0.0007278631392963475  1.0000
  N   N2        1.0  0.12987929127189798  0.301132170949451  0.9992721086255044  1.0000
  N   N3        1.0  0.7644193282595425  0.11432797125266352  0.23489539614232763  1.0000
  N   N4        1.0  0.23558182360326185  0.8856725619668708  0.7651052316953013  1.0000
  N   N5        1.0  0.6593162472046926  0.15025680818407497  0.004867602063669074  1.0000
  N   N6        1.0  0.3406823724165022  0.8497387268345449  0.9951319900950893  1.0000
  N   N7        1.0  0.7116395883970911  0.8111984573750348  0.7587904617411638  1.0000
  N   N8        1.0  0.28835901824027826  0.1888008322860841  0.2412092629433573  1.0000
  O   O1        1.0  0.15130030960204974  0.3810972203688507  0.3682996526112134  1.0000
  O   O2        1.0  0.8486982901419252  0.6189083334317403  0.6316998555676747  1.0000
  O   O3        1.0  0.8848521380466678  0.4446788114666305  0.4353417453529076  1.0000
  O   O4        1.0  0.11514640223226282  0.5553204493855902  0.5646599475501048  1.0000
  O   O5        1.0  0.8606924674187583  0.15510361104632858  0.3580314451273167  1.0000
  O   O6        1.0  0.13930868139883756  0.8448956674247157  0.641969357226003  1.0000
  O   O7        1.0  0.7590208111156115  0.6365164747277132  0.9708326675822293  1.0000
  O   O8        1.0  0.2409764741022542  0.36348029182553176  0.02916817944493739  1.0000
  O   O9        1.0  0.9659577460568869  0.8179244032955851  0.9529918259521467  1.0000
  O   O10       1.0  0.03404089872901039  0.18207239607448863  0.04700693561809289  1.0000
  O   O11       1.0  0.5460540810025164  0.3991455841591717  0.5812571528688364  1.0000
  O   O12       1.0  0.45394966641512724  0.6008587213216857  0.4187427169448553  1.0000
  O   O13       1.0  0.3473127452449845  0.2006255326057484  0.6528975077268271  1.0000
  O   O14       1.0  0.6526924540667806  0.7993713252158371  0.3470980433599351  1.0000
  O   O15       1.0  0.673052412268021  0.018669325227719503  0.6330336136060026  1.0000
  O   O16       1.0  0.3269513732981438  0.9813324899620923  0.3669652930934078  1.0000
  O   O17       1.0  0.7088987794846204  0.007735964865553099  0.040759605984234774  1.0000
  O   O18       1.0  0.29109727279165304  0.9922583169916808  0.9592397390942509  1.0000
  O   O19       1.0  0.6260218053778956  0.2612618772412035  0.04735785576704636  1.0000
  O   O20       1.0  0.3739806305588615  0.738734895740798  0.9526431783792261  1.0000
  O   O21       1.0  0.48330893915063905  0.19540183510179793  0.4303850596447845  1.0000
  O   O22       1.0  0.5166948212508303  0.8045987157365602  0.5696146776431519  1.0000
  O   O23       1.0  0.04995414398823069  0.16741434642082711  0.5732786353416088  1.0000
  O   O24       1.0  0.950047077278235  0.8325874703560885  0.4267198497618309  1.0000
