data_image0
_chemical_formula_structural       Zn2H30C56N2O22
_chemical_formula_sum              "Zn2 H30 C56 N2 O22"
_cell_length_a       15.839788086130321
_cell_length_b       16.472086388920786
_cell_length_c       17.6283886024945
_cell_angle_alpha    89.07023148040516
_cell_angle_beta     89.44117563433619
_cell_angle_gamma    63.58033048312275

_space_group_name_H-M_alt    "P 1"
_space_group_IT_number       1

loop_
  _space_group_symop_operation_xyz
  'x, y, z'

loop_
  _atom_site_type_symbol
  _atom_site_label
  _atom_site_symmetry_multiplicity
  _atom_site_fract_x
  _atom_site_fract_y
  _atom_site_fract_z
  _atom_site_occupancy
  Zn  Zn1       1.0  0.518076936448516  0.40825073387481575  0.5051565713746413  1.0000
  Zn  Zn2       1.0  0.48687506294543675  0.5914792065559668  0.48810096203664693  1.0000
  H   H1        1.0  0.09543453878549005  0.31429930995190614  0.371034164211359  1.0000
  H   H2        1.0  0.9185832558190088  0.6746202510869778  0.644463747144556  1.0000
  H   H3        1.0  0.47066372532268735  0.1456603665805432  0.6257498484627319  1.0000
  H   H4        1.0  0.39639051413035276  0.9184956401187849  0.4023031008380187  1.0000
  H   H5        1.0  0.48079235073207366  0.2934233387309676  0.6227323407192814  1.0000
  H   H6        1.0  0.39650496335140434  0.7658370697523935  0.3997103041420971  1.0000
  H   H7        1.0  0.5441388500737788  0.2716320233767106  0.39331553858394847  1.0000
  H   H8        1.0  0.601401092096296  0.6625932577939223  0.5659849676199471  1.0000
  H   H9        1.0  0.5396054527460732  0.1210243450237343  0.3862406559426219  1.0000
  H   H10       1.0  0.609211555019094  0.8111872387959594  0.5773934232229863  1.0000
  H   H11       1.0  0.9603584385484041  0.28113200988718756  0.3606443360354419  1.0000
  H   H12       1.0  0.054926482931499425  0.7072696980383526  0.6535741972935369  1.0000
  H   H13       1.0  0.1692624959908855  0.4037900149026327  0.4214978131120831  1.0000
  H   H14       1.0  0.8434146885938109  0.5862973687505715  0.5940306988760611  1.0000
  H   H15       1.0  0.4087463400122218  0.4090456820510511  0.2758473961792092  1.0000
  H   H16       1.0  0.36729837889923556  0.6655086120336334  0.7212360900329529  1.0000
  H   H17       1.0  0.5048458491128403  0.5937617410805983  0.10253786056856032  1.0000
  H   H18       1.0  0.5270847156189689  0.39484701299875974  0.8884169720237907  1.0000
  H   H19       1.0  0.16203002524818547  0.5366792033019364  0.30112163501164696  1.0000
  H   H20       1.0  0.7092173059063925  0.5246322508401206  0.6771894720214249  1.0000
  H   H21       1.0  0.23725602101890778  0.7707848969357799  0.5345357350110901  1.0000
  H   H22       1.0  0.2520678932399962  0.796337843060307  0.630751685661636  1.0000
  H   H23       1.0  0.1358720705974294  0.8248011050890226  0.5958509155356779  1.0000
  H   H24       1.0  0.7709031331412461  0.18635237541905525  0.38675279412337465  1.0000
  H   H25       1.0  0.7764199890142434  0.223635225525861  0.4808353368827412  1.0000
  H   H26       1.0  0.8828723403037416  0.1673325120496401  0.4254888517057225  1.0000
  H   H27       1.0  0.29175207679038817  0.3382770694085053  0.15739510244810617  1.0000
  H   H28       1.0  0.22880535161963417  0.8208685421822182  0.8442947370158081  1.0000
  H   H29       1.0  0.5813793507389705  0.6931555903622453  0.2484098000058736  1.0000
  H   H30       1.0  0.7118222749418379  0.3151434748327732  0.7000732290188765  1.0000
  C   C1        1.0  0.4871490240453086  0.5178409596396776  0.6439296230599822  1.0000
  C   C2        1.0  0.49892718408819536  0.49036221143575187  0.3494876968729344  1.0000
  C   C3        1.0  0.09769219561505349  0.4195300599180739  0.4389707174175967  1.0000
  C   C4        1.0  0.9136622372027433  0.572356770330096  0.5741482974047827  1.0000
  C   C5        1.0  0.05772735194864963  0.3674941536387948  0.41195696018417743  1.0000
  C   C6        1.0  0.9544349922867215  0.6236505496841717  0.6013885076239021  1.0000
  C   C7        1.0  0.4074616845760914  0.45495310571288183  0.16002294481776153  1.0000
  C   C8        1.0  0.38080903698408264  0.613388662947095  0.8361353930361162  1.0000
  C   C9        1.0  0.4319291909951418  0.4472089096714242  0.23702441495161253  1.0000
  C   C10       1.0  0.40342524795762114  0.6072536852346674  0.7587193761174691  1.0000
  C   C11       1.0  0.4825658949290029  0.49060552125286694  0.2658528733837642  1.0000
  C   C12       1.0  0.4701060628653695  0.5267005674839779  0.7277468975015111  1.0000
  C   C13       1.0  0.5093108383129774  0.5434896577954973  0.2167313856280728  1.0000
  C   C14       1.0  0.5153795363497197  0.44988747400546464  0.7752548406864221  1.0000
  C   C15       1.0  0.48447639643227824  0.5527382330149564  0.1406081717610803  1.0000
  C   C16       1.0  0.4925817781688764  0.45437616122665503  0.8517833925917841  1.0000
  C   C17       1.0  0.4342770883048885  0.5081914696102813  0.11040904828505661  1.0000
  C   C18       1.0  0.4260432304338552  0.5359916693897303  0.8840596364200621  1.0000
  C   C19       1.0  0.4171778332741454  0.5183440946995431  0.0314975353207885  1.0000
  C   C20       1.0  0.4132263296554725  0.5348764141389568  0.9634160775328483  1.0000
  C   C21       1.0  0.4876345660388209  0.17084176277329996  0.5731917543161842  1.0000
  C   C22       1.0  0.4422977698644956  0.8637289230081252  0.4397459104646089  1.0000
  C   C23       1.0  0.6856133437326692  0.4287972022234571  0.5002564026691515  1.0000
  C   C24       1.0  0.3192339179063452  0.5725256731084161  0.4994344646637217  1.0000
  C   C25       1.0  0.4926259663934119  0.25294308961576206  0.571806613885137  1.0000
  C   C26       1.0  0.44191966936635674  0.7797104405793931  0.43817852655396894  1.0000
  C   C27       1.0  0.529248158739257  0.2398463350420244  0.4430278292645511  1.0000
  C   C28       1.0  0.5566636094344944  0.7218691781745789  0.5319294709172127  1.0000
  C   C29       1.0  0.525910054294087  0.15739118127789453  0.43947685173604617  1.0000
  C   C30       1.0  0.5610047869254162  0.8038248031201221  0.5375925222274205  1.0000
  C   C31       1.0  0.5049497705738162  0.1211149601281463  0.5058495375506524  1.0000
  C   C32       1.0  0.5018641350163549  0.8774579448625063  0.49144064901791035  1.0000
  C   C33       1.0  0.5024842604652592  0.03634526840560429  0.5032215435542043  1.0000
  C   C34       1.0  0.502116503195282  0.9629295471942426  0.49714726508930346  1.0000
  C   C35       1.0  0.7884572281053934  0.40402745387693534  0.4874848723192642  1.0000
  C   C36       1.0  0.21818862850989973  0.5941450475374098  0.5176962699136639  1.0000
  C   C37       1.0  0.9244309366569184  0.3293922862359082  0.4055209107743423  1.0000
  C   C38       1.0  0.08797150251093205  0.6622042731527814  0.6060840773168437  1.0000
  C   C39       1.0  0.8353050357360915  0.34327580583526185  0.4276540432495608  1.0000
  C   C40       1.0  0.1757138877187644  0.6498516191940168  0.5810888844005575  1.0000
  C   C41       1.0  0.8359566698522515  0.4448232744687104  0.5266393310134632  1.0000
  C   C42       1.0  0.17069195163354325  0.5521442401817821  0.48061410221865947  1.0000
  C   C43       1.0  0.9218003148099431  0.4417407527867852  0.4972408775757912  1.0000
  C   C44       1.0  0.08715912302907487  0.5528528504949931  0.5126033650478448  1.0000
  C   C45       1.0  0.9671909122573155  0.3799425518195322  0.4372093170115008  1.0000
  C   C46       1.0  0.04365914693917735  0.6131213445711693  0.5740364095911872  1.0000
  C   C47       1.0  0.9613487948431613  0.5013141859808741  0.5214327579294674  1.0000
  C   C48       1.0  0.04826733108028242  0.4922026333014458  0.489900144243272  1.0000
  C   C49       1.0  0.2049977275370339  0.5173817710420038  0.4024095487596497  1.0000
  C   C50       1.0  0.809164692195409  0.467709318533629  0.6082141222412076  1.0000
  C   C51       1.0  0.21088794674308536  0.7754277797783403  0.5930072488604097  1.0000
  C   C52       1.0  0.806925759648138  0.21411361908658216  0.4234600291655823  1.0000
  C   C53       1.0  0.3538574568353781  0.4085756158971919  0.1293925172817723  1.0000
  C   C54       1.0  0.310375890657987  0.6995118349809958  0.8688458951979641  1.0000
  C   C55       1.0  0.5719892863887567  0.5834860612601674  0.2435433171842192  1.0000
  C   C56       1.0  0.5902658927423658  0.3625093290377563  0.7453833342960507  1.0000
  N   N1        1.0  0.5132990255268978  0.28646900245290396  0.5079844331329896  1.0000
  N   N2        1.0  0.49712639960897337  0.7106782021547103  0.48396434534109295  1.0000
  O   O1        1.0  0.5113322822827229  0.43860730635437767  0.6189117872530403  1.0000
  O   O2        1.0  0.4907909874011624  0.565283280014704  0.37484448218783945  1.0000
  O   O3        1.0  0.47497306602512174  0.5880967888957045  0.6053561802044598  1.0000
  O   O4        1.0  0.5162595870838229  0.4187043221073737  0.3877881205323064  1.0000
  O   O5        1.0  0.6608260607155216  0.36670181285263237  0.5148084421321997  1.0000
  O   O6        1.0  0.34127184629942064  0.6349198384583233  0.47910075874447955  1.0000
  O   O7        1.0  0.6310600342504318  0.5121510989620931  0.48961377186151367  1.0000
  O   O8        1.0  0.37543808646699967  0.49004922986352273  0.5116615877162901  1.0000
  O   O9        1.0  0.28370714055953533  0.4618764541898556  0.38330172800080226  1.0000
  O   O10       1.0  0.1350308413481899  0.561753638256846  0.3506465212459773  1.0000
  O   O11       1.0  0.8643663987772358  0.4284369541848179  0.6595214184422247  1.0000
  O   O12       1.0  0.7182373382687218  0.5286619001795926  0.6223001349147453  1.0000
  O   O13       1.0  0.22394881937052716  0.6878009494337929  0.6205153399627505  1.0000
  O   O14       1.0  0.7916225648131602  0.2997810801843173  0.3898910965131606  1.0000
  O   O15       1.0  0.33590565885826607  0.40586754622465554  0.062449549937959106  1.0000
  O   O16       1.0  0.3246313188909866  0.3670123909168624  0.18476416628693934  1.0000
  O   O17       1.0  0.2857493544363409  0.710727437159413  0.9353739553768534  1.0000
  O   O18       1.0  0.27399516242909544  0.7685451219723659  0.8161900442120498  1.0000
  O   O19       1.0  0.6511959276954966  0.5391773200159238  0.2682521047009558  1.0000
  O   O20       1.0  0.5331806978092573  0.6751178973249665  0.2321495094235786  1.0000
  O   O21       1.0  0.5863777119009655  0.2901846156982871  0.7463190907645442  1.0000
  O   O22       1.0  0.6673424430212408  0.372723003347673  0.7222502570449622  1.0000
