data_image0
_chemical_formula_structural       Hg2H36C40O4F16
_chemical_formula_sum              "Hg2 H36 C40 O4 F16"
_cell_length_a       9.222413540089226
_cell_length_b       10.460984694615924
_cell_length_c       10.91481741900095
_cell_angle_alpha    90.00001156151343
_cell_angle_beta     90.00004575414256
_cell_angle_gamma    93.18905298817558

_space_group_name_H-M_alt    "P 1"
_space_group_IT_number       1

loop_
  _space_group_symop_operation_xyz
  'x, y, z'

loop_
  _atom_site_type_symbol
  _atom_site_label
  _atom_site_symmetry_multiplicity
  _atom_site_fract_x
  _atom_site_fract_y
  _atom_site_fract_z
  _atom_site_occupancy
  Hg  Hg1       1.0  0.0  0.0  0.0  1.0000
  Hg  Hg2       1.0  0.5000007331908307  0.9999998003957985  0.5000003838362446  1.0000
  H   H1        1.0  0.48132138309313877  0.5969549679618569  0.5500130853724129  1.0000
  H   H2        1.0  0.0186782531043761  0.4030438881608306  0.05001279207350251  1.0000
  H   H3        1.0  0.5186788585616141  0.4030446603073089  0.4499866694563295  1.0000
  H   H4        1.0  0.9813219278481212  0.5969547826927695  0.9499869627551263  1.0000
  H   H5        1.0  0.3534918827624338  0.5357515268663207  0.6610382557876023  1.0000
  H   H6        1.0  0.146507920711997  0.464248315284003  0.1610389768905733  1.0000
  H   H7        1.0  0.6465083588918786  0.4642481014027241  0.3389605828554068  1.0000
  H   H8        1.0  0.8534923209431967  0.5357513129852765  0.8389616941239026  1.0000
  H   H9        1.0  0.41367423674664383  0.7004565297482943  0.6636906497402393  1.0000
  H   H10       1.0  0.08632556927337019  0.29954331308545085  0.163690382147557  1.0000
  H   H11       1.0  0.5863260049085496  0.2995430985209922  0.3363100212742367  1.0000
  H   H12       1.0  0.9136747330836384  0.7004572725992732  0.8363093726812991  1.0000
  H   H13       1.0  0.1637435867384696  0.7766575081185251  0.6485927479590075  1.0000
  H   H14       1.0  0.33625728908823044  0.22334233057069508  0.1485935507193901  1.0000
  H   H15       1.0  0.8362566549162835  0.22334212015063315  0.3514070068697421  1.0000
  H   H16       1.0  0.6637440975680207  0.7766582548603297  0.8514071202955691  1.0000
  H   H17       1.0  0.08963314465496099  0.6157481456644973  0.6515464901686698  1.0000
  H   H18       1.0  0.41036556540906594  0.3842516942934609  0.1515464579310688  1.0000
  H   H19       1.0  0.9103660127009904  0.38425148285848115  0.3484532646597032  1.0000
  H   H20       1.0  0.5896335919468855  0.6157479342295248  0.8484532968973113  1.0000
  H   H21       1.0  0.0420389975552169  0.7195542329817927  0.5314171269665593  1.0000
  H   H22       1.0  0.4579606814942351  0.28044557576418333  0.0314171068250886  1.0000
  H   H23       1.0  0.9579612440995361  0.280445395287373  0.46858262786218324  1.0000
  H   H24       1.0  0.5420395601605179  0.7195540525049753  0.968582648003654  1.0000
  H   H25       1.0  0.1287737400177704  0.562375641542019  0.3721941386900482  1.0000
  H   H26       1.0  0.3712262661470477  0.4376242550245593  0.8721943267877634  1.0000
  H   H27       1.0  0.8712254780404436  0.43762494439652505  0.6278056161384384  1.0000
  H   H28       1.0  0.6287739755077055  0.5623753732445991  0.1278054280409791  1.0000
  H   H29       1.0  0.17251438421626367  0.4554080655511755  0.4908795915689693  1.0000
  H   H30       1.0  0.3274846515766611  0.5445918618551604  0.9908788546000906  1.0000
  H   H31       1.0  0.8274847731396876  0.5445915629718031  0.5091201632594107  1.0000
  H   H32       1.0  0.6725145664811051  0.45540872408326294  0.0091199840426697  1.0000
  H   H33       1.0  0.30747654656754253  0.5055812037216826  0.38207708908645793  1.0000
  H   H34       1.0  0.1925234690839659  0.49441869539178646  0.8820771673998706  1.0000
  H   H35       1.0  0.6925236950876509  0.49441842454759677  0.617923581928018  1.0000
  H   H36       1.0  0.8074767725712275  0.5055809328774927  0.11792350361460541  1.0000
  C   C1        1.0  0.16060350032348228  0.9075781109517538  0.3633758951291739  1.0000
  C   C2        1.0  0.33939541307821486  0.09242178359622952  0.8633769111694959  1.0000
  C   C3        1.0  0.8393967413312707  0.09242151731740483  0.6366238596995686  1.0000
  C   C4        1.0  0.6606038049804326  0.9075788023424352  0.1366237598447242  1.0000
  C   C5        1.0  0.24859786141553997  0.8033240461565684  0.3477732717478261  1.0000
  C   C6        1.0  0.25140103700814354  0.19667584437026872  0.8477724161058687  1.0000
  C   C7        1.0  0.7514023802396534  0.196675582112711  0.6522273992666499  1.0000
  C   C8        1.0  0.7485981203478075  0.8033237841527098  0.1522273387225113  1.0000
  C   C9        1.0  0.1114673106546036  0.9192874618087076  0.1445824808936038  1.0000
  C   C10       1.0  0.38853247702347454  0.08071237610077735  0.6445826116900761  1.0000
  C   C11       1.0  0.8885340152989443  0.08071216620663081  0.8554172739355083  1.0000
  C   C12       1.0  0.6114667410347324  0.9192882098377742  0.3554171431384177  1.0000
  C   C13       1.0  0.2689875412588236  0.7609663942090138  0.22702732439042714  1.0000
  C   C14       1.0  0.23101220415478  0.23903155011605295  0.7270282955295002  1.0000
  C   C15       1.0  0.7310137239920349  0.23903227639064542  0.7729715142528377  1.0000
  C   C16       1.0  0.7689868317971005  0.7609661635759154  0.27297237548437886  1.0000
  C   C17       1.0  0.20040430983591048  0.8176900439708775  0.128952372515549  1.0000
  C   C18       1.0  0.2995954628386528  0.18230978991061164  0.62895246285062  1.0000
  C   C19       1.0  0.7995959925210981  0.18231054171384642  0.8710473823133073  1.0000
  C   C20       1.0  0.7004047788161002  0.8176898383585469  0.3710472919781225  1.0000
  C   C21       1.0  0.09506780872434462  0.9633024478093621  0.2632551014451536  1.0000
  C   C22       1.0  0.40492998497342814  0.03669837860607571  0.7632552348147144  1.0000
  C   C23       1.0  0.9049323722281528  0.03669622304423112  0.7367446533834753  1.0000
  C   C24       1.0  0.5950682094886729  0.9633031650019749  0.23674543619925706  1.0000
  C   C25       1.0  0.2598872748081362  0.6485749236517578  0.5190120388866576  1.0000
  C   C26       1.0  0.24011239233304588  0.3514248818972093  0.019010969063629098  1.0000
  C   C27       1.0  0.740111882547822  0.3514247048712279  0.48098771594171547  1.0000
  C   C28       1.0  0.7598878493212665  0.6485747463718355  0.9809878695793798  1.0000
  C   C29       1.0  0.3850319853307411  0.6187245747432115  0.603448671645836  1.0000
  C   C30       1.0  0.1149688471612151  0.3812752523119373  0.1034484392093447  1.0000
  C   C31       1.0  0.6149683170262675  0.38127601094151237  0.39655108318302007  1.0000
  C   C32       1.0  0.8850313944935378  0.6187243759572213  0.8965513156193978  1.0000
  C   C33       1.0  0.13131029546604372  0.6937411428948937  0.5915271844062389  1.0000
  C   C34       1.0  0.3686894412836281  0.3062586813418521  0.0915271089272238  1.0000
  C   C35       1.0  0.8686899461887093  0.3062584853742721  0.4084725704225037  1.0000
  C   C36       1.0  0.6313108610733805  0.693741904342872  0.9084726459016325  1.0000
  C   C37       1.0  0.21508959682152806  0.5365517545428987  0.43553558221114497  1.0000
  C   C38       1.0  0.28491040944309276  0.46344720093163266  0.9355357169705131  1.0000
  C   C39       1.0  0.7849106448332249  0.4634478737262596  0.5644641726175976  1.0000
  C   C40       1.0  0.7150898322116604  0.5365524273375258  0.0644640378582295  1.0000
  O   O1        1.0  0.3252449073620837  0.756567267201142  0.4430602741245623  1.0000
  O   O2        1.0  0.1747551668277652  0.2434326476281116  0.9430602919111025  1.0000
  O   O3        1.0  0.6747553949953656  0.24343331848370306  0.5569403968900275  1.0000
  O   O4        1.0  0.8252450748274283  0.7565669806411677  0.0569403791033736  1.0000
  F   F1        1.0  0.0120938248856746  0.06513019568313182  0.2843144318577799  1.0000
  F   F2        1.0  0.48790495192156413  0.93486872107453  0.7843147949298698  1.0000
  F   F3        1.0  0.9879085853662415  0.9348694320782802  0.7156844067859609  1.0000
  F   F4        1.0  0.5120942054343871  0.06513090744845582  0.2156849598985033  1.0000
  F   F5        1.0  0.2238102474500892  0.7710519756507994  0.014228514588040798  1.0000
  F   F6        1.0  0.27619043869643883  0.2289468709961825  0.5142285981219388  1.0000
  F   F7        1.0  0.7761910785034656  0.22894765236454626  0.9857712402410712  1.0000
  F   F8        1.0  0.7238098029583141  0.7710527572729763  0.4857711567068037  1.0000
  F   F9        1.0  0.35956109425087857  0.6650691293892736  0.2055473712096969  1.0000
  F   F10       1.0  0.1404386912456985  0.3349297668157051  0.7055473834938724  1.0000
  F   F11       1.0  0.6404402924044916  0.33493145604151664  0.7944514674337952  1.0000
  F   F12       1.0  0.8595604054079969  0.6650689042917153  0.2944523713343941  1.0000
  F   F13       1.0  0.1424142854815713  0.9561671572561755  0.4768665690110225  1.0000
  F   F14       1.0  0.3575868447558647  0.043831808615820506  0.9768666717651513  1.0000
  F   F15       1.0  0.8575859561731817  0.043832471012983404  0.5231331858177272  1.0000
  F   F16       1.0  0.642415565496492  0.9561678191457049  0.023133083064323  1.0000
