data_image0
_chemical_formula_structural       Zn8H64C72O30
_chemical_formula_sum              "Zn8 H64 C72 O30"
_cell_length_a       17.79969331059478
_cell_length_b       18.698389654635925
_cell_length_c       23.390877368944178
_cell_angle_alpha    66.43464079158365
_cell_angle_beta     69.66005728046426
_cell_angle_gamma    89.93579762045877

_space_group_name_H-M_alt    "P 1"
_space_group_IT_number       1

loop_
  _space_group_symop_operation_xyz
  'x, y, z'

loop_
  _atom_site_type_symbol
  _atom_site_label
  _atom_site_symmetry_multiplicity
  _atom_site_fract_x
  _atom_site_fract_y
  _atom_site_fract_z
  _atom_site_occupancy
  Zn  Zn1       1.0  0.11773652259359582  0.5300562551217498  0.944088377003801  1.0000
  Zn  Zn2       1.0  0.9716655820570635  0.5595758695791987  0.0515729491464966  1.0000
  Zn  Zn3       1.0  0.9766242231099226  0.389687382338508  0.04880889221638547  1.0000
  Zn  Zn4       1.0  0.9381946950527222  0.5311436638781261  0.9344145012862763  1.0000
  Zn  Zn5       1.0  0.3853533225869086  0.9776283566725469  0.04736615651198406  1.0000
  Zn  Zn6       1.0  0.5287979770399148  0.11535280442193141  0.9389000646841053  1.0000
  Zn  Zn7       1.0  0.5243808679120008  0.9462464185697855  0.9365890091363976  1.0000
  Zn  Zn8       1.0  0.567819353077411  0.9725401730350997  0.05122148127057346  1.0000
  H   H1        1.0  0.4943694599106365  0.8688372888151932  0.2616383784758582  1.0000
  H   H2        1.0  0.4339290540422026  0.8058677394914185  0.3876871451350963  1.0000
  H   H3        1.0  0.19414968807637217  0.8094896774771739  0.38080768964032047  1.0000
  H   H4        1.0  0.3197862483566851  0.6946516554689097  0.6102267658461498  1.0000
  H   H5        1.0  0.019047897366675694  0.6372789778273358  0.7252991747502688  1.0000
  H   H6        1.0  0.082015680822515  0.7001479651818555  0.599336118441428  1.0000
  H   H7        1.0  0.6288186995386624  0.0229454020381965  0.7303665093008931  1.0000
  H   H8        1.0  0.6991194428283193  0.08358884299816792  0.6046569786094051  1.0000
  H   H9        1.0  0.7008581561865412  0.3154154113753265  0.6035834157205426  1.0000
  H   H10       1.0  0.8103224167203605  0.19011333689288532  0.3858628366505385  1.0000
  H   H11       1.0  0.8686550176975203  0.4827970486750388  0.25725225718498007  1.0000
  H   H12       1.0  0.8096072875273279  0.42260680081594876  0.38347414646801065  1.0000
  H   H13       1.0  0.1974081817029898  0.301603584654245  0.9109818055395845  1.0000
  H   H14       1.0  0.1254238413662634  0.2298339095504645  0.9875627470836789  1.0000
  H   H15       1.0  0.21413821335544012  0.13813494071408883  0.985000678907063  1.0000
  H   H16       1.0  0.2858167370724374  0.21040501388867483  0.908542573945986  1.0000
  H   H17       1.0  0.2141625077601574  0.12341475158439154  0.09602345009747638  1.0000
  H   H18       1.0  0.28620911514753544  0.18383389346218593  0.10025106059458004  1.0000
  H   H19       1.0  0.1261703219159429  0.21600506245140855  0.09898248290997456  1.0000
  H   H20       1.0  0.1994054264417429  0.276619441734141  0.10179622405492238  1.0000
  H   H21       1.0  0.3021993524640578  0.3907609263025195  0.9141867229366977  1.0000
  H   H22       1.0  0.3029689110449779  0.3812551786363727  0.9918599055836523  1.0000
  H   H23       1.0  0.3911324852979944  0.28902573665896364  0.9903754197609798  1.0000
  H   H24       1.0  0.39093051411072116  0.2992112770695456  0.9124285208584052  1.0000
  H   H25       1.0  0.8911441179416215  0.8005286533909841  0.9044928983400595  1.0000
  H   H26       1.0  0.888270160556651  0.7874886065960994  0.9845396141487867  1.0000
  H   H27       1.0  0.7999830331519034  0.8798223109611601  0.9857800255285692  1.0000
  H   H28       1.0  0.80295435198191  0.8920390961021172  0.9058820168737748  1.0000
  H   H29       1.0  0.6963756020170565  0.776961384400096  0.0916068570856509  1.0000
  H   H30       1.0  0.6237668477767144  0.7159077477419159  0.08853367276041267  1.0000
  H   H31       1.0  0.7833373134633775  0.6832731661063605  0.09064052063287413  1.0000
  H   H32       1.0  0.7109949958700669  0.6236467043430097  0.08591617665063461  1.0000
  H   H33       1.0  0.7889306282600116  0.7133628081372196  0.8970197882724659  1.0000
  H   H34       1.0  0.7157368991600493  0.640707946213368  0.97085132832607  1.0000
  H   H35       1.0  0.6269041980795935  0.7322473059201685  0.9732107187071292  1.0000
  H   H36       1.0  0.6997376428061912  0.8046927009022441  0.899118320004021  1.0000
  H   H37       1.0  0.1618025239150001  0.7928544582794218  0.9373483791001074  1.0000
  H   H38       1.0  0.24586474610391923  0.7567802132748512  0.8962938034082552  1.0000
  H   H39       1.0  0.3333680517945794  0.8524834888153096  0.8930604074991063  1.0000
  H   H40       1.0  0.24879592491193844  0.8871026858406736  0.9352518161837294  1.0000
  H   H41       1.0  0.39401950233899186  0.7435890597293382  0.9602202078431501  1.0000
  H   H42       1.0  0.35334563404223474  0.7026607754017039  0.049163432984563646  1.0000
  H   H43       1.0  0.3052320297011093  0.6479444810889987  0.9641582319771799  1.0000
  H   H44       1.0  0.2645505164708055  0.6081992767851574  0.05311160473090117  1.0000
  H   H45       1.0  0.10193584108218799  0.7350907551623536  0.06549238014512322  1.0000
  H   H46       1.0  0.14328626790902632  0.659399139264913  0.11291838485425384  1.0000
  H   H47       1.0  0.23229751225022  0.7537449858845237  0.10981073486036046  1.0000
  H   H48       1.0  0.19042440890111584  0.8293051367551458  0.06282437668431831  1.0000
  H   H49       1.0  0.8994462816650427  0.2676343132471857  0.9288581957449509  1.0000
  H   H50       1.0  0.8549995599937643  0.3431734801458788  0.8833273821784856  1.0000
  H   H51       1.0  0.7688764311928011  0.24713019562187105  0.885613997100627  1.0000
  H   H52       1.0  0.8123782236585982  0.172067164228487  0.9326378215837534  1.0000
  H   H53       1.0  0.6491553947403618  0.29756830011040597  0.9454716373304062  1.0000
  H   H54       1.0  0.6065346972134903  0.25691656939628865  0.03437641450108235  1.0000
  H   H55       1.0  0.7361451837493931  0.39220818915174493  0.9444338087736454  1.0000
  H   H56       1.0  0.6938280043224836  0.3501898285803193  0.03335889630377413  1.0000
  H   H57       1.0  0.8399896004258024  0.20603812519681952  0.05670444158634068  1.0000
  H   H58       1.0  0.7571716339585706  0.23988362965395993  0.1002993450206375  1.0000
  H   H59       1.0  0.6675833702475912  0.14706156565151224  0.10231441685741069  1.0000
  H   H60       1.0  0.750665156907033  0.11172836553444651  0.060577178081459175  1.0000
  H   H61       1.0  0.27708034504799883  0.8997128377417809  0.20323809548051475  1.0000
  H   H62       1.0  0.2330625025419053  0.6059357939144833  0.7879116908336382  1.0000
  H   H63       1.0  0.600593718378505  0.2320250587740418  0.7806250489963272  1.0000
  H   H64       1.0  0.8945339368715394  0.27308290259757223  0.20790246091499393  1.0000
  C   C1        1.0  0.14135622566054448  0.6348736677424256  0.004036432157285193  1.0000
  C   C2        1.0  0.9076052785777549  0.4096869874625001  0.17677084607865362  1.0000
  C   C3        1.0  0.14443589992613678  0.3635197716347136  0.0013766887736252908  1.0000
  C   C4        1.0  0.8612855486563546  0.3663810626232547  0.9890884819923041  1.0000
  C   C5        1.0  0.09298171922853272  0.5935747193222699  0.8126776582815932  1.0000
  C   C6        1.0  0.860850368672054  0.6435538781478057  0.9890235803828633  1.0000
  C   C7        1.0  0.3598416315268125  0.1418191559077542  0.9968086966007517  1.0000
  C   C8        1.0  0.5838268572504502  0.09557415023267879  0.8110695902886389  1.0000
  C   C9        1.0  0.3562944837364199  0.8630419740104005  0.9971635067472702  1.0000
  C   C10       1.0  0.6452006333857909  0.8661909517834872  0.9917822284506528  1.0000
  C   C11       1.0  0.41740819324559914  0.9118575774839076  0.1761453196319776  1.0000
  C   C12       1.0  0.6470831657386142  0.1396024130201639  0.992785829215954  1.0000
  C   C13       1.0  0.379583952591517  0.8747918857106143  0.25037621141788674  1.0000
  C   C14       1.0  0.4287485949755946  0.8553364199091149  0.2887724241591982  1.0000
  C   C15       1.0  0.3955099473993116  0.8204844554956523  0.35843194768833786  1.0000
  C   C16       1.0  0.3098561212445006  0.8034097716020627  0.39255949592534717  1.0000
  C   C17       1.0  0.2599505826800979  0.8222487094468606  0.3552978714252218  1.0000
  C   C18       1.0  0.2935735407541387  0.857858665780853  0.28474994669777925  1.0000
  C   C19       1.0  0.2741586921904471  0.7676536785879052  0.46383223796013334  1.0000
  C   C20       1.0  0.2420472579184363  0.7369323377100658  0.525260838248549  1.0000
  C   C21       1.0  0.20528238534799212  0.7014571889993919  0.596500598576199  1.0000
  C   C22       1.0  0.25388338369293717  0.6823533745063415  0.6348728024429703  1.0000
  C   C23       1.0  0.21878870572304274  0.6471936728383625  0.7054027952226247  1.0000
  C   C24       1.0  0.1326408044528762  0.6306359333899892  0.7385559323102056  1.0000
  C   C25       1.0  0.08479854346823862  0.6503768959008341  0.6990363539205048  1.0000
  C   C26       1.0  0.11943722196129872  0.6850872217744242  0.6294432105012219  1.0000
  C   C27       1.0  0.6249817696121767  0.1339594003009381  0.7372997911693489  1.0000
  C   C28       1.0  0.6451365332681219  0.08681623811649082  0.7015005198506684  1.0000
  C   C29       1.0  0.6839950167796829  0.12007143012552751  0.6322534567888238  1.0000
  C   C30       1.0  0.7042056858854195  0.2034904347862181  0.5962014420112353  1.0000
  C   C31       1.0  0.6853872199439479  0.2513724413976135  0.6309013529832795  1.0000
  C   C32       1.0  0.6457547024461262  0.2176523854201591  0.701100227307286  1.0000
  C   C33       1.0  0.741977004018807  0.2383310175770674  0.5251921092653972  1.0000
  C   C34       1.0  0.7725035716536012  0.2677972519470515  0.46375647607003145  1.0000
  C   C35       1.0  0.8063159728744154  0.30240737598159484  0.39259146242587645  1.0000
  C   C36       1.0  0.8229403687483696  0.25422525975739774  0.3581282935355857  1.0000
  C   C37       1.0  0.8559648858756859  0.2877183085781781  0.28760473835073685  1.0000
  C   C38       1.0  0.8724752621613873  0.3714708463291175  0.25088140623952865  1.0000
  C   C39       1.0  0.8552589897131142  0.4188850208127803  0.2865198304705314  1.0000
  C   C40       1.0  0.8228244035250825  0.3858716970141529  0.35606349073357524  1.0000
  C   C41       1.0  0.18890071391583518  0.2593673742742766  0.9624841643755386  1.0000
  C   C42       1.0  0.2478893157156818  0.19841803409877207  0.9608743503342436  1.0000
  C   C43       1.0  0.30304680833950925  0.20246899975308716  0.9984970290273479  1.0000
  C   C44       1.0  0.24806587018017012  0.18353466282017192  0.07205920887468406  1.0000
  C   C45       1.0  0.18975428222393734  0.24493596483434046  0.07353096934337332  1.0000
  C   C46       1.0  0.2040656729793824  0.3052072160199445  0.0009769346132699865  1.0000
  C   C47       1.0  0.2924428148661278  0.3474255826681514  0.9654889490950536  1.0000
  C   C48       1.0  0.3510380636491064  0.2865239000280368  0.9643244492483516  1.0000
  C   C49       1.0  0.850176126165806  0.7866050319206935  0.9565341061891389  1.0000
  C   C50       1.0  0.7913470128215535  0.8478695423278283  0.9574595374854692  1.0000
  C   C51       1.0  0.7023543319985208  0.8054416877326247  0.9906726049866419  1.0000
  C   C52       1.0  0.6874262316017621  0.7451440159937591  0.0633327675350016  1.0000
  C   C53       1.0  0.7455518919980975  0.6836191228478796  0.062178023821026246  1.0000
  C   C54       1.0  0.801483320754535  0.7023828027911352  0.9887892319140899  1.0000
  C   C55       1.0  0.7492720051138022  0.7007298552368585  0.9490002200813236  1.0000
  C   C56       1.0  0.6903541894900515  0.7614856425454661  0.9503933230446363  1.0000
  C   C57       1.0  0.2185302480485873  0.7709162851892871  0.9396642552189217  1.0000
  C   C58       1.0  0.2768217984425689  0.8340245442785846  0.9377881983347716  1.0000
  C   C59       1.0  0.2972822301072355  0.8001806633890354  0.001880459333520412  1.0000
  C   C60       1.0  0.337143601821424  0.7261770870124664  0.004459040608530435  1.0000
  C   C61       1.0  0.2782313409654479  0.6630985960975695  0.006940887702633191  1.0000
  C   C62       1.0  0.19831118260178468  0.6942539791847153  0.0054061444778028545  1.0000
  C   C63       1.0  0.15927063128298616  0.713850876180537  0.06613229144669917  1.0000
  C   C64       1.0  0.2181131364784861  0.7764819832996964  0.06416224787705709  1.0000
  C   C65       1.0  0.8414068935863526  0.2880470629168528  0.9291881262896805  1.0000
  C   C66       1.0  0.7834866707308237  0.22448008238117723  0.9310179927821519  1.0000
  C   C67       1.0  0.7037243251268777  0.19951233187685352  0.9940182606280457  1.0000
  C   C68       1.0  0.6641542860666333  0.2739993637470448  0.9906381428426768  1.0000
  C   C69       1.0  0.7221843671042263  0.336505654114859  0.9897757514939158  1.0000
  C   C70       1.0  0.8018656967063366  0.3053690358267218  0.9917245377782108  1.0000
  C   C71       1.0  0.7829874648436714  0.22773144705606543  0.05565985911479023  1.0000
  C   C72       1.0  0.7240278944377536  0.16548568285966783  0.05745581767838096  1.0000
  O   O1        1.0  0.00020600673142468013  0.5035766773079544  0.9935739904121516  1.0000
  O   O2        1.0  0.17166497563643188  0.6063553144777742  0.9610681012072531  1.0000
  O   O3        1.0  0.9201243070768896  0.4848256298192339  0.14691102909159776  1.0000
  O   O4        1.0  0.07036880813232219  0.33454660320315105  0.04010618664236175  1.0000
  O   O5        1.0  0.06751035267740238  0.619249856398639  0.04443162914218142  1.0000
  O   O6        1.0  0.17190550411600472  0.4364374552103385  0.962376352449574  1.0000
  O   O7        1.0  0.9239088917129834  0.36362032618854573  0.1460746895002458  1.0000
  O   O8        1.0  0.9014461501713312  0.3397224229980864  0.02681755158435099  1.0000
  O   O9        1.0  0.015776585744106293  0.5800143695895414  0.8397093004265695  1.0000
  O   O10       1.0  0.8678989341499204  0.43878358355180325  0.9490323705280233  1.0000
  O   O11       1.0  0.14056638229166651  0.5768418275150398  0.8461503893821882  1.0000
  O   O12       1.0  0.8994945760094454  0.6347190078893803  0.027720133628967754  1.0000
  O   O13       1.0  0.8681114183988684  0.6082015359043922  0.9511558632913617  1.0000
  O   O14       1.0  0.5020857911894154  0.0016669445802434976  0.9950092774406227  1.0000
  O   O15       1.0  0.32816757949865394  0.06893369987665919  0.03171428611775442  1.0000
  O   O16       1.0  0.5653887051913813  0.14155567745324765  0.8417580523716378  1.0000
  O   O17       1.0  0.42863287852485854  0.8773578706462004  0.9539156312737442  1.0000
  O   O18       1.0  0.4348360685700499  0.1680221261190127  0.9603754378576494  1.0000
  O   O19       1.0  0.3292644744619224  0.8975251084987336  0.03579285061440618  1.0000
  O   O20       1.0  0.5684987595808906  0.0204389048124511  0.8408034663077115  1.0000
  O   O21       1.0  0.6071908449817299  0.8806668718621965  0.9522209679848924  1.0000
  O   O22       1.0  0.4944691558907408  0.92399671525353  0.14745617397919358  1.0000
  O   O23       1.0  0.6398895167239332  0.8981764510810208  0.03195415527051869  1.0000
  O   O24       1.0  0.3681943211276106  0.9300460449650885  0.14422811775957442  1.0000
  O   O25       1.0  0.6177274997260583  0.16628996215473532  0.9469215214366142  1.0000
  O   O26       1.0  0.6333687001695836  0.06805973761260731  0.0364069142356485  1.0000
  O   O27       1.0  0.24177448546540603  0.8744694423072731  0.2523602146450725  1.0000
  O   O28       1.0  0.2692625209030126  0.6304052296268238  0.7390450982324167  1.0000
  O   O29       1.0  0.628834389560609  0.2669219882548433  0.7314574765102078  1.0000
  O   O30       1.0  0.8707716910740257  0.2382475173615504  0.25738164340873476  1.0000
