data_image0
_chemical_formula_structural       Cd2H8C12N4O10
_chemical_formula_sum              "Cd2 H8 C12 N4 O10"
_cell_length_a       6.797202379222452
_cell_length_b       7.640995897032288
_cell_length_c       8.09603650525697
_cell_angle_alpha    84.54935682397713
_cell_angle_beta     77.4591134608299
_cell_angle_gamma    86.91429465533173

_space_group_name_H-M_alt    "P 1"
_space_group_IT_number       1

loop_
  _space_group_symop_operation_xyz
  'x, y, z'

loop_
  _atom_site_type_symbol
  _atom_site_label
  _atom_site_symmetry_multiplicity
  _atom_site_fract_x
  _atom_site_fract_y
  _atom_site_fract_z
  _atom_site_occupancy
  Cd  Cd1       1.0  0.2829280738661382  0.3516630001843169  0.5877031299373813  1.0000
  Cd  Cd2       1.0  0.7170604047789767  0.648339686943551  0.41229469166024313  1.0000
  H   H1        1.0  0.32185886475057407  0.36278322294708  0.16348338190257294  1.0000
  H   H2        1.0  0.6781481378346115  0.6372020005554334  0.8365116385162922  1.0000
  H   H3        1.0  0.2912523777357948  0.13834469693666318  0.9574335716166833  1.0000
  H   H4        1.0  0.7087602728760487  0.8616534085385795  0.042556663309390806  1.0000
  H   H5        1.0  0.1889853922085933  0.6228709167118112  0.7955239996112414  1.0000
  H   H6        1.0  0.8110198879279126  0.3771253390741266  0.20447423795286584  1.0000
  H   H7        1.0  0.04438626278048469  0.46657608766297903  0.8605508560006927  1.0000
  H   H8        1.0  0.9556206625526116  0.5334274568137972  0.13946431297026152  1.0000
  C   C1        1.0  0.2342835629648476  0.68573344035822  0.35588115494950784  1.0000
  C   C2        1.0  0.7657082644636759  0.31426536507408537  0.644129168543799  1.0000
  C   C3        1.0  0.29976436038933946  0.22397279871891135  0.204651298756808  1.0000
  C   C4        1.0  0.7002425026724454  0.7760239942858649  0.7953514963225532  1.0000
  C   C5        1.0  0.2853361290818127  0.10047473680754851  0.09152867564056076  1.0000
  C   C6        1.0  0.7146795190452836  0.899524784469314  0.9084619472213409  1.0000
  C   C7        1.0  0.2535831843890506  0.8808136175824545  0.3072197806724477  1.0000
  C   C8        1.0  0.7464069120621986  0.11918671438868962  0.6927806547753051  1.0000
  C   C9        1.0  0.2585768158430568  0.003915078478542008  0.4245307243432352  1.0000
  C   C10       1.0  0.7414118122754941  0.9960871291824065  0.5754746119831611  1.0000
  C   C11       1.0  0.23393736626974965  0.9530418296541188  0.6139989542893364  1.0000
  C   C12       1.0  0.7660662960606287  0.046956781288543026  0.3859966694246497  1.0000
  N   N1        1.0  0.2848563693280184  0.17408437034907112  0.369302407031448  1.0000
  N   N2        1.0  0.7151425018552829  0.8259280575357696  0.630697749023746  1.0000
  N   N3        1.0  0.2642246632808138  0.9295385308452779  0.14193645274597352  1.0000
  N   N4        1.0  0.7357878755813018  0.07046033030285065  0.8580486921831327  1.0000
  O   O1        1.0  0.07649150358322031  0.6144163956618771  0.3443582518784255  1.0000
  O   O2        1.0  0.9235093267243286  0.3855772895336927  0.6556413425974699  1.0000
  O   O3        1.0  0.3861828735352049  0.5971049514326269  0.395743939490096  1.0000
  O   O4        1.0  0.6138028485345188  0.40289336236007517  0.6042627023330598  1.0000
  O   O5        1.0  0.17783025854699736  0.7990886103859013  0.6632210021154069  1.0000
  O   O6        1.0  0.8221674507408849  0.20091219803176597  0.3367828230541294  1.0000
  O   O7        1.0  0.2708189210167334  0.06777768115503591  0.7063670380351044  1.0000
  O   O8        1.0  0.7291860267134709  0.9322240102310746  0.2936202979350569  1.0000
  O   O9        1.0  0.1867971614855719  0.49539813602245186  0.8406744883717823  1.0000
  O   O10       1.0  0.8132033463657109  0.5046120748086411  0.1593294938994419  1.0000
