data_image0
_chemical_formula_structural       Li4H48C48S4N4
_chemical_formula_sum              "Li4 H48 C48 S4 N4"
_cell_length_a       8.051721567790386
_cell_length_b       11.849191944833777
_cell_length_c       12.1317
_cell_angle_alpha    92.219508401144
_cell_angle_beta     100.28173370638704
_cell_angle_gamma    99.91390653496171

_space_group_name_H-M_alt    "P 1"
_space_group_IT_number       1

loop_
  _space_group_symop_operation_xyz
  'x, y, z'

loop_
  _atom_site_type_symbol
  _atom_site_label
  _atom_site_symmetry_multiplicity
  _atom_site_fract_x
  _atom_site_fract_y
  _atom_site_fract_z
  _atom_site_occupancy
  Li  Li1       1.0  0.5047989321240607  0.446891462589413  0.5475113497637736  1.0000
  Li  Li2       1.0  0.0056600578579377985  0.5486347239873481  0.44953473757584567  1.0000
  Li  Li3       1.0  0.2675645369936106  0.4547361693596415  0.3235123113718146  1.0000
  Li  Li4       1.0  0.7685827065616024  0.3256528207508822  0.4530067284666828  1.0000
  H   H1        1.0  0.6424194441717931  0.3388221018415649  0.7585862481963588  1.0000
  H   H2        1.0  0.14301019950692506  0.7600638728101927  0.3408537920568833  1.0000
  H   H3        1.0  0.5212781852356656  0.22101922339741986  0.9022885967069528  1.0000
  H   H4        1.0  0.0213126544641824  0.903962233175541  0.2196397801785395  1.0000
  H   H5        1.0  0.20095128049255354  0.1670004334291946  0.8804282132055691  1.0000
  H   H6        1.0  0.7010718922603801  0.8812054543328287  0.164076767263829  1.0000
  H   H7        1.0  0.016023027366230704  0.23168555085528914  0.7119906448473331  1.0000
  H   H8        1.0  0.5166017648051594  0.7118034222909557  0.23064474093059323  1.0000
  H   H9        1.0  0.1581615969224757  0.3519226676643541  0.579766748427808  1.0000
  H   H10       1.0  0.6589094139339124  0.5807410739670331  0.3547676608406221  1.0000
  H   H11       1.0  0.43339963126143033  0.3863395685267648  0.14373547225118702  1.0000
  H   H12       1.0  0.9324311419027325  0.140502967190848  0.3892422612582038  1.0000
  H   H13       1.0  0.4756812493858789  0.4449055913474568  0.9521168465251721  1.0000
  H   H14       1.0  0.9738849175556581  0.9446811830441035  0.4489840159738635  1.0000
  H   H15       1.0  0.3405208936198321  0.6079136677123813  0.872301931923417  1.0000
  H   H16       1.0  0.841828389619387  0.8670595574972995  0.6099306292238396  1.0000
  H   H17       1.0  0.1680043384071439  0.7042602037585866  0.9882125296011639  1.0000
  H   H18       1.0  0.6715881391223988  0.9887070551797594  0.7028454290043556  1.0000
  H   H19       1.0  0.1440617258127475  0.6376209959019334  0.17840934025486635  1.0000
  H   H20       1.0  0.646284860890937  0.18218307186898391  0.6340871360097254  1.0000
  H   H21       1.0  0.2171682959935595  0.2176581878568626  0.40794313382946973  1.0000
  H   H22       1.0  0.7167260894034299  0.40993381469685636  0.2168923333048411  1.0000
  H   H23       1.0  0.4000615802070868  0.1612584138563307  0.47055774050329563  1.0000
  H   H24       1.0  0.9007029618641553  0.4737582733926615  0.16422364806582834  1.0000
  H   H25       1.0  0.4757160678954477  0.0015838869248128002  0.3773261314728772  1.0000
  H   H26       1.0  0.9760808812743703  0.38151833354359616  0.0073511638850689625  1.0000
  H   H27       1.0  0.4305037957023147  0.86381877367554  0.21087376088431148  1.0000
  H   H28       1.0  0.9299694500374045  0.2144981444748808  0.868592912447035  1.0000
  H   H29       1.0  0.24445670515546417  0.8959646349342592  0.03182102231014031  1.0000
  H   H30       1.0  0.7417557285752068  0.031051570617606203  0.8950754032258246  1.0000
  H   H31       1.0  0.0937787359737428  0.063825317636649  0.023808069403259004  1.0000
  H   H32       1.0  0.5919374597718274  0.0193691161358487  0.05865916655165648  1.0000
  H   H33       1.0  0.13608668275730912  0.2000456057563937  0.1911336204783396  1.0000
  H   H34       1.0  0.6363366857712834  0.1869759618041513  0.1964479360318379  1.0000
  H   H35       1.0  0.4247108036183675  0.7652166589609237  0.43479098133342126  1.0000
  H   H36       1.0  0.9181772193725949  0.4302305869491931  0.7599281472899763  1.0000
  H   H37       1.0  0.5810406580957022  0.7091475771870961  0.5283292331624168  1.0000
  H   H38       1.0  0.0787752443796919  0.5255240615150143  0.7099410589151418  1.0000
  H   H39       1.0  0.552914055363452  0.704626112560085  0.7362467758083684  1.0000
  H   H40       1.0  0.05107604037826256  0.7400917801986324  0.7078017572339593  1.0000
  H   H41       1.0  0.5080018574783621  0.8270629768824094  0.895005290379409  1.0000
  H   H42       1.0  0.007617974745890896  0.9011174210849902  0.8301389975265251  1.0000
  H   H43       1.0  0.3468790981745186  0.9875878552540344  0.8583227365971099  1.0000
  H   H44       1.0  0.848734794393188  0.8615812327649479  0.9870592665335566  1.0000
  H   H45       1.0  0.2248650395321334  0.0217689968668253  0.6609413559929322  1.0000
  H   H46       1.0  0.7278895207861068  0.6592491264695894  0.017950982388526892  1.0000
  H   H47       1.0  0.2695950142423698  0.8985457521842974  0.5028070946580173  1.0000
  H   H48       1.0  0.7703029724783832  0.4988977541493753  0.894497506339235  1.0000
  C   C1        1.0  0.5038583694739174  0.3131844353926638  0.751891664133609  1.0000
  C   C2        1.0  0.004435324082571387  0.7533916202982952  0.314602453295123  1.0000
  C   C3        1.0  0.436169992482121  0.2476893367463404  0.8318752515205077  1.0000
  C   C4        1.0  0.9364976692279114  0.8331915198371433  0.2470557725661991  1.0000
  C   C5        1.0  0.2580641936022374  0.2175722937720082  0.8189245885173834  1.0000
  C   C6        1.0  0.75842687956753  0.8196967001648474  0.21602999930929204  1.0000
  C   C7        1.0  0.1555322334435942  0.2537766505403383  0.7268081706436433  1.0000
  C   C8        1.0  0.656036121389441  0.7272901257911499  0.2533829785651349  1.0000
  C   C9        1.0  0.2345840972458433  0.320025899251732  0.6516216848899106  1.0000
  C   C10       1.0  0.7351915293701837  0.6526876773271654  0.3219589108611132  1.0000
  C   C11       1.0  0.378859054333283  0.45726918592215793  0.1057248779385773  1.0000
  C   C12       1.0  0.8786831311977396  0.1031270151050236  0.4591421853403191  1.0000
  C   C13       1.0  0.4013955544936252  0.4901932475897013  0.9994691038956562  1.0000
  C   C14       1.0  0.9008550029713831  0.9946423364435617  0.4927332648017072  1.0000
  C   C15       1.0  0.3264043377836572  0.5805151725238531  0.9554353322793077  1.0000
  C   C16       1.0  0.8274597127953099  0.9517975079747247  0.581956487620552  1.0000
  C   C17       1.0  0.23170417368865506  0.634880974594914  0.019780053569789405  1.0000
  C   C18       1.0  0.7340837174292432  0.0193845770711221  0.6343493969143595  1.0000
  C   C19       1.0  0.2170574119247135  0.5971047560736409  0.12562632385540703  1.0000
  C   C20       1.0  0.7188854863999694  0.127014160104487  0.5955723746828668  1.0000
  C   C21       1.0  0.3397105326631618  0.19629203424803174  0.3941681070468164  1.0000
  C   C22       1.0  0.8396264943592442  0.3953782030765467  0.19715854298922864  1.0000
  C   C23       1.0  0.3098751360679231  0.1106204150681833  0.29518840880023595  1.0000
  C   C24       1.0  0.810310018964195  0.2953974882999262  0.11183475246215122  1.0000
  C   C25       1.0  0.3918913457985269  0.0152187139554272  0.2995809767518338  1.0000
  C   C26       1.0  0.8919993418653152  0.3018232247882793  0.018750332165382123  1.0000
  C   C27       1.0  0.3678443031467538  0.9382717664318747  0.20542899365734976  1.0000
  C   C28       1.0  0.867304357760446  0.2073620639047391  0.941129883395526  1.0000
  C   C29       1.0  0.2633404508350594  0.956066443992249  0.10518164497929663  1.0000
  C   C30       1.0  0.7618391006211525  0.1046765443958932  0.9557123150575608  1.0000
  C   C31       1.0  0.1799216109580328  0.0505314901229212  0.1003949358015532  1.0000
  C   C32       1.0  0.6788004091919007  0.0978101712522133  0.047858578469053704  1.0000
  C   C33       1.0  0.20214482131276407  0.1267358632695448  0.194547259593655  1.0000
  C   C34       1.0  0.7020828487141556  0.1922060526312563  0.12492510809939013  1.0000
  C   C35       1.0  0.4466444838737331  0.7214012273331747  0.5129510943373604  1.0000
  C   C36       1.0  0.9436852169213666  0.5114537514741571  0.7197780899117916  1.0000
  C   C37       1.0  0.413586382215037  0.7929398337902215  0.6085905892252157  1.0000
  C   C38       1.0  0.91246514884714  0.6083757778889236  0.7921454845556896  1.0000
  C   C39       1.0  0.47909077482251666  0.773355123501375  0.7200005018985538  1.0000
  C   C40       1.0  0.9781810575350534  0.7226716008482512  0.7749453276926419  1.0000
  C   C41       1.0  0.4540696815959677  0.8425393730924143  0.8090473429415042  1.0000
  C   C42       1.0  0.9540082065443656  0.8129540145033617  0.8441055004156652  1.0000
  C   C43       1.0  0.36325224351137564  0.9324893766391258  0.7884946029181493  1.0000
  C   C44       1.0  0.8643505820971029  0.7907959174321206  0.9320001219022063  1.0000
  C   C45       1.0  0.2953303026235616  0.9516600774389445  0.6781237579241832  1.0000
  C   C46       1.0  0.7969371417293516  0.6776089871083357  0.9492092862181709  1.0000
  C   C47       1.0  0.3200633296306421  0.8819415666400802  0.5891239703182762  1.0000
  C   C48       1.0  0.8204916871577056  0.5873875582534751  0.8793393526228075  1.0000
  S   S1        1.0  0.476361464079524  0.3304792093791491  0.3693516738589366  1.0000
  S   S2        1.0  0.9746326044055922  0.3687278453671469  0.329246621200909  1.0000
  S   S3        1.0  0.31077527481983225  0.5785490569214176  0.49484255516370723  1.0000
  S   S4        1.0  0.8110926701871364  0.49900598069630325  0.5787453999480974  1.0000
  N   N1        1.0  0.40601741721308565  0.34953910680950173  0.6633147843197663  1.0000
  N   N2        1.0  0.9066039076745582  0.6649301612422036  0.3523678075742752  1.0000
  N   N3        1.0  0.28914283882346575  0.5100931891699858  0.16883194140343963  1.0000
  N   N4        1.0  0.7900602162748598  0.1692551531567617  0.5098970178936426  1.0000
