data_image0
_chemical_formula_structural       Zn2H44C48N20
_chemical_formula_sum              "Zn2 H44 C48 N20"
_cell_length_a       9.61496032300924
_cell_length_b       10.274985706312378
_cell_length_c       13.322126807046773
_cell_angle_alpha    98.67001369350916
_cell_angle_beta     105.64348347891584
_cell_angle_gamma    109.51902417431327

_space_group_name_H-M_alt    "P 1"
_space_group_IT_number       1

loop_
  _space_group_symop_operation_xyz
  'x, y, z'

loop_
  _atom_site_type_symbol
  _atom_site_label
  _atom_site_symmetry_multiplicity
  _atom_site_fract_x
  _atom_site_fract_y
  _atom_site_fract_z
  _atom_site_occupancy
  Zn  Zn1       1.0  0.6067131548335991  0.9853202779455611  0.7022200510066837  1.0000
  Zn  Zn2       1.0  0.39328761089777936  0.014678939300012  0.2977796955192034  1.0000
  H   H1        1.0  0.3614631480606008  0.3250105813349577  0.0794724777527591  1.0000
  H   H2        1.0  0.6385433358663305  0.6749918174094347  0.9205317538134636  1.0000
  H   H3        1.0  0.3128762316598497  0.47656162554462606  0.08014640110262414  1.0000
  H   H4        1.0  0.6871219134813201  0.5234365162034321  0.9198534634086853  1.0000
  H   H5        1.0  0.36208385972202  0.4859174362194664  0.9028911081379929  1.0000
  H   H6        1.0  0.6379138239618384  0.5140796278372902  0.0971092871565347  1.0000
  H   H7        1.0  0.16249303028054388  0.08798916938906842  0.9728826478002048  1.0000
  H   H8        1.0  0.8375108193289477  0.9120046741387707  0.02711853386725242  1.0000
  H   H9        1.0  0.885491515837856  0.9430956768590165  0.8483257466199561  1.0000
  H   H10       1.0  0.11451325446370218  0.056900328792487194  0.1516736232247169  1.0000
  H   H11       1.0  0.8163829834861006  0.30539276057009357  0.7925589490697932  1.0000
  H   H12       1.0  0.18361964546290466  0.6946031933466158  0.20744601002781593  1.0000
  H   H13       1.0  0.08741200308485017  0.4666159320222291  0.9166519646687589  1.0000
  H   H14       1.0  0.9125881552581491  0.5333768101406947  0.08335212961058157  1.0000
  H   H15       1.0  0.5640622221638553  0.2637182716354118  0.04121707063283253  1.0000
  H   H16       1.0  0.4359365344188291  0.7362788115476775  0.9587812802915749  1.0000
  H   H17       1.0  0.6255891263366992  0.08545261097339818  0.9321893446217047  1.0000
  H   H18       1.0  0.37440947803922586  0.9145466152070295  0.06780923885004593  1.0000
  H   H19       1.0  0.40119676159032025  0.15220337528998576  0.6451875188645175  1.0000
  H   H20       1.0  0.5988075543135238  0.8477990526124798  0.3548132988785397  1.0000
  H   H21       1.0  0.33828993088278736  0.342122397299029  0.7423576350698298  1.0000
  H   H22       1.0  0.661709284934659  0.6578757703164299  0.2576394348150188  1.0000
  H   H23       1.0  0.04484962369700433  0.719165567324964  0.4601361907245192  1.0000
  H   H24       1.0  0.9551492921520149  0.2808368728030358  0.5398628447677041  1.0000
  H   H25       1.0  0.8600387810912126  0.5888789125478198  0.3686033003697347  1.0000
  H   H26       1.0  0.1399590529688126  0.4111235354181488  0.6313947784672465  1.0000
  H   H27       1.0  0.8273339926655581  0.4453291403726354  0.4912240291749299  1.0000
  H   H28       1.0  0.17266553907006713  0.5546722277082524  0.5087749932430654  1.0000
  H   H29       1.0  0.6175685921759424  0.555372409975682  0.44318837074156653  1.0000
  H   H30       1.0  0.3824320280163178  0.4446289300440183  0.5568138591006927  1.0000
  H   H31       1.0  0.5041186754536398  0.695117140063047  0.5428928438547587  1.0000
  H   H32       1.0  0.49588086294961903  0.3048842077946147  0.45710842933226553  1.0000
  H   H33       1.0  0.9160334038995754  0.0581217295194634  0.6510247468087939  1.0000
  H   H34       1.0  0.08396442793790729  0.9418807251875805  0.34897258177183943  1.0000
  H   H35       1.0  0.05270159428982163  0.9283537593603767  0.5682094621542149  1.0000
  H   H36       1.0  0.9472968512117177  0.0716476300406228  0.43178710309585705  1.0000
  H   H37       1.0  0.781470516698768  0.4660758989040232  0.6563341798856754  1.0000
  H   H38       1.0  0.21852994684164873  0.5339275975951664  0.34366678199124573  1.0000
  H   H39       1.0  0.8656448301662394  0.5942264424848461  0.8497063090781865  1.0000
  H   H40       1.0  0.13435547672234094  0.4057792104938401  0.1502933848334038  1.0000
  H   H41       1.0  0.29319742070453697  0.8639690887878683  0.8457342657637525  1.0000
  H   H42       1.0  0.7068038064841531  0.13603120614900624  0.15426494997892348  1.0000
  H   H43       1.0  0.22642685833535137  0.7521646690196775  0.6526762050104935  1.0000
  H   H44       1.0  0.7735737529667331  0.24783669796430974  0.34732302380640323  1.0000
  C   C1        1.0  0.3131585946725934  0.3835978387214354  0.02725852440995883  1.0000
  C   C2        1.0  0.6868427891679403  0.6164002997359501  0.9727419592980481  1.0000
  C   C3        1.0  0.42033158584858643  0.4398058461649511  0.9621750401772715  1.0000
  C   C4        1.0  0.5796681047614243  0.5601933586953719  0.037826000462402504  1.0000
  C   C5        1.0  0.14818906892892866  0.29000342912274846  0.9550279926975731  1.0000
  C   C6        1.0  0.8518130896725964  0.7099914740669531  0.04497449615789156  1.0000
  C   C7        1.0  0.08959530085262908  0.14077358185502928  0.9347504491310942  1.0000
  C   C8        1.0  0.910403150924587  0.8592202671572695  0.06524970054186247  1.0000
  C   C9        1.0  0.9360028218704101  0.05960390152851859  0.865758760143258  1.0000
  C   C10       1.0  0.06399887082871912  0.9403899374520249  0.13424275898274374  1.0000
  C   C11       1.0  0.8965870345887054  0.26239199634113664  0.835623327697462  1.0000
  C   C12       1.0  0.10341296710245014  0.7376029023012761  0.16437949861654028  1.0000
  C   C13       1.0  0.04796708177182298  0.35079254217647815  0.9037910451317686  1.0000
  C   C14       1.0  0.9520329199193327  0.6492023564659348  0.09621178118223384  1.0000
  C   C15       1.0  0.4464653824233835  0.319773244028319  0.9001722700750961  1.0000
  C   C16       1.0  0.5535349196281487  0.680224902267028  0.09982725697766881  1.0000
  C   C17       1.0  0.5251897116055134  0.24341391229934567  0.9534738536958399  1.0000
  C   C18       1.0  0.47481105190332323  0.7565853116872957  0.046525142573706504  1.0000
  C   C19       1.0  0.5589518944081746  0.14276390110470066  0.89341450645756  1.0000
  C   C20       1.0  0.4410488668781127  0.8572353296230233  0.10658373955564573  1.0000
  C   C21       1.0  0.43382206766195  0.18055407231722134  0.7328529970968062  1.0000
  C   C22       1.0  0.5661813164371025  0.8194462271669349  0.2671458811873251  1.0000
  C   C23       1.0  0.3974928592991276  0.2842137829649474  0.787222636090192  1.0000
  C   C24       1.0  0.6025068224207147  0.7157854488596626  0.21277540352411256  1.0000
  C   C25       1.0  0.9276134442771564  0.6460027445019279  0.4541455142904595  1.0000
  C   C26       1.0  0.07238485790780662  0.3540007609321236  0.545854284532325  1.0000
  C   C27       1.0  0.944606563535089  0.5322037893813485  0.5161796469378642  1.0000
  C   C28       1.0  0.055393579642057454  0.4677965201345628  0.48381786189322895  1.0000
  C   C29       1.0  0.846660538012344  0.7297747615623179  0.49925529505327393  1.0000
  C   C30       1.0  0.15333884818416268  0.2702287292926897  0.5007462106810934  1.0000
  C   C31       1.0  0.6890526491193895  0.665567604583245  0.4912849744875487  1.0000
  C   C32       1.0  0.31094642115893834  0.33443268580634106  0.5087145787136719  1.0000
  C   C33       1.0  0.6246419578627354  0.7435613207131551  0.5446339518390957  1.0000
  C   C34       1.0  0.37535742388868687  0.25644218362399573  0.45536605338259045  1.0000
  C   C35       1.0  0.8547476848694869  0.9455494567880295  0.606188555546339  1.0000
  C   C36       1.0  0.1452521538941483  0.0544551387225738  0.3938094183794476  1.0000
  C   C37       1.0  0.9293338133583265  0.8734255228509725  0.5582300944994074  1.0000
  C   C38       1.0  0.07066355479930311  0.1265758609058381  0.4417670146081107  1.0000
  C   C39       1.0  0.9972246828561353  0.5970236939588531  0.6368142339534515  1.0000
  C   C40       1.0  0.002775314781885592  0.4029787383311856  0.36318575819400684  1.0000
  C   C41       1.0  0.8965906363763451  0.554132377367587  0.6951045887543897  1.0000
  C   C42       1.0  0.10341090450798154  0.44587112477578467  0.30489582926509223  1.0000
  C   C43       1.0  0.9441988794370461  0.625781219271296  0.8039223741916145  1.0000
  C   C44       1.0  0.05580204556067504  0.374223354919195  0.1960780569020883  1.0000
  C   C45       1.0  0.17990181007866815  0.7746459694022716  0.8019637174592873  1.0000
  C   C46       1.0  0.8200992626807206  0.22535647527301714  0.19803498057439137  1.0000
  C   C47       1.0  0.1430121296293478  0.7103266805999056  0.6930926057647042  1.0000
  C   C48       1.0  0.8569880246605165  0.289673595210644  0.30690865434809206  1.0000
  N   N1        1.0  0.6639346163132133  0.17223939367979574  0.6099902222965311  1.0000
  N   N2        1.0  0.33606862224671363  0.827763028578488  0.39001113930397213  1.0000
  N   N3        1.0  0.6421529246324199  0.14333989619589  0.5164473633779281  1.0000
  N   N4        1.0  0.35784661154829667  0.8566614584028469  0.48355315955274847  1.0000
  N   N5        1.0  0.6231946795189386  0.11737209297660914  0.4223771364793762  1.0000
  N   N6        1.0  0.3768026997514155  0.8826292570748391  0.5776237239098377  1.0000
  N   N7        1.0  0.5792230177341223  0.8379198011555998  0.7955394694529403  1.0000
  N   N8        1.0  0.42077296605158665  0.1620783495273201  0.20445923200423266  1.0000
  N   N9        1.0  0.5007157614774655  0.7125127158879678  0.7565968536530717  1.0000
  N   N10       1.0  0.4992802223082434  0.287485434794945  0.24340184780410104  1.0000
  N   N11       1.0  0.42513065061508837  0.5888550807014923  0.7224128630870722  1.0000
  N   N12       1.0  0.5748664127370803  0.4111430688845346  0.2775860447690022  1.0000
  N   N13       1.0  0.8410889003118386  0.11894162660345126  0.8163869797521313  1.0000
  N   N14       1.0  0.1589124857512301  0.8810565051128588  0.18361425421221603  1.0000
  N   N15       1.0  0.5159247023316098  0.11307546769565843  0.7850282597168459  1.0000
  N   N16       1.0  0.48407806588083707  0.8869259038356178  0.21497063164150634  1.0000
  N   N17       1.0  0.7055250205597118  0.8816443767399064  0.6020204379113352  1.0000
  N   N18       1.0  0.2944723498204667  0.11835700027583583  0.39797742145252357  1.0000
  N   N19       1.0  0.08345456870779341  0.7349466655895327  0.8584369361193466  1.0000
  N   N20       1.0  0.9165469699539914  0.2650568432949072  0.14156273164379485  1.0000
