data_image0
_chemical_formula_structural       Cu12H60C84N24
_chemical_formula_sum              "Cu12 H60 C84 N24"
_cell_length_a       26.869723225798424
_cell_length_b       27.31792213536259
_cell_length_c       28.805665303655584
_cell_angle_alpha    93.77227748387374
_cell_angle_beta     90.42959113692393
_cell_angle_gamma    94.48262333791871

_space_group_name_H-M_alt    "P 1"
_space_group_IT_number       1

loop_
  _space_group_symop_operation_xyz
  'x, y, z'

loop_
  _atom_site_type_symbol
  _atom_site_label
  _atom_site_symmetry_multiplicity
  _atom_site_fract_x
  _atom_site_fract_y
  _atom_site_fract_z
  _atom_site_occupancy
  Cu  Cu1       1.0  0.43565377186909165  0.35291139571123864  0.38988615060230813  1.0000
  Cu  Cu2       1.0  0.37111958900865005  0.409041611819319  0.3204374770023719  1.0000
  Cu  Cu3       1.0  0.33484963024542225  0.39222699744669154  0.4226892367212685  1.0000
  Cu  Cu4       1.0  0.0593007073868677  0.844572930279739  0.6234980487376305  1.0000
  Cu  Cu5       1.0  0.1075776872228147  0.9449212073316531  0.6693805304913455  1.0000
  Cu  Cu6       1.0  0.1563574076777599  0.895382130695431  0.5786754553081934  1.0000
  Cu  Cu7       1.0  0.5834312005930826  0.15081641575174845  0.8697756702439463  1.0000
  Cu  Cu8       1.0  0.6156191256628886  0.04797697780487201  0.8278545577466687  1.0000
  Cu  Cu9       1.0  0.6764893163562745  0.10393930768320564  0.9127042537572052  1.0000
  Cu  Cu10      1.0  0.9188113941337406  0.6846783393678281  0.1416036480187586  1.0000
  Cu  Cu11      1.0  0.882016326868296  0.5794657613392359  0.1724613524734053  1.0000
  Cu  Cu12      1.0  0.8534748706455916  0.6101981872862228  0.0726998527270979  1.0000
  H   H1        1.0  0.5368325285330684  0.3507876394610606  0.33384989167970497  1.0000
  H   H2        1.0  0.4395650808172888  0.40315615539275734  0.2305164205139647  1.0000
  H   H3        1.0  0.307662098072818  0.3227356510102197  0.5049311826694591  1.0000
  H   H4        1.0  0.4512401725422279  0.2734836481217968  0.4636900312932681  1.0000
  H   H5        1.0  0.2862986441773288  0.47493274560611093  0.2864526950310875  1.0000
  H   H6        1.0  0.2525047501509974  0.469391410434106  0.4329588348262519  1.0000
  H   H7        1.0  0.975809879010434  0.8179087392820252  0.6974961881917849  1.0000
  H   H8        1.0  0.031139351581401783  0.963783552974746  0.752128159759323  1.0000
  H   H9        1.0  0.17207123011280603  0.8173819645190222  0.4934575138976314  1.0000
  H   H10       1.0  0.03233851263310329  0.7569609328877647  0.5481219414036289  1.0000
  H   H11       1.0  0.18805454598950178  0.0341097203502585  0.6934487193476714  1.0000
  H   H12       1.0  0.2503733368885008  0.9711185260846732  0.566923876016034  1.0000
  H   H13       1.0  0.5051510035204458  0.17401979736128942  0.7922727850452773  1.0000
  H   H14       1.0  0.535706711482611  0.0254527325733207  0.7455876591339674  1.0000
  H   H15       1.0  0.7075412672018186  0.1844365864267417  0.9944203986063725  1.0000
  H   H16       1.0  0.5714548723159182  0.23987976261484084  0.9448650716229849  1.0000
  H   H17       1.0  0.6805009107927731  0.9569274317779345  0.8075340095996282  1.0000
  H   H18       1.0  0.7634425703566806  0.0328035197491801  0.9240078544022622  1.0000
  H   H19       1.0  0.0007543188399949995  0.7179691020323704  0.220597327120359  1.0000
  H   H20       1.0  0.9546710890708638  0.5704338832329725  0.2583875952301611  1.0000
  H   H21       1.0  0.8459982152565573  0.6747029632940027  0.9855278904779111  1.0000
  H   H22       1.0  0.9123488526533735  0.7834806620533142  0.0886830729442352  1.0000
  H   H23       1.0  0.8016337900160266  0.4887775528759732  0.1823089037020864  1.0000
  H   H24       1.0  0.7787218710401406  0.5187362754465427  0.03813408680663599  1.0000
  H   H25       1.0  0.9219807265425857  0.7811055448806529  0.8615376105921158  1.0000
  H   H26       1.0  0.8201679081285248  0.8556666948257571  0.9510261645618813  1.0000
  H   H27       1.0  0.8638127878388602  0.9148596864916456  0.8212324388427348  1.0000
  H   H28       1.0  0.6281267451728567  0.41911640402276623  0.1919096159764067  1.0000
  H   H29       1.0  0.688106825171154  0.35691138652840954  0.0650259108103626  1.0000
  H   H30       1.0  0.5394220015688163  0.30926386930757127  0.1066515746066372  1.0000
  H   H31       1.0  0.06916504090115441  0.690084494086989  0.3787936935557852  1.0000
  H   H32       1.0  0.1985277922058799  0.6364703258868971  0.44132869353440185  1.0000
  H   H33       1.0  0.12170794603783007  0.5520552496472463  0.32705022270670275  1.0000
  H   H34       1.0  0.3758745646381101  0.07998522110727183  0.6713124928723175  1.0000
  H   H35       1.0  0.33465175293578403  0.147433202693513  0.5471653553465714  1.0000
  H   H36       1.0  0.463563178938898  0.2073174304317789  0.6276843296843566  1.0000
  H   H37       1.0  0.9443347474458008  0.9245996952097497  0.7949778187201133  1.0000
  H   H38       1.0  0.9423508861850391  0.8117510290401098  0.7843567184583335  1.0000
  H   H39       1.0  0.583259677804321  0.3776502180443729  0.2482405571230188  1.0000
  H   H40       1.0  0.5010260199526044  0.35553662164231536  0.1733014473901235  1.0000
  H   H41       1.0  0.0445504553699365  0.6900853137450584  0.3036585937031759  1.0000
  H   H42       1.0  0.043809537084221986  0.5772004428750535  0.2972514139633233  1.0000
  H   H43       1.0  0.4530223692568995  0.0649337978137225  0.700032315615765  1.0000
  H   H44       1.0  0.48049908921336737  0.1764918545628404  0.7032711679000343  1.0000
  H   H45       1.0  0.8706594958501696  0.821030843235576  0.005863993860792501  1.0000
  H   H46       1.0  0.8848995741671998  0.7402279820992985  0.9287422689480991  1.0000
  H   H47       1.0  0.3322748118226286  0.23313515618450964  0.5408071193012916  1.0000
  H   H48       1.0  0.44669658854223837  0.2361593784147189  0.547868831152158  1.0000
  H   H49       1.0  0.6837071542212529  0.2748901968037388  0.0387729249634461  1.0000
  H   H50       1.0  0.5701231305766683  0.2801561678996976  0.03056269432239839  1.0000
  H   H51       1.0  0.060357793050272286  0.7147582850627217  0.4586990705968148  1.0000
  H   H52       1.0  0.175028559884332  0.7212425546259311  0.4629239964999313  1.0000
  H   H53       1.0  0.7757703494586393  0.9230473195504132  0.8251943073049403  1.0000
  H   H54       1.0  0.7968060948849852  0.9412220540736769  0.9302051380615168  1.0000
  H   H55       1.0  0.19994763208817545  0.524088460140149  0.3175518135256752  1.0000
  H   H56       1.0  0.2216365497902046  0.5549607322131891  0.4207599113971909  1.0000
  H   H57       1.0  0.28768529899145523  0.0707686856816636  0.6726517196947626  1.0000
  H   H58       1.0  0.29495919985608765  0.0640822695734968  0.5659789988554991  1.0000
  H   H59       1.0  0.7241608755225143  0.4345970485501952  0.0657131419009929  1.0000
  H   H60       1.0  0.7127437756749232  0.4435773502892175  0.17201320434765677  1.0000
  C   C1        1.0  0.5066492208306813  0.3640248360884044  0.3140758633195375  1.0000
  C   C2        1.0  0.5052865511242715  0.3755655138453162  0.26726557166668385  1.0000
  C   C3        1.0  0.4565903526071152  0.3897299026192727  0.2610109915692362  1.0000
  C   C4        1.0  0.34356033911478073  0.31676814557969374  0.4893932711056408  1.0000
  C   C5        1.0  0.37752116274153746  0.2821296431389584  0.4993362926190342  1.0000
  C   C6        1.0  0.4173420618737254  0.29216179308834705  0.4690519614319939  1.0000
  C   C7        1.0  0.2840465191884363  0.46790298004184894  0.3230704351753886  1.0000
  C   C8        1.0  0.25302382283901187  0.4874289919920399  0.357545517793831  1.0000
  C   C9        1.0  0.2674606776482022  0.4658987603390301  0.3981008194348163  1.0000
  C   C10       1.0  0.9956792494955948  0.8536510927475832  0.7054531359036459  1.0000
  C   C11       1.0  0.9877059676336516  0.889788307520753  0.7411618469637632  1.0000
  C   C12       1.0  0.023508184271868463  0.9284971916051884  0.7327598932773894  1.0000
  C   C13       1.0  0.1387743372504389  0.8084170396524473  0.5132722090200659  1.0000
  C   C14       1.0  0.1011882021390562  0.7699649833045328  0.504901323534618  1.0000
  C   C15       1.0  0.06690167675195369  0.7781319387960436  0.5406592324772816  1.0000
  C   C16       1.0  0.1965960729156251  0.012559696683816  0.6618977969646735  1.0000
  C   C17       1.0  0.23700622563973892  0.019325770276061898  0.6316350234061828  1.0000
  C   C18       1.0  0.22796917959858126  0.9810279001907461  0.596790813398826  1.0000
  C   C19       1.0  0.5190217605102703  0.1378812906005749  0.7864630470284766  1.0000
  C   C20       1.0  0.5052914295825772  0.1002625172761711  0.751959860688352  1.0000
  C   C21       1.0  0.533935867422052  0.061655958957068394  0.7631863046562799  1.0000
  C   C22       1.0  0.6736042727007289  0.1917481880508305  0.9762965357235558  1.0000
  C   C23       1.0  0.6412309653805792  0.2290473627390597  0.986005513073735  1.0000
  C   C24       1.0  0.6036975942002983  0.2196770221307247  0.9515053063243712  1.0000
  C   C25       1.0  0.6949576075498386  0.9815262716762944  0.8364994692091727  1.0000
  C   C26       1.0  0.7374777662090963  0.9785020711206938  0.8646124016778387  1.0000
  C   C27       1.0  0.7368679312914422  0.0196848883424252  0.896545505613112  1.0000
  C   C28       1.0  0.9833830673608331  0.6811489233401959  0.2239101200552653  1.0000
  C   C29       1.0  0.9941800712071965  0.646326243966442  0.2556460287272487  1.0000
  C   C30       1.0  0.9605798432475937  0.605476318704483  0.242759980652977  1.0000
  C   C31       1.0  0.8638201024986998  0.6949815564365948  0.01565111657833279  1.0000
  C   C32       1.0  0.8779423998399807  0.7456125673971669  0.02277985663639729  1.0000
  C   C33       1.0  0.8967321247775288  0.7507017243526378  0.06869650834246949  1.0000
  C   C34       1.0  0.8016654097409132  0.502905351066552  0.14796318281997858  1.0000
  C   C35       1.0  0.7734380769116314  0.48599390407797227  0.10792221696673468  1.0000
  C   C36       1.0  0.7907014041405134  0.5178747742858789  0.07412778941352369  1.0000
  C   C37       1.0  0.8977269217749394  0.8485583395507773  0.8370427883323472  1.0000
  C   C38       1.0  0.8983603329258828  0.811493410365216  0.8685821706011225  1.0000
  C   C39       1.0  0.8722078714080795  0.8144276524142668  0.9106300398422745  1.0000
  C   C40       1.0  0.8425248967574817  0.8540479955281556  0.9195499315933021  1.0000
  C   C41       1.0  0.8378501730983317  0.8894012785088349  0.8868364990678472  1.0000
  C   C42       1.0  0.8663247334873247  0.886748649475713  0.8461883030166815  1.0000
  C   C43       1.0  0.5794344866781173  0.3634509897284772  0.1539347723450248  1.0000
  C   C44       1.0  0.6243585418804827  0.39283838040284286  0.161616175861738  1.0000
  C   C45       1.0  0.663154304949252  0.3920578520119804  0.1292389869962705  1.0000
  C   C46       1.0  0.6578281399043034  0.3586315472831245  0.08996754150744118  1.0000
  C   C47       1.0  0.6137291821230306  0.3280855000493402  0.08175847723337878  1.0000
  C   C48       1.0  0.5741413607399012  0.33244244032187  0.11306233167377398  1.0000
  C   C49       1.0  0.0918481065366024  0.6210656702620697  0.3479022153169353  1.0000
  C   C50       1.0  0.0960610130846362  0.6622795439018107  0.3800607265366551  1.0000
  C   C51       1.0  0.13397977212305529  0.6680352757885899  0.41416218626061857  1.0000
  C   C52       1.0  0.1686531760267087  0.6321793574046809  0.4150838359160574  1.0000
  C   C53       1.0  0.1651486202729089  0.5902666418746847  0.38390878198131156  1.0000
  C   C54       1.0  0.12592487054970292  0.5848951168700725  0.3509512711653572  1.0000
  C   C55       1.0  0.4240870843922977  0.14316730306245523  0.6539608926860865  1.0000
  C   C56       1.0  0.3825563980254145  0.1087909025069962  0.6470893571264399  1.0000
  C   C57       1.0  0.3497738897832505  0.1102541988821102  0.6090917068515437  1.0000
  C   C58       1.0  0.3592122351367379  0.1467967359513551  0.5774624628523526  1.0000
  C   C59       1.0  0.399442482056422  0.1826748910724447  0.5842437798567559  1.0000
  C   C60       1.0  0.431689082415204  0.18007107760941918  0.6224299744464828  1.0000
  C   C61       1.0  0.9524874175522697  0.8886910494007766  0.7789831500407586  1.0000
  C   C62       1.0  0.9313676577693711  0.8478612485831436  0.7973377404538553  1.0000
  C   C63       1.0  0.5452165933759475  0.3731111859414398  0.23388432133558013  1.0000
  C   C64       1.0  0.5388452336589394  0.36440630652568023  0.18741672920506153  1.0000
  C   C65       1.0  0.031916177924543404  0.6521359862905741  0.2921667192325046  1.0000
  C   C66       1.0  0.05349664678523419  0.6150265798724988  0.3112616077453437  1.0000
  C   C67       1.0  0.47044387009245275  0.10071117695856202  0.7133461973235526  1.0000
  C   C68       1.0  0.45968899193459817  0.1414958104650168  0.6923531200502424  1.0000
  C   C69       1.0  0.8744360512750474  0.7838054345795342  0.9905043693444071  1.0000
  C   C70       1.0  0.8768437284293851  0.7766116926366137  0.9437335179387958  1.0000
  C   C71       1.0  0.37093796482975705  0.2442663057792132  0.5321539645374216  1.0000
  C   C72       1.0  0.407839286434367  0.2225264389669661  0.5529510255990573  1.0000
  C   C73       1.0  0.6461728220581123  0.2669104239985387  0.023752606280353895  1.0000
  C   C74       1.0  0.6083527828473692  0.2908718000661423  0.04279013678246459  1.0000
  C   C75       1.0  0.0980059606557333  0.7299740045085769  0.4690452481599152  1.0000
  C   C76       1.0  0.1374795640838613  0.7090705873544891  0.44967231328454454  1.0000
  C   C77       1.0  0.7731804621515651  0.9414191958322107  0.8599474702397744  1.0000
  C   C78       1.0  0.8018866056013465  0.9267436566137521  0.8943283169696414  1.0000
  C   C79       1.0  0.21604886298724318  0.5226320936503797  0.3523894553032463  1.0000
  C   C80       1.0  0.2021995353494077  0.5542325202184699  0.38712298110852567  1.0000
  C   C81       1.0  0.27864903230653937  0.05641841345145342  0.6369515156157205  1.0000
  C   C82       1.0  0.30617912715658957  0.07475373089223318  0.6020989416199641  1.0000
  C   C83       1.0  0.7336918650569048  0.44718500977531767  0.10176706430500101  1.0000
  C   C84       1.0  0.7059051594049564  0.4283093945374788  0.1362067603029118  1.0000
  N   N1        1.0  0.4310712341509131  0.38658365198622147  0.300958463242587  1.0000
  N   N2        1.0  0.4620869282838456  0.3702468553428134  0.33386694671215617  1.0000
  N   N3        1.0  0.40760443753708125  0.32979064494632127  0.443255293542812  1.0000
  N   N4        1.0  0.3618961228411592  0.3453052028890228  0.4560977062003317  1.0000
  N   N5        1.0  0.3042707715991568  0.4362132277124787  0.3883769414156788  1.0000
  N   N6        1.0  0.31487968748550804  0.4376611017900132  0.3418065429625585  1.0000
  N   N7        1.0  0.0509106064445604  0.9161018683651039  0.6954140833764839  1.0000
  N   N8        1.0  0.033307437169561596  0.8697489019350613  0.6782661697904189  1.0000
  N   N9        1.0  0.0832178214485779  0.8178530593877298  0.5684493404369206  1.0000
  N   N10       1.0  0.1276278791898307  0.8369660928727144  0.5511658797625643  1.0000
  N   N11       1.0  0.18555151390248167  0.9537696004688597  0.6058106054372274  1.0000
  N   N12       1.0  0.1658020438471866  0.9736016305962211  0.6460734375390089  1.0000
  N   N13       1.0  0.5628587362059747  0.07551108367407978  0.8009686674304605  1.0000
  N   N14       1.0  0.5532335213271865  0.1227357546623367  0.8156473677578404  1.0000
  N   N15       1.0  0.6131366561576853  0.17988915146263906  0.9237366591983472  1.0000
  N   N16       1.0  0.6563653190722292  0.16226392677383217  0.9393625860470749  1.0000
  N   N17       1.0  0.6970726759941996  0.04502135563051719  0.8879331745693761  1.0000
  N   N18       1.0  0.6708035930673476  0.0211021522636159  0.850866883151312  1.0000
  N   N19       1.0  0.9323559738490773  0.6154140191530644  0.2062157866541838  1.0000
  N   N20       1.0  0.9466673419575856  0.6623181943529418  0.19426233217674851  1.0000
  N   N21       1.0  0.89452775692353  0.7064624750033348  0.0871262668810644  1.0000
  N   N22       1.0  0.8736930789964318  0.6719153575149406  0.054229418017911285  1.0000
  N   N23       1.0  0.8259523777120706  0.5514204168556418  0.092707685076924  1.0000
  N   N24       1.0  0.8329289366672513  0.5418700717615792  0.1385005980327421  1.0000
