data_image0
_chemical_formula_structural       Cu10H36C52I10N8
_chemical_formula_sum              "Cu10 H36 C52 I10 N8"
_cell_length_a       9.993973747556481
_cell_length_b       14.459962624966508
_cell_length_c       15.1725987014509
_cell_angle_alpha    118.12178775003005
_cell_angle_beta     95.77820146412952
_cell_angle_gamma    103.51662798320733

_space_group_name_H-M_alt    "P 1"
_space_group_IT_number       1

loop_
  _space_group_symop_operation_xyz
  'x, y, z'

loop_
  _atom_site_type_symbol
  _atom_site_label
  _atom_site_symmetry_multiplicity
  _atom_site_fract_x
  _atom_site_fract_y
  _atom_site_fract_z
  _atom_site_occupancy
  Cu  Cu1       1.0  0.9412021796204827  0.5745813682344334  0.5354096759087241  1.0000
  Cu  Cu2       1.0  0.9256850975781744  0.6148797809508437  0.7389305847787213  1.0000
  Cu  Cu3       1.0  0.7387753523220297  0.7213174367628241  0.7800813730778061  1.0000
  Cu  Cu4       1.0  0.6750954883414836  0.5142188419265211  0.7511775812036277  1.0000
  Cu  Cu5       1.0  0.8486488235736902  0.6813466699299227  0.9094125523888721  1.0000
  Cu  Cu6       1.0  0.05879652185654285  0.4254212161609203  0.4645924746112584  1.0000
  Cu  Cu7       1.0  0.07431180473748362  0.3851161810016209  0.2610704658056093  1.0000
  Cu  Cu8       1.0  0.2612242303988239  0.2786776567045166  0.21991420160557598  1.0000
  Cu  Cu9       1.0  0.3249035200683608  0.48578207725343964  0.24882318863296865  1.0000
  Cu  Cu10      1.0  0.15135490461154427  0.31865586588160966  0.09058662637859533  1.0000
  H   H1        1.0  0.10450887864069358  0.8085779628759939  0.6858867123223079  1.0000
  H   H2        1.0  0.3064744060121498  0.9451519327482601  0.6833389582809204  1.0000
  H   H3        1.0  0.1832028701187909  0.7450444179442927  0.3501733997522081  1.0000
  H   H4        1.0  0.9866757063016253  0.6181683257936825  0.3664111611705181  1.0000
  H   H5        1.0  0.2566905588276213  0.9421524220914961  0.3981795294004229  1.0000
  H   H6        1.0  0.42105617125113787  0.7436850843218539  0.5188699992083913  1.0000
  H   H7        1.0  0.5059084297641759  0.6611717977252667  0.6126681529610208  1.0000
  H   H8        1.0  0.8017129109131814  0.9604968556002829  0.8370118319235259  1.0000
  H   H9        1.0  0.7211044460677556  0.0599003795006681  0.7567408709907468  1.0000
  H   H10       1.0  0.0910582225414558  0.08893718245077759  0.9313472465698568  1.0000
  H   H11       1.0  0.05620863427103719  0.9800355331939912  0.741844142811935  1.0000
  H   H12       1.0  0.0862071350095377  0.28156626491164627  0.737903619043216  1.0000
  H   H13       1.0  0.11459572649825844  0.3772192353676972  0.9277369366938757  1.0000
  H   H14       1.0  0.8712838632781013  0.9300400025162144  0.5980170139884747  1.0000
  H   H15       1.0  0.18585543255283452  0.2744021047850751  0.5179843318892381  1.0000
  H   H16       1.0  0.4084075655270637  0.430715962805415  0.5987071392059491  1.0000
  H   H17       1.0  0.5759877519838669  0.30934536013471353  0.7672675928083379  1.0000
  H   H18       1.0  0.3536851605263324  0.1499122894012856  0.6988956568004596  1.0000
  H   H19       1.0  0.8954911323938577  0.19142294890429673  0.3141141231003743  1.0000
  H   H20       1.0  0.6935266076471152  0.054848971632367204  0.3166619427278618  1.0000
  H   H21       1.0  0.8167978079207361  0.254955647101511  0.6498238084071417  1.0000
  H   H22       1.0  0.013324656654269474  0.3818334114188247  0.6335894074820131  1.0000
  H   H23       1.0  0.7433108013191186  0.05784931235555041  0.6018224247114005  1.0000
  H   H24       1.0  0.5789434932959381  0.2563149973920247  0.4811297831112569  1.0000
  H   H25       1.0  0.49408887761214265  0.3388274733557138  0.38733176495659893  1.0000
  H   H26       1.0  0.1982870578497895  0.0395015632152891  0.1629872296493318  1.0000
  H   H27       1.0  0.2788948665579838  0.9400988767809862  0.24325917809905206  1.0000
  H   H28       1.0  0.9089407858683887  0.9110637367291831  0.06865352326673967  1.0000
  H   H29       1.0  0.9437897234354367  0.0199662188178422  0.2581562946684173  1.0000
  H   H30       1.0  0.9137931748070471  0.7184329886045547  0.2620978155058751  1.0000
  H   H31       1.0  0.8854052898779372  0.622781666695829  0.07226330437831037  1.0000
  H   H32       1.0  0.12871910520820506  0.0699584010516787  0.4019842241524501  1.0000
  H   H33       1.0  0.8141432348034029  0.7255979796942569  0.4820140649711178  1.0000
  H   H34       1.0  0.5915917552494819  0.5692832865249359  0.4012909300740617  1.0000
  H   H35       1.0  0.4240122644845529  0.6906555470113744  0.2327319227411523  1.0000
  H   H36       1.0  0.6463138506004498  0.8500886274615738  0.3011044530995406  1.0000
  C   C1        1.0  0.12522569319777688  0.7987502653722416  0.6131682261155545  1.0000
  C   C2        1.0  0.2377440446876236  0.8740763137860342  0.6110607676566673  1.0000
  C   C3        1.0  0.2636629922307421  0.8558888144234444  0.5159472803037204  1.0000
  C   C4        1.0  0.1680384816742874  0.7647087092850386  0.4264714676714619  1.0000
  C   C5        1.0  0.05843507343033859  0.6928653324408105  0.43491840965386075  1.0000
  C   C6        1.0  0.38748837074740544  0.9273386003071378  0.5081569325678642  1.0000
  C   C7        1.0  0.36520645798677265  0.9654755428915396  0.4404881869780439  1.0000
  C   C8        1.0  0.5262352621721575  0.9606817264085734  0.5682694499258218  1.0000
  C   C9        1.0  0.5645483204995613  0.9105386327667446  0.6283347658998295  1.0000
  C   C10       1.0  0.5034504740191537  0.7969481009832862  0.590318941826844  1.0000
  C   C11       1.0  0.5521371431482437  0.7493156720669916  0.6419514124882681  1.0000
  C   C12       1.0  0.7163256655942051  0.9162070873263132  0.7668073054175082  1.0000
  C   C13       1.0  0.6713680056908728  0.9707744662962555  0.720720755881672  1.0000
  C   C14       1.0  0.08941964625010002  0.12848077198627553  0.8853973554598582  1.0000
  C   C15       1.0  0.07026230764405741  0.06821866068138148  0.7793751056368663  1.0000
  C   C16       1.0  0.07046038155326069  0.12160914149176702  0.7225175853677754  1.0000
  C   C17       1.0  0.08788540251033791  0.2353210537650696  0.7773616327563104  1.0000
  C   C18       1.0  0.1037476865900686  0.2894235750283585  0.8833735996574603  1.0000
  C   C19       1.0  0.04313261513134851  0.059139754191626516  0.6090065258181028  1.0000
  C   C20       1.0  0.9303801629627629  0.9591942181685911  0.5543323349306419  1.0000
  C   C21       1.0  0.11687629887502031  0.100281020107758  0.5532680004113502  1.0000
  C   C22       1.0  0.24786573721058858  0.19741866397410487  0.601914488764038  1.0000
  C   C23       1.0  0.2679097695708847  0.277974313073635  0.5734611875455614  1.0000
  C   C24       1.0  0.39354396044002743  0.3660769333887687  0.6182130272403937  1.0000
  C   C25       1.0  0.48541866392442046  0.29876369196222186  0.7127267646666339  1.0000
  C   C26       1.0  0.3610384377637104  0.2100627162063091  0.6741122501704524  1.0000
  C   C27       1.0  0.874774669758118  0.20125147184026554  0.3868323425369836  1.0000
  C   C28       1.0  0.762257627825811  0.1259237508114168  0.38893848589857066  1.0000
  C   C29       1.0  0.7363353259210897  0.1441104423065696  0.4840507233901974  1.0000
  C   C30       1.0  0.8319641907469234  0.23529135022984346  0.5735285114064652  1.0000
  C   C31       1.0  0.9415649457550189  0.3071355723881766  0.5650804459590333  1.0000
  C   C32       1.0  0.6125112910827399  0.07266148372384149  0.49184350968837975  1.0000
  C   C33       1.0  0.6347942064680795  0.0345245337397699  0.5595123208643002  1.0000
  C   C34       1.0  0.47376474886240055  0.03931918537172411  0.4317313854968674  1.0000
  C   C35       1.0  0.43545334929693524  0.08946143414780042  0.3716651475920044  1.0000
  C   C36       1.0  0.4965478359818719  0.20305116269803855  0.409681041676869  1.0000
  C   C37       1.0  0.447862166760558  0.2506835865317712  0.3580492965381339  1.0000
  C   C38       1.0  0.2836732951101908  0.08379134352313142  0.2331930104424487  1.0000
  C   C39       1.0  0.3286323122765111  0.029224780268634697  0.2792786988576239  1.0000
  C   C40       1.0  0.9105783595350375  0.8715201545933481  0.11460334879064497  1.0000
  C   C41       1.0  0.9297366953319184  0.9317822631327815  0.22062698407292206  1.0000
  C   C42       1.0  0.9295392407222421  0.8783884472573934  0.2774804231020412  1.0000
  C   C43       1.0  0.91211391554927  0.7646781978823824  0.22263709646029645  1.0000
  C   C44       1.0  0.8962536312850914  0.7105756664539767  0.11662658060453165  1.0000
  C   C45       1.0  0.9568713586965956  0.9408586396595028  0.39099411797231926  1.0000
  C   C46       1.0  0.06962345894384468  0.0408033502503216  0.4456685756299307  1.0000
  C   C47       1.0  0.8831260216248468  0.8997182139749073  0.4467322454367277  1.0000
  C   C48       1.0  0.7521319220870736  0.8025814325390923  0.39808516238342395  1.0000
  C   C49       1.0  0.7320885458640093  0.7220249459734874  0.4265374760849526  1.0000
  C   C50       1.0  0.6064557068239864  0.6339231460080016  0.3817860951426582  1.0000
  C   C51       1.0  0.5145810510450489  0.7012388757650643  0.2872728116930575  1.0000
  C   C52       1.0  0.6389595230329093  0.7899357197256974  0.3258873401668083  1.0000
  I   I1        1.0  0.7006922601786201  0.5301809112364921  0.5809812215712071  1.0000
  I   I2        1.0  0.1523350531492369  0.5879838244063934  0.668349287938483  1.0000
  I   I3        1.0  0.01044074221511683  0.8360716694477545  0.8722282925032586  1.0000
  I   I4        1.0  0.894708267101173  0.48881023035323773  0.8398123702394499  1.0000
  I   I5        1.0  0.5614085590986306  0.6642643857621096  0.874653238665779  1.0000
  I   I6        1.0  0.2993054018359729  0.4698191829596113  0.419017769639659  1.0000
  I   I7        1.0  0.8476649606022519  0.41201708505679596  0.33165088754761035  1.0000
  I   I8        1.0  0.989558268911658  0.1639292474151049  0.1277718173967344  1.0000
  I   I9        1.0  0.1052910428076288  0.5111890282455248  0.1601883387869449  1.0000
  I   I10       1.0  0.4385911027315145  0.3357356982688628  0.12534720359046497  1.0000
  N   N1        1.0  0.038216596522992856  0.7070195262979125  0.5265222132764079  1.0000
  N   N2        1.0  0.6602143291704863  0.8062508412253139  0.7272426764787812  1.0000
  N   N3        1.0  0.10536532900355411  0.23749759944432472  0.9374137008682268  1.0000
  N   N4        1.0  0.5026307031561288  0.37695303898636473  0.6861166327285204  1.0000
  N   N5        1.0  0.9617837664329016  0.29298221091459453  0.47347835537612326  1.0000
  N   N6        1.0  0.3397852876711411  0.1937467521580487  0.2727566518642277  1.0000
  N   N7        1.0  0.8946360338601166  0.7625041326856205  0.06258759330700063  1.0000
  N   N8        1.0  0.49737031865393533  0.6230478584429592  0.3138822884704666  1.0000
