data_image0
_chemical_formula_structural       Zn2H44C28I4N8
_chemical_formula_sum              "Zn2 H44 C28 I4 N8"
_cell_length_a       8.502247824439022
_cell_length_b       8.494823731614206
_cell_length_c       14.832814707170067
_cell_angle_alpha    104.05609679239052
_cell_angle_beta     105.94095554227142
_cell_angle_gamma    95.59477979795959

_space_group_name_H-M_alt    "P 1"
_space_group_IT_number       1

loop_
  _space_group_symop_operation_xyz
  'x, y, z'

loop_
  _atom_site_type_symbol
  _atom_site_label
  _atom_site_symmetry_multiplicity
  _atom_site_fract_x
  _atom_site_fract_y
  _atom_site_fract_z
  _atom_site_occupancy
  Zn  Zn1       1.0  0.3263984380404636  0.0761271661446585  0.2500453526119699  1.0000
  Zn  Zn2       1.0  0.6736030281544032  0.9238733736299666  0.7499551277673431  1.0000
  H   H1        1.0  0.7803543601830114  0.563282420344656  0.49873055024630714  1.0000
  H   H2        1.0  0.5644013632418492  0.28165339008479867  0.001443403557246432  1.0000
  H   H3        1.0  0.2196436651836109  0.43671939048997643  0.5012715824714602  1.0000
  H   H4        1.0  0.43559954980240423  0.7183508606703128  0.9985581654818103  1.0000
  H   H5        1.0  0.8839266030100815  0.2249515481821831  0.6130554989939583  1.0000
  H   H6        1.0  0.1119728597477874  0.27062769815496074  0.8870785515654089  1.0000
  H   H7        1.0  0.11607408868218982  0.7750514786444427  0.3869465439364389  1.0000
  H   H8        1.0  0.8880263828253803  0.7293740734846564  0.11292107081860785  1.0000
  H   H9        1.0  0.9920576363493367  0.4062296345647951  0.6021115718708359  1.0000
  H   H10       1.0  0.3039673253603041  0.3898970986905823  0.8979976984358087  1.0000
  H   H11       1.0  0.00794450050181441  0.59377462102875  0.3978908648166381  1.0000
  H   H12       1.0  0.6960341408345555  0.6101034410840356  0.10200278194350425  1.0000
  H   H13       1.0  0.0031543334068189093  0.20872379022991083  0.5308867264638976  1.0000
  H   H14       1.0  0.1778518794856083  0.4722870850828044  0.9692118846202644  1.0000
  H   H15       1.0  0.9968451357986082  0.7912792405649612  0.46911512441451453  1.0000
  H   H16       1.0  0.8221510331882129  0.5277146922654338  0.030789665112564497  1.0000
  H   H17       1.0  0.5230504680501653  0.8201768835377194  0.4700429312058174  1.0000
  H   H18       1.0  0.8504919519907546  0.0532484780405937  0.030122447922586577  1.0000
  H   H19       1.0  0.4769489985151196  0.1798261296437644  0.5299575684797303  1.0000
  H   H20       1.0  0.14950695172476713  0.946744642871117  0.969874603384859  1.0000
  H   H21       1.0  0.3879213609919745  0.9145052546536405  0.39478844713134714  1.0000
  H   H22       1.0  0.019888437527050922  0.9928360270911654  0.10516435028429069  1.0000
  H   H23       1.0  0.6120793280601546  0.08549775455959718  0.6052122446061787  1.0000
  H   H24       1.0  0.9801116899953826  0.007157098658986198  0.894833568671572  1.0000
  H   H25       1.0  0.7684156330404832  0.9848299887253874  0.47109101667856373  1.0000
  H   H26       1.0  0.014270423408540001  0.2977016137316966  0.029259956477453386  1.0000
  H   H27       1.0  0.2315860571465009  0.015171792591104299  0.5289103410022802  1.0000
  H   H28       1.0  0.9857282576349319  0.7022902744448345  0.9707368931248935  1.0000
  H   H29       1.0  0.6383072053752485  0.9152855868682934  0.34737309465987204  1.0000
  H   H30       1.0  0.0685685121107298  0.2909511163679213  0.15290338059016045  1.0000
  H   H31       1.0  0.3616932610048309  0.0847161896097646  0.6526273953725548  1.0000
  H   H32       1.0  0.9314291691179547  0.7090420085120499  0.8470934786653002  1.0000
  H   H33       1.0  0.4871410371787733  0.48376093103617995  0.2628411783507615  1.0000
  H   H34       1.0  0.7208938786928769  0.22408979746882096  0.23731666377347685  1.0000
  H   H35       1.0  0.5128569868677744  0.5162408709917655  0.7371602787705738  1.0000
  H   H36       1.0  0.2791051412082481  0.7759107414356166  0.7626827569054411  1.0000
  H   H37       1.0  0.4887390250729169  0.6066526015693511  0.37786375502044917  1.0000
  H   H38       1.0  0.7285752321252446  0.11059863552573292  0.12225967210964939  1.0000
  H   H39       1.0  0.5112612199551876  0.393347950980214  0.6221372089033179  1.0000
  H   H40       1.0  0.2714250102627105  0.8894018994104513  0.8777399406212536  1.0000
  H   H41       1.0  0.3317399609994212  0.4309756589570313  0.31479899018098206  1.0000
  H   H42       1.0  0.6160331187428412  0.016583587746765698  0.18527078634718208  1.0000
  H   H43       1.0  0.6682580617270589  0.5690261342642204  0.6852017913439211  1.0000
  H   H44       1.0  0.3839671249651886  0.9834169559961055  0.8147295019801533  1.0000
  C   C1        1.0  0.7745002245277277  0.29677945165109787  0.4830162550681933  1.0000
  C   C2        1.0  0.31386491796908444  0.2914912664008611  0.01715096038772401  1.0000
  C   C3        1.0  0.22549902068558939  0.7032223376019004  0.5169847185086879  1.0000
  C   C4        1.0  0.6861351017468209  0.7085080358001435  0.9828484506380801  1.0000
  C   C5        1.0  0.7206776073372793  0.4364131417602337  0.4607947206344105  1.0000
  C   C6        1.0  0.4756175968096912  0.25991617838361947  0.03938869096128167  1.0000
  C   C7        1.0  0.2793191942224312  0.5635886642359652  0.5392065444349398  1.0000
  C   C8        1.0  0.5243828695703883  0.7400855980944384  0.9606117990711522  1.0000
  C   C9        1.0  0.9207666198362502  0.2826553182382199  0.5613526853255023  1.0000
  C   C10       1.0  0.2213124393991421  0.3593397743607554  0.9387751626304419  1.0000
  C   C11       1.0  0.07923262537706682  0.7173464710147783  0.43864828825137886  1.0000
  C   C12       1.0  0.7786878043088876  0.6406607693821231  0.061225125696893236  1.0000
  C   C13       1.0  0.5052894854975207  0.9384836628482489  0.45463664811966703  1.0000
  C   C14       1.0  0.9840488621807211  0.0506440199345519  0.04542792587950119  1.0000
  C   C15       1.0  0.49470997974769665  0.061519341526548005  0.5453631759694487  1.0000
  C   C16       1.0  0.015951486693680312  0.9493503297440925  0.9545695191850212  1.0000
  C   C17       1.0  0.5718289521457365  0.3805198334426905  0.3831621995249747  1.0000
  C   C18       1.0  0.49743340996331403  0.18863299621077093  0.11700867367442673  1.0000
  C   C19       1.0  0.4281686265567117  0.6194795031148885  0.6168388541861559  1.0000
  C   C20       1.0  0.5025678322394356  0.8113663020219802  0.8829909294033553  1.0000
  C   C21       1.0  0.6502754681070471  0.9936102064303612  0.4206770424825876  1.0000
  C   C22       1.0  0.073340671822173  0.22967159806884746  0.07953943106738849  1.0000
  C   C23       1.0  0.3497254436171247  0.006394035518056299  0.5793238509600442  1.0000
  C   C24       1.0  0.9266584545653985  0.7703227555780499  0.920457821945156  1.0000
  C   C25       1.0  0.4641164929689126  0.47976426212609624  0.33164891507107086  1.0000
  C   C26       1.0  0.648042560220162  0.1322471642352454  0.1684815914280549  1.0000
  C   C27       1.0  0.5358813070855177  0.5202362983599755  0.6683516647487264  1.0000
  C   C28       1.0  0.3519591286467545  0.8677546082745594  0.831519090656357  1.0000
  I   I1        1.0  0.0890714948384286  0.130750679196467  0.32709720957229377  1.0000
  I   I2        1.0  0.3041741975284324  0.7616104759166545  0.17267435325604907  1.0000
  I   I3        1.0  0.9109294142456078  0.8692535451385696  0.6729023326774664  1.0000
  I   I4        1.0  0.6958258235075477  0.23838883509104383  0.8273257333661872  1.0000
  N   N1        1.0  0.5361671950717549  0.21410146441292713  0.358445015656116  1.0000
  N   N2        1.0  0.35587687105418553  0.17766172860691404  0.14171348085502436  1.0000
  N   N3        1.0  0.46383182614943763  0.7858990832981975  0.6415550806192342  1.0000
  N   N4        1.0  0.6441229246696024  0.8223363320522168  0.8582850528692486  1.0000
  N   N5        1.0  0.6616017788343812  0.16475885621751027  0.4188804477587239  1.0000
  N   N6        1.0  0.24612162622082684  0.2426928719665327  0.08128282823861349  1.0000
  N   N7        1.0  0.338398688865766  0.8352429290672347  0.5811207178701422  1.0000
  N   N8        1.0  0.7538777241588619  0.7573027232222316  0.9187153020754619  1.0000
