data_image0
_chemical_formula_structural       Cd4H24C48Br8N8O16
_chemical_formula_sum              "Cd4 H24 C48 Br8 N8 O16"
_cell_length_a       9.861230846000863
_cell_length_b       11.338682630496535
_cell_length_c       13.433504318772275
_cell_angle_alpha    108.961197245867
_cell_angle_beta     89.99996035453053
_cell_angle_gamma    89.99998795227499

_space_group_name_H-M_alt    "P 1"
_space_group_IT_number       1

loop_
  _space_group_symop_operation_xyz
  'x, y, z'

loop_
  _atom_site_type_symbol
  _atom_site_label
  _atom_site_symmetry_multiplicity
  _atom_site_fract_x
  _atom_site_fract_y
  _atom_site_fract_z
  _atom_site_occupancy
  Cd  Cd1       1.0  0.6214494752767976  0.4133801480348324  0.6012949828989915  1.0000
  Cd  Cd2       1.0  0.12144992586340925  0.08662050188656417  0.8987051250184308  1.0000
  Cd  Cd3       1.0  0.37855086443722297  0.5866198693533419  0.3987053665230675  1.0000
  Cd  Cd4       1.0  0.8785514279225736  0.9133804480384735  0.1012954797637277  1.0000
  H   H1        1.0  0.40998698829747576  0.29216257190978456  0.7194261823393902  1.0000
  H   H2        1.0  0.9099874340920449  0.2078370235517681  0.7805742333774361  1.0000
  H   H3        1.0  0.5900123373448168  0.7078355804044347  0.28057365636216497  1.0000
  H   H4        1.0  0.0900118915495511  0.7921639263737109  0.21942637140536192  1.0000
  H   H5        1.0  0.7139317277855071  0.6538683920824936  0.7903639055618112  1.0000
  H   H6        1.0  0.2139292499043961  0.8461322216398981  0.7096369260836467  1.0000
  H   H7        1.0  0.2860696260002413  0.34613349037963553  0.20963695458075893  1.0000
  H   H8        1.0  0.7860690616655789  0.15386779525288566  0.2903626787957805  1.0000
  H   H9        1.0  0.20489191933164358  0.9764214840738105  0.502862530872356  1.0000
  H   H10       1.0  0.704890179283268  0.5235772684095962  0.997137795734744  1.0000
  H   H11       1.0  0.7951084203828386  0.0235766682401959  0.49713730782887916  1.0000
  H   H12       1.0  0.295110160430518  0.47642368151566217  0.0028628090477340854  1.0000
  H   H13       1.0  0.9834741688750056  0.8846337359735087  0.6796058238687549  1.0000
  H   H14       1.0  0.4834736716040879  0.615365829860245  0.8203930938865297  1.0000
  H   H15       1.0  0.0165261708393629  0.11536628091884885  0.3203937810100256  1.0000
  H   H16       1.0  0.5165266681102807  0.3846341870321054  0.17960651099225086  1.0000
  H   H17       1.0  0.5164687857451399  0.18390290659760913  0.4034431364519263  1.0000
  H   H18       1.0  0.0164684489749618  0.3160966283449724  0.0965561556830039  1.0000
  H   H19       1.0  0.483530539897032  0.8160971102949613  0.596556468427181  1.0000
  H   H20       1.0  0.9835308766668619  0.6839033890434221  0.9034441937393749  1.0000
  H   H21       1.0  0.8137743960344324  0.5392909590022512  0.47290542875097685  1.0000
  H   H22       1.0  0.3137761172471514  0.9607093858722137  0.027095458255914164  1.0000
  H   H23       1.0  0.18622492960715684  0.46070999092322745  0.527095176031814  1.0000
  H   H24       1.0  0.6862242224671036  0.0392896989788767  0.9729046358057328  1.0000
  C   C1        1.0  0.39354588066273527  0.22805799230948756  0.6400900685757022  1.0000
  C   C2        1.0  0.8935452226914863  0.2719416086403541  0.8599081238470202  1.0000
  C   C3        1.0  0.6064534449799055  0.7719401595089151  0.35990902558257426  1.0000
  C   C4        1.0  0.1064541029503445  0.7280584087480404  0.14009222557535847  1.0000
  C   C5        1.0  0.7690486067187763  0.673717529082573  0.7273405695348386  1.0000
  C   C6        1.0  0.2690460747527581  0.8262830612552392  0.772660227462495  1.0000
  C   C7        1.0  0.2309517329944342  0.32628435387558596  0.27266103515133006  1.0000
  C   C8        1.0  0.7309522368168757  0.17371695613336155  0.22734012196020353  1.0000
  C   C9        1.0  0.29871899608119173  0.13156900172954514  0.6215714954144786  1.0000
  C   C10       1.0  0.7987182973974923  0.36842877586604317  0.878428479528324  1.0000
  C   C11       1.0  0.7012823577051392  0.8684291510800576  0.3784290878297084  1.0000
  C   C12       1.0  0.20128204231676247  0.6315703089850473  0.1215716145333232  1.0000
  C   C13       1.0  0.8503315406811468  0.7800074198608157  0.7484417270273978  1.0000
  C   C14       1.0  0.3503310823630557  0.7199931349987949  0.7515575297858063  1.0000
  C   C15       1.0  0.14966778496113883  0.21999352907302241  0.25155738866885  1.0000
  C   C16       1.0  0.6496682432791161  0.280006881893776  0.24844207509330116  1.0000
  C   C17       1.0  0.2794526963377209  0.05130565229283949  0.5185579495811083  1.0000
  C   C18       1.0  0.7794498537670833  0.4486939980557239  0.9814418036513002  1.0000
  C   C19       1.0  0.7205476433769958  0.9486915674840828  0.48144163375970794  1.0000
  C   C20       1.0  0.2205494718739303  0.5513078849026556  0.018559801035181105  1.0000
  C   C21       1.0  0.921255786024524  0.8012522225015741  0.665690399029742  1.0000
  C   C22       1.0  0.42125424145000784  0.6987483032586823  0.8343103022852104  1.0000
  C   C23       1.0  0.0787455677608833  0.1987496604563717  0.3343112056560997  1.0000
  C   C24       1.0  0.5787450841918157  0.30125171412970525  0.16569004713716848  1.0000
  C   C25       1.0  0.35873188112745424  0.0704567926702424  0.439261292408858  1.0000
  C   C26       1.0  0.8587324785955488  0.42954073248090213  0.06073801839121982  1.0000
  C   C27       1.0  0.6412684585873761  0.9295413591479402  0.5607378017490986  1.0000
  C   C28       1.0  0.14126786111846462  0.5704592849072724  0.9392623310308393  1.0000
  C   C29       1.0  0.9101385699391072  0.7126948060806271  0.5658852367152605  1.0000
  C   C30       1.0  0.41013893875373236  0.7873047913630558  0.9341144716840191  1.0000
  C   C31       1.0  0.0898597416311091  0.2873042782750801  0.4341141128037477  1.0000
  C   C32       1.0  0.5898614009612188  0.2126942924963941  0.06588413329107817  1.0000
  C   C33       1.0  0.45203765450387584  0.16816460001681577  0.463699653408426  1.0000
  C   C34       1.0  0.9520362703675502  0.3318356821672808  0.036298875732121864  1.0000
  C   C35       1.0  0.5479616711391059  0.8318335513057705  0.5362986962065717  1.0000
  C   C36       1.0  0.0479630552740389  0.6681652677581907  0.963701729050669  1.0000
  C   C37       1.0  0.8258955563647347  0.6092177525026655  0.5502120883580658  1.0000
  C   C38       1.0  0.3258958854310876  0.890782813715937  0.9497886729026417  1.0000
  C   C39       1.0  0.1741047833484686  0.39078413045550037  0.4497895163281027  1.0000
  C   C40       1.0  0.6741044542829258  0.10921720367223742  0.0502116765194174  1.0000
  C   C41       1.0  0.22206321047611507  0.1138166647252135  0.7124493139951439  1.0000
  C   C42       1.0  0.722063606490515  0.3861820769385529  0.7875494754093281  1.0000
  C   C43       1.0  0.7779381433104504  0.886183352166931  0.28755029088331696  1.0000
  C   C44       1.0  0.2779367332235054  0.6138179404496212  0.21245087401273105  1.0000
  C   C45       1.0  0.8628623681310399  0.8676392126903706  0.8597736704578905  1.0000
  C   C46       1.0  0.3628600069726673  0.6323604043160669  0.6402253231182299  1.0000
  C   C47       1.0  0.1371389856552909  0.13236173673885077  0.14022618978098927  1.0000
  C   C48       1.0  0.6371393186696181  0.3676377479981524  0.35977451558331797  1.0000
  Br  Br1       1.0  0.34710144493893574  0.966170097243349  0.29707846599301735  1.0000
  Br  Br2       1.0  0.8471009914416713  0.5338292999630878  0.20292065561719844  1.0000
  Br  Br3       1.0  0.6528988947756674  0.033828987111917286  0.7029208835253583  1.0000
  Br  Br4       1.0  0.15289934827200113  0.46617071792090303  0.7970804383481394  1.0000
  Br  Br5       1.0  0.0123369035631029  0.7261936534126008  0.4508489140976052  1.0000
  Br  Br6       1.0  0.5123365355647779  0.773806817866543  0.0491499287728985  1.0000
  Br  Br7       1.0  0.9876634361512657  0.2738063634797569  0.5491506907811754  1.0000
  Br  Br8       1.0  0.4876638041495909  0.22619319902581483  0.9508496761058892  1.0000
  N   N1        1.0  0.4676259166866217  0.24607646476517422  0.5624291308954951  1.0000
  N   N2        1.0  0.967624176433091  0.2539240387793028  0.9375715039488454  1.0000
  N   N3        1.0  0.5323764511717853  0.7539235526225736  0.4375712185259245  1.0000
  N   N4        1.0  0.032375149208732495  0.7460759786090844  0.0624288454735406  1.0000
  N   N5        1.0  0.755890061418569  0.5913890067459917  0.6299594443334513  1.0000
  N   N6        1.0  0.2558884325456106  0.9086115886786242  0.870040616392181  1.0000
  N   N7        1.0  0.24411129236833773  0.40861100965032887  0.37003941600173806  1.0000
  N   N8        1.0  0.7441108930971438  0.09138749518104561  0.12995798858322868  1.0000
  O   O1        1.0  0.2623279101198719  0.17748612364281507  0.8048363283442797  1.0000
  O   O2        1.0  0.7623263797759846  0.3225126009381398  0.6951624357491895  1.0000
  O   O3        1.0  0.737672429595655  0.8225120271837341  0.19516127672712708  1.0000
  O   O4        1.0  0.23767395993803578  0.6774874164500344  0.30483791367287677  1.0000
  O   O5        1.0  0.8080000199430158  0.8301174115353831  0.9303274485497255  1.0000
  O   O6        1.0  0.3079997437639435  0.6698831622759371  0.569673323960849  1.0000
  O   O7        1.0  0.19200031977065626  0.16988260634860808  0.06967364541561237  1.0000
  O   O8        1.0  0.6919995818782355  0.33011685461663376  0.4303262809182512  1.0000
  O   O9        1.0  0.1247447478663659  0.036901245504751  0.694516022235959  1.0000
  O   O10       1.0  0.6247440943911045  0.46309940252296405  0.8054833390670237  1.0000
  O   O11       1.0  0.8752535637038509  0.9630978388509491  0.3054833272830493  1.0000
  O   O12       1.0  0.3752542171788775  0.5369006143698201  0.1945162658123962  1.0000
  O   O13       1.0  0.9243871218939006  0.9698584318666473  0.8767326391692335  1.0000
  O   O14       1.0  0.42438784359649157  0.5301420910771313  0.6232658265467278  1.0000
  O   O15       1.0  0.07561220374861928  0.0301415845301065  0.12326622116659537  1.0000
  O   O16       1.0  0.5756114820456801  0.4698579258154396  0.3767337783323796  1.0000
