data_image0
_chemical_formula_structural       Ag4H24C20N28O8
_chemical_formula_sum              "Ag4 H24 C20 N28 O8"
_cell_length_a       7.5646987937497725
_cell_length_b       9.407396238989529
_cell_length_c       13.08142449211199
_cell_angle_alpha    90.00008788409981
_cell_angle_beta     89.99952531136124
_cell_angle_gamma    99.86285694409106

_space_group_name_H-M_alt    "P 1"
_space_group_IT_number       1

loop_
  _space_group_symop_operation_xyz
  'x, y, z'

loop_
  _atom_site_type_symbol
  _atom_site_label
  _atom_site_symmetry_multiplicity
  _atom_site_fract_x
  _atom_site_fract_y
  _atom_site_fract_z
  _atom_site_occupancy
  Ag  Ag1       1.0  0.3204303671581243  0.6587467734988763  0.0053109426352549  1.0000
  Ag  Ag2       1.0  0.6795663912340614  0.3412513104825266  0.5053120279879266  1.0000
  Ag  Ag3       1.0  0.4405399351905004  0.24126507257141575  0.7020824011295872  1.0000
  Ag  Ag4       1.0  0.5594498127767693  0.7587319986992397  0.20207645722210535  1.0000
  H   H1        1.0  0.026473329480495498  0.1617710570065327  0.33490697730593405  1.0000
  H   H2        1.0  0.9735321629030051  0.8382280517444514  0.8349056713990846  1.0000
  H   H3        1.0  0.9229785023959707  0.32116193669795484  0.3411855765507212  1.0000
  H   H4        1.0  0.07703266501957266  0.6788392869657683  0.8411815152837647  1.0000
  H   H5        1.0  0.4545346273978481  0.34184814083381815  0.08686884246948519  1.0000
  H   H6        1.0  0.5454643356959535  0.6581531716176485  0.5868739780797583  1.0000
  H   H7        1.0  0.05170268895408006  0.5350460948904471  0.22534030879395311  1.0000
  H   H8        1.0  0.948299332510949  0.46495411815181603  0.7253402414430282  1.0000
  H   H9        1.0  0.2233162525500418  0.5157216552582256  0.6331265158517425  1.0000
  H   H10       1.0  0.7766899305739656  0.4842677094561624  0.1331199919241755  1.0000
  H   H11       1.0  0.2750327024771551  0.1405979502595329  0.46803330847480135  1.0000
  H   H12       1.0  0.7249748482844183  0.8594011480421317  0.9680316892817656  1.0000
  H   H13       1.0  0.10247969648416697  0.1696335376795517  0.9801453974191929  1.0000
  H   H14       1.0  0.8975158056670479  0.8303656614766554  0.4801470841693103  1.0000
  H   H15       1.0  0.01841722786686968  0.3372359125013134  0.9965880903067585  1.0000
  H   H16       1.0  0.9815822414300397  0.6627643353797482  0.49658918912208344  1.0000
  H   H17       1.0  0.7023756415119989  0.9795093951992226  0.7240958375567671  1.0000
  H   H18       1.0  0.2976170578749943  0.02049629988079  0.2240972160251005  1.0000
  H   H19       1.0  0.7098075143935247  0.35706631975457276  0.8989602249682206  1.0000
  H   H20       1.0  0.2901888001442714  0.6429371922013234  0.3989585028067494  1.0000
  H   H21       1.0  0.5950703923823112  0.1565462321886812  0.2532921747683616  1.0000
  H   H22       1.0  0.40492247997452313  0.8434562201934456  0.7532943664981531  1.0000
  H   H23       1.0  0.9897961372313728  0.9633882908054121  0.10615249823045049  1.0000
  H   H24       1.0  0.010197618997381095  0.03660874230454429  0.6061534008612739  1.0000
  C   C1        1.0  0.04984572166860346  0.2796495457689118  0.3417877353180145  1.0000
  C   C2        1.0  0.950161721823683  0.7203527898166442  0.8417879405001614  1.0000
  C   C3        1.0  0.34915830514027846  0.3634026595937386  0.13792394444634937  1.0000
  C   C4        1.0  0.6508423249978463  0.6365975606404674  0.6379277863944779  1.0000
  C   C5        1.0  0.1468586522057933  0.4652697667538561  0.2053460422268145  1.0000
  C   C6        1.0  0.853140772341213  0.5347293859848038  0.7053449793280249  1.0000
  C   C7        1.0  0.2083695660613998  0.4323653504524003  0.574958528690999  1.0000
  C   C8        1.0  0.7916367544332485  0.5676326574632499  0.07495355381856679  1.0000
  C   C9        1.0  0.23771468766942408  0.2410869696607563  0.4932356016456865  1.0000
  C   C10       1.0  0.7622929899177533  0.7589142906650324  0.9932321638228173  1.0000
  C   C11       1.0  0.982899673224267  0.2195552905626812  0.9909380093114206  1.0000
  C   C12       1.0  0.017096751133095694  0.7804428205541712  0.4909392775202618  1.0000
  C   C13       1.0  0.7376660276775835  0.06424902918090677  0.7804109809154481  1.0000
  C   C14       1.0  0.26232826367819223  0.9357555745702798  0.2804104795225086  1.0000
  C   C15       1.0  0.7396361041143108  0.256839581723888  0.867570550355367  1.0000
  C   C16       1.0  0.260363297505144  0.7431639029725405  0.3675698461607054  1.0000
  C   C17       1.0  0.6987284043087527  0.1350632982069797  0.2008297378651633  1.0000
  C   C18       1.0  0.3012618480277495  0.8649359306199573  0.7008309216076255  1.0000
  C   C19       1.0  0.8972389706899904  0.0341799966417753  0.1300181105990461  1.0000
  C   C20       1.0  0.10275996624150707  0.9658180754683272  0.6300203576961891  1.0000
  N   N1        1.0  0.3628899057186885  0.4422346824112111  0.8345881451210743  1.0000
  N   N2        1.0  0.6370991303110498  0.5577559159825612  0.33458619392965966  1.0000
  N   N3        1.0  0.31380057907526987  0.9723646341151523  0.9985118342129339  1.0000
  N   N4        1.0  0.6861967102526023  0.027637793815600303  0.49851364998252007  1.0000
  N   N5        1.0  0.15739668294321518  0.3420688649621653  0.2559597029755096  1.0000
  N   N6        1.0  0.8426117423726893  0.6579323772420198  0.7559572974887699  1.0000
  N   N7        1.0  0.2866555169192821  0.2755660603864812  0.2139753965221302  1.0000
  N   N8        1.0  0.7133469100239151  0.7244352296198497  0.7139767421273574  1.0000
  N   N9        1.0  0.266517678729528  0.4815708613204492  0.12959636853569378  1.0000
  N   N10       1.0  0.7334757428590278  0.5184261757496387  0.6295989194284388  1.0000
  N   N11       1.0  0.13710431541147014  0.31785026696972807  0.43867149124801585  1.0000
  N   N12       1.0  0.8629065367594462  0.6821498832986066  0.9386705439928206  1.0000
  N   N13       1.0  0.11684480601214628  0.440722392046034  0.48932205470074314  1.0000
  N   N14       1.0  0.8831613646321015  0.5592777997139038  0.9893201104271366  1.0000
  N   N15       1.0  0.2838383121750708  0.3106087567594997  0.5806931300463702  1.0000
  N   N16       1.0  0.7161639678892938  0.6893892850610256  0.08068941580751947  1.0000
  N   N17       1.0  0.8668339122318398  0.18526177111600356  0.9028622338907011  1.0000
  N   N18       1.0  0.1331663051659433  0.8147417085630125  0.4028622187072556  1.0000
  N   N19       1.0  0.8658497408369  0.06098611083329081  0.8489605456355135  1.0000
  N   N20       1.0  0.13414680082857444  0.9390152349098033  0.3489598982505128  1.0000
  N   N21       1.0  0.6566750985851754  0.18296233478232438  0.789167932175985  1.0000
  N   N22       1.0  0.34332253981978766  0.8170400797444659  0.28916538257258395  1.0000
  N   N23       1.0  0.8919716928482373  0.1621297894689349  0.0835889993922549  1.0000
  N   N24       1.0  0.10802467803181767  0.8378715443857416  0.5835918446710906  1.0000
  N   N25       1.0  0.7641468430656814  0.2282088372233275  0.128039394456664  1.0000
  N   N26       1.0  0.23584996961559304  0.7717914142770965  0.6280400248871912  1.0000
  N   N27       1.0  0.7761946419752874  0.0138575614608243  0.20499264045704987  1.0000
  N   N28       1.0  0.22379662719058754  0.9861405782069852  0.7049943293519618  1.0000
  O   O1        1.0  0.4781193189310712  0.4958715176150292  0.9006112890022989  1.0000
  O   O2        1.0  0.5218830092389907  0.5041060026044305  0.4006128891577063  1.0000
  O   O3        1.0  0.21659304248832711  0.4901676528779931  0.8348270285408859  1.0000
  O   O4        1.0  0.7834159969191035  0.5098530445108338  0.334825087191831  1.0000
  O   O5        1.0  0.1858024427026875  0.8707595640423733  0.023422559772178896  1.0000
  O   O6        1.0  0.8142016279038345  0.12924278363886538  0.52341817903757  1.0000
  O   O7        1.0  0.45562980357326666  0.9310180543629303  0.9704640670908871  1.0000
  O   O8        1.0  0.5443668098176386  0.0689854586928433  0.47046966651427613  1.0000
