data_image0
_chemical_formula_structural       Ag4H60C58N8O8
_chemical_formula_sum              "Ag4 H60 C58 N8 O8"
_cell_length_a       10.020604620179702
_cell_length_b       10.300098899956586
_cell_length_c       15.233
_cell_angle_alpha    76.97172821184878
_cell_angle_beta     72.22894177931421
_cell_angle_gamma    86.74332263445147

_space_group_name_H-M_alt    "P 1"
_space_group_IT_number       1

loop_
  _space_group_symop_operation_xyz
  'x, y, z'

loop_
  _atom_site_type_symbol
  _atom_site_label
  _atom_site_symmetry_multiplicity
  _atom_site_fract_x
  _atom_site_fract_y
  _atom_site_fract_z
  _atom_site_occupancy
  Ag  Ag1       1.0  0.5984882731374056  0.9044276715925578  0.5430171596667747  1.0000
  Ag  Ag2       1.0  0.4015108521497979  0.0955728608903641  0.456982803494796  1.0000
  Ag  Ag3       1.0  0.5519745538476712  0.5342907511379167  0.0784216021733641  1.0000
  Ag  Ag4       1.0  0.4480245714395323  0.4657097813450051  0.9215770480491942  1.0000
  H   H1        1.0  0.4977078892797309  0.6177021127274998  0.3527111199425263  1.0000
  H   H2        1.0  0.5022933048017039  0.38229642655714  0.6472874187379885  1.0000
  H   H3        1.0  0.6511755004566879  0.5386907363393334  0.3749209139847308  1.0000
  H   H4        1.0  0.3488236112796415  0.4613087995444475  0.6250798602789089  1.0000
  H   H5        1.0  0.6923284293428011  0.6514469595950132  0.20295150531197947  1.0000
  H   H6        1.0  0.30767382623749734  0.3485525762887676  0.7970479812714187  1.0000
  H   H7        1.0  0.6391589586337716  0.8027576171660086  0.23429177991839373  1.0000
  H   H8        1.0  0.3608412010505475  0.1972419187177721  0.7657081274721662  1.0000
  H   H9        1.0  0.8399167124214556  0.8047807134194329  0.29943643249897894  1.0000
  H   H10       1.0  0.1600834608137376  0.1952198190634888  0.7005633202590217  1.0000
  H   H11       1.0  0.8904933353011585  0.645977623516778  0.2793281707510644  1.0000
  H   H12       1.0  0.1095078858820244  0.3540229089661366  0.7206720280728618  1.0000
  H   H13       1.0  0.9404309998534544  0.7337471131439202  0.10453534772857848  1.0000
  H   H14       1.0  0.0595702213297287  0.2662534193389945  0.8954648510953546  1.0000
  H   H15       1.0  0.8843467147904817  0.8918824816230283  0.12279664823315527  1.0000
  H   H16       1.0  0.1156524240475889  0.10811904745902721  0.8772031602958562  1.0000
  H   H17       1.0  0.1335335772935622  0.7440360026613533  0.17637348894054128  1.0000
  H   H18       1.0  0.8664666094924981  0.2559655264207095  0.8236267656544028  1.0000
  H   H19       1.0  0.0800703542645493  0.9045711818686613  0.1936889069193413  1.0000
  H   H20       1.0  0.9199308804695006  0.0954303472133944  0.806310480802523  1.0000
  H   H21       1.0  0.1313377209094924  0.988784805765647  0.018449672166987337  1.0000
  H   H22       1.0  0.8686634867228165  0.0112147301181338  0.9815513377590075  1.0000
  H   H23       1.0  0.17958574059097998  0.8273566737292342  0.0004865652552866048  1.0000
  H   H24       1.0  0.820413411797972  0.1726458519519696  0.9995137451106827  1.0000
  H   H25       1.0  0.38503177397394944  0.9818863465212005  0.9744827585787091  1.0000
  H   H26       1.0  0.6149684263629923  0.0181161791600033  0.025516028444670276  1.0000
  H   H27       1.0  0.3306388294855083  0.9769352419955695  0.09641563051286532  1.0000
  H   H28       1.0  0.6693623916976748  0.0230652904873523  0.9035845683110608  1.0000
  H   H29       1.0  0.8984323000968004  0.8474979423409437  0.4315926676539731  1.0000
  H   H30       1.0  0.10156267405105979  0.1525055799394011  0.5684057038157135  1.0000
  H   H31       1.0  0.1229525550351838  0.969246479633405  0.3392704472450774  1.0000
  H   H32       1.0  0.8770413576138195  0.0307560460477916  0.6607269763217258  1.0000
  H   H33       1.0  0.9151086153588892  0.3296789817826564  0.4078833993291439  1.0000
  H   H34       1.0  0.0848915443254299  0.6703205541011243  0.5921184774699311  1.0000
  H   H35       1.0  0.701944464947907  0.1900255443477903  0.5020729319878681  1.0000
  H   H36       1.0  0.2980546874410379  0.8099769813334136  0.4979286913171137  1.0000
  H   H37       1.0  0.258317648315554  0.0990011619306514  0.2199786851085719  1.0000
  H   H38       1.0  0.7416814769716495  0.9009993705522704  0.7800193086444834  1.0000
  H   H39       1.0  0.46256300120246857  0.2457663308258446  0.1203722489279002  1.0000
  H   H40       1.0  0.5374371720327247  0.7542342016570771  0.8796275038301004  1.0000
  H   H41       1.0  0.3264392923053876  0.5415290506889718  0.2703455269827088  1.0000
  H   H42       1.0  0.6735598194309417  0.4584704851948088  0.7296552472809311  1.0000
  H   H43       1.0  0.1217921533086397  0.40559990423886205  0.3803890350769024  1.0000
  H   H44       1.0  0.878207992824805  0.5943986350457777  0.6196110269462096  1.0000
  H   H45       1.0  0.46226853889888275  0.6365189010826526  0.6450505688499675  1.0000
  H   H46       1.0  0.5377295248894569  0.3634806348011281  0.35494975934773976  1.0000
  H   H47       1.0  0.2413161981962304  0.5411931967789201  0.7640633132143079  1.0000
  H   H48       1.0  0.7586849687834628  0.45880334930744476  0.23593684767033804  1.0000
  H   H49       1.0  0.14347133272296733  0.937258637049041  0.8159453979812665  1.0000
  H   H50       1.0  0.8565298478075931  0.0627389056364578  0.18405592120983263  1.0000
  H   H51       1.0  0.37304609268921496  0.012846162909696101  0.6984162993338714  1.0000
  H   H52       1.0  0.626955114943094  0.9871533729740847  0.30158471059211683  1.0000
  H   H53       1.0  0.8043351496409343  0.4138318131321199  0.946516154695395  1.0000
  H   H54       1.0  0.1956649964925177  0.5861667261525199  0.05348653320574207  1.0000
  H   H55       1.0  0.041380357191570696  0.484164804212476  0.8361790087938417  1.0000
  H   H56       1.0  0.9586218577361122  0.5158317418738818  0.16382291109574962  1.0000
  H   H57       1.0  0.9715074990572671  0.8645078964559616  0.9175716520914747  1.0000
  H   H58       1.0  0.0284957909201466  0.1354906428286782  0.08242843519041537  1.0000
  H   H59       1.0  0.736696595674978  0.7780858088655904  0.02233123166053728  1.0000
  H   H60       1.0  0.2633056734561947  0.2219147236173313  0.9776674438208063  1.0000
  C   C1        1.0  0.5952350608153196  0.7163454955670261  0.4282144877659491  1.0000
  C   C2        1.0  0.4047619821267787  0.2836560335150295  0.571785741570217  1.0000
  C   C3        1.0  0.6042985923348851  0.6353309549082269  0.35401722774764005  1.0000
  C   C4        1.0  0.39570051940144424  0.3646685809755539  0.6459835465159997  1.0000
  C   C5        1.0  0.691988179077711  0.7096603085384601  0.25560698896277495  1.0000
  C   C6        1.0  0.30801302855459767  0.2903392273453207  0.7443933644937104  1.0000
  C   C7        1.0  0.8422290395627599  0.7389254422733842  0.2511053006549275  1.0000
  C   C8        1.0  0.15777218162042317  0.2610750902095376  0.7488942416994959  1.0000
  C   C9        1.0  0.9350193436103069  0.8014889464612693  0.1520195384933061  1.0000
  C   C10       1.0  0.0649818775728761  0.1985115860216453  0.8479800038611172  1.0000
  C   C11       1.0  0.08386945373900552  0.8351510756001943  0.14723660709319827  1.0000
  C   C12       1.0  0.916130719496188  0.1648494568827275  0.852764458603815  1.0000
  C   C13       1.0  0.1769852454603864  0.8952171023441976  0.04743749797321331  1.0000
  C   C14       1.0  0.8230149413256811  0.104784426737865  0.9525627566217381  1.0000
  C   C15       1.0  0.3275389011072107  0.9202805741064851  0.043810848746197485  1.0000
  C   C16       1.0  0.6724623336268394  0.0797209549755777  0.9561885389756667  1.0000
  C   C17       1.0  0.4105991733765038  0.7919504960959713  0.059304474204147084  1.0000
  C   C18       1.0  0.5894010134095637  0.2080510329860843  0.9406951239212943  1.0000
  C   C19       1.0  0.9083436057974053  0.9546134144663725  0.42467531930974173  1.0000
  C   C20       1.0  0.0916513412487134  0.0453881146156832  0.575323361425049  1.0000
  C   C21       1.0  0.03221010000610391  0.0239193759500083  0.3722036057272717  1.0000
  C   C22       1.0  0.9677869293851202  0.9760811565329135  0.627794808832931  1.0000
  C   C23       1.0  0.039790425039129204  0.1619922071494386  0.3647274105909517  1.0000
  C   C24       1.0  0.9602086866972  0.8380073287343421  0.6352720507336682  1.0000
  C   C25       1.0  0.9184219073674029  0.2226033736228104  0.4122274465670301  1.0000
  C   C26       1.0  0.08157616997181089  0.7773971588601114  0.5877740399371303  1.0000
  C   C27       1.0  0.7985837790325903  0.1466854409640206  0.4641361926193496  1.0000
  C   C28       1.0  0.20141535980548747  0.8533160881180422  0.5358636159096689  1.0000
  C   C29       1.0  0.167601151422474  0.240901930425359  0.3079797951725141  1.0000
  C   C30       1.0  0.8323969123658657  0.7590976054584218  0.6920198765556831  1.0000
  C   C31       1.0  0.26886749951399486  0.1956603158831953  0.23514275927625047  1.0000
  C   C32       1.0  0.7311305913760932  0.8043412131988604  0.7648559467173256  1.0000
  C   C33       1.0  0.3830177176141589  0.2764595911278391  0.178755037029525  1.0000
  C   C34       1.0  0.6169814076730447  0.7235409413550826  0.8212442696625359  1.0000
  C   C35       1.0  0.30723276330327554  0.44235747030544564  0.26220762226348876  1.0000
  C   C36       1.0  0.6927674099319177  0.5576430621774762  0.7377921304945119  1.0000
  C   C37       1.0  0.19163549978812  0.3665033199915939  0.3223446557599416  1.0000
  C   C38       1.0  0.8083636119482094  0.6334962158921869  0.6776554620341884  1.0000
  C   C39       1.0  0.3887797973702831  0.6983050579416386  0.6864721349294596  1.0000
  C   C40       1.0  0.611220362314036  0.3016944779421422  0.31352645952208036  1.0000
  C   C41       1.0  0.2637932136291283  0.6467499878499865  0.7523516263878278  1.0000
  C   C42       1.0  0.7362089877476805  0.3532455616372374  0.2476484787258002  1.0000
  C   C43       1.0  0.16881511109710348  0.7309536457555694  0.8008618148297799  1.0000
  C   C44       1.0  0.8311870902797053  0.2690419037316545  0.199138946753358  1.0000
  C   C45       1.0  0.2105060174340068  0.8649324476894408  0.7817163043737806  1.0000
  C   C46       1.0  0.7894951495456866  0.1350640983969171  0.21828516944987794  1.0000
  C   C47       1.0  0.338397478208762  0.909009037837393  0.716216937460757  1.0000
  C   C48       1.0  0.661601606425819  0.0909885048481129  0.2837841460679868  1.0000
  C   C49       1.0  0.8481885888676715  0.5122489679669542  0.9380894204439088  1.0000
  C   C50       1.0  0.1518136396108787  0.4877485747185517  0.06191168834362058  1.0000
  C   C51       1.0  0.979842639662273  0.5534304376143027  0.8765416557910582  1.0000
  C   C52       1.0  0.0201595888162771  0.4465671050711961  0.12345945299647096  1.0000
  C   C53       1.0  0.030486084692888892  0.68209836273315  0.8665547461238816  1.0000
  C   C54       1.0  0.9695171917336508  0.3178991799523558  0.13344615226007045  1.0000
  C   C55       1.0  0.9408507157236983  0.763613196160037  0.9207690626088122  1.0000
  C   C56       1.0  0.05915046480686929  0.23638434652546184  0.07923160011278438  1.0000
  C   C57       1.0  0.8101128254876925  0.7165159140199009  0.9804619283162381  1.0000
  C   C58       1.0  0.189888368593742  0.2834826252647389  0.0195379233032966  1.0000
  N   N1        1.0  0.7929890750151642  0.0142982078561218  0.47027222658882545  1.0000
  N   N2        1.0  0.2070068928772031  0.985701328027659  0.5297291788855388  1.0000
  N   N3        1.0  0.4009548385082127  0.3996522005736125  0.19037395596308923  1.0000
  N   N4        1.0  0.5990432388310012  0.6003483319093093  0.8096262176020586  1.0000
  N   N5        1.0  0.4260066223076464  0.8274413846560975  0.6679415507249045  1.0000
  N   N6        1.0  0.5739914550315675  0.1725591478268171  0.33205862284024334  1.0000
  N   N7        1.0  0.7639863555631621  0.5923546102104211  0.9898207869961269  1.0000
  N   N8        1.0  0.23601272907142598  0.40764293247508476  0.01017898359361168  1.0000
  O   O1        1.0  0.6665921720102189  0.680987154692474  0.48535491542001796  1.0000
  O   O2        1.0  0.3334038094330154  0.3190133777904478  0.5146463354217872  1.0000
  O   O3        1.0  0.5180407766963739  0.8200585782297978  0.4249423025244353  1.0000
  O   O4        1.0  0.48195626624572435  0.1799429508522579  0.5750553009337053  1.0000
  O   O5        1.0  0.38478488882419976  0.6972935098149264  0.02425766243803909  1.0000
  O   O6        1.0  0.6152152844109935  0.3027070226679953  0.9757414338504516  1.0000
  O   O7        1.0  0.5009105505283387  0.7869605242038986  0.10259964647415387  1.0000
  O   O8        1.0  0.49908962270685464  0.21304000827902309  0.897399449814337  1.0000
