data_image0
_chemical_formula_structural       Zn8H16C116O26F48
_chemical_formula_sum              "Zn8 H16 C116 O26 F48"
_cell_length_a       21.615937136231498
_cell_length_b       21.615927562198927
_cell_length_c       34.45589928719872
_cell_angle_alpha    89.99976312365912
_cell_angle_beta     89.99969093109269
_cell_angle_gamma    89.99956921708751

_space_group_name_H-M_alt    "P 1"
_space_group_IT_number       1

loop_
  _space_group_symop_operation_xyz
  'x, y, z'

loop_
  _atom_site_type_symbol
  _atom_site_label
  _atom_site_symmetry_multiplicity
  _atom_site_fract_x
  _atom_site_fract_y
  _atom_site_fract_z
  _atom_site_occupancy
  Zn  Zn1       1.0  0.5522467981677008  0.5516382635478436  0.03339785493064081  1.0000
  Zn  Zn2       1.0  0.4477550688491687  0.5516411331051073  0.9666042655117124  1.0000
  Zn  Zn3       1.0  0.4477534517509198  0.44835786985480297  0.0333961342492231  1.0000
  Zn  Zn4       1.0  0.5522441029637121  0.4483599537834095  0.9666021909261103  1.0000
  Zn  Zn5       1.0  0.4483585526997799  0.4477531813821897  0.46660380842376264  1.0000
  Zn  Zn6       1.0  0.4483587982125811  0.5522453544115251  0.5333965892906606  1.0000
  Zn  Zn7       1.0  0.551640751161102  0.5522447235958123  0.4666017566466536  1.0000
  Zn  Zn8       1.0  0.5516357682141972  0.4477521104418757  0.5333962596859649  1.0000
  H   H1        1.0  0.5691753923991952  0.5713047898439781  0.15157466115709184  1.0000
  H   H2        1.0  0.6112591985721209  0.6117657937219292  0.2140755907782221  1.0000
  H   H3        1.0  0.430819678608259  0.4286984294108576  0.1515736292746865  1.0000
  H   H4        1.0  0.3887311718746176  0.38823840156004513  0.21407480638585247  1.0000
  H   H5        1.0  0.42869724228307854  0.4308142836915536  0.34842294012271685  1.0000
  H   H6        1.0  0.38823539361973036  0.388734559928423  0.2859217196281136  1.0000
  H   H7        1.0  0.5713012264392177  0.5691751476114532  0.34842222896043756  1.0000
  H   H8        1.0  0.611760836296625  0.6112631478044293  0.285923084078874  1.0000
  H   H9        1.0  0.43082123792004967  0.5713104159348034  0.8484242157926475  1.0000
  H   H10       1.0  0.38873620231581185  0.6117661340004189  0.785923471458432  1.0000
  H   H11       1.0  0.5691798743887871  0.4287025526145384  0.8484261980177552  1.0000
  H   H12       1.0  0.6112640591140703  0.3882389192104013  0.785926286768401  1.0000
  H   H13       1.0  0.5713009069533115  0.43081413663323076  0.6515777523677075  1.0000
  H   H14       1.0  0.6117616841332705  0.388733234177444  0.7140790820123898  1.0000
  H   H15       1.0  0.42869588253704893  0.5691751475020934  0.6515760730675524  1.0000
  H   H16       1.0  0.3882359562380059  0.6112621148052568  0.7140765599130958  1.0000
  C   C1        1.0  0.49999988176665505  0.6643795103462368  2.6450200394000008e-06  1.0000
  C   C2        1.0  0.33475483041650733  0.4999962535241879  5.260121937999999e-07  1.0000
  C   C3        1.0  0.49999819946663127  0.49999945094049986  0.1047048127253731  1.0000
  C   C4        1.0  0.49999741671122405  0.33561776837807134  0.9999990082318109  1.0000
  C   C5        1.0  0.6652484821484846  0.5000000999357609  5.467785513000003e-07  1.0000
  C   C6        1.0  0.49999896697922  0.5000023975760826  0.8952927980490133  1.0000
  C   C7        1.0  0.3356182476384717  0.5000033926958096  0.5000008251133821  1.0000
  C   C8        1.0  0.5000009690758417  0.6652443536535345  0.4999974301740054  1.0000
  C   C9        1.0  0.4999988017074343  0.49999664302472985  0.3952924974841281  1.0000
  C   C10       1.0  0.6643807692401396  0.5000067829895727  0.5000020097161981  1.0000
  C   C11       1.0  0.49999758526671917  0.3347510181579238  0.49999843925004933  1.0000
  C   C12       1.0  0.4999988273898096  0.4999936399337982  0.6047083057911635  1.0000
  C   C13       1.0  0.2653961509964872  0.5000006214279151  0.9999986325739839  1.0000
  C   C14       1.0  0.23181424798477215  0.4491271606790973  0.013917106035982802  1.0000
  C   C15       1.0  0.16737012981883484  0.44928654506371396  0.013853655455584101  1.0000
  C   C16       1.0  0.23181339041651228  0.5508734658655001  0.9860802521609388  1.0000
  C   C17       1.0  0.16736927290178724  0.5507150286349043  0.9861433405562252  1.0000
  C   C18       1.0  0.13391122012696138  0.5000011157218722  0.9999982747868756  1.0000
  C   C19       1.0  0.06560097335252378  0.5000009098981832  0.9999986806944959  1.0000
  C   C20       1.0  0.0322040038955649  0.5002454143000392  0.9652392320370494  1.0000
  C   C21       1.0  0.0322033765166836  0.4997581009077335  0.0347567706408469  1.0000
  C   C22       1.0  0.7346084173926356  0.500000301812392  4.2931937829999975e-07  1.0000
  C   C23       1.0  0.7681907954824111  0.5508746525295931  0.0139178070985153  1.0000
  C   C24       1.0  0.8326363020572886  0.5507148059338858  0.0138550093397214  1.0000
  C   C25       1.0  0.7681907028982805  0.4491265674092943  0.9860820878130953  1.0000
  C   C26       1.0  0.8326366703587169  0.44928592946446594  0.9861440868466644  1.0000
  C   C27       1.0  0.8660941414828045  0.5000002137059595  0.9999981957631617  1.0000
  C   C28       1.0  0.9344043882535045  0.5000004195267778  0.9999986605337341  1.0000
  C   C29       1.0  0.9678024131517942  0.5002445002169509  0.0347575074105038  1.0000
  C   C30       1.0  0.9678030442017158  0.499756606792097  0.9652388091671968  1.0000
  C   C31       1.0  0.5392299403174475  0.5403494336843977  0.1679998058289627  1.0000
  C   C32       1.0  0.5403548598268486  0.540777683292525  0.20866366729296  1.0000
  C   C33       1.0  0.58063878252338  0.5808992645040618  0.23019338707711512  1.0000
  C   C34       1.0  0.46075990073175876  0.4596550652184276  0.16799946291628493  1.0000
  C   C35       1.0  0.45963509449788376  0.459225159787337  0.2086630390770097  1.0000
  C   C36       1.0  0.4193523747086515  0.41910204883689045  0.23019183846370345  1.0000
  C   C37       1.0  0.45965260116813766  0.46076019521616723  0.3319983755018896  1.0000
  C   C38       1.0  0.4592216167086889  0.4596380102529167  0.2913342235366302  1.0000
  C   C39       1.0  0.4190991495720411  0.41935358554970037  0.2698045036902528  1.0000
  C   C40       1.0  0.5403450834113456  0.5392302695620116  0.3319984273095572  1.0000
  C   C41       1.0  0.5407731788573358  0.5403582739608906  0.2913334002930128  1.0000
  C   C42       1.0  0.5808949057113039  0.5806437657804011  0.2698043107422947  1.0000
  C   C43       1.0  0.49999616338879344  0.5000030095824853  0.1479064133442094  1.0000
  C   C44       1.0  0.4999967386454073  0.5000022785128094  0.22938215648518684  1.0000
  C   C45       1.0  0.4999999125452702  0.4999935470118757  0.3520897359620108  1.0000
  C   C46       1.0  0.4999979493919468  0.5000007547866758  0.27061573417135787  1.0000
  C   C47       1.0  0.46076553488611427  0.5403521671346496  0.8319991514187565  1.0000
  C   C48       1.0  0.4596387616790523  0.5407774548108433  0.7913358693030618  1.0000
  C   C49       1.0  0.4193545373258516  0.5808985555288615  0.7698069161305414  1.0000
  C   C50       1.0  0.5392352559303717  0.4596558208090898  0.8320014449966424  1.0000
  C   C51       1.0  0.5403586775415973  0.4592252496443832  0.7913361285978413  1.0000
  C   C52       1.0  0.5806444747246785  0.41910105242887846  0.769808884409315  1.0000
  C   C53       1.0  0.54034439768197  0.4607601726777943  0.6680007881860561  1.0000
  C   C54       1.0  0.5407744653338254  0.45963540339990044  0.7086675551015134  1.0000
  C   C55       1.0  0.5808958474811446  0.4193542361441517  0.7301953478531473  1.0000
  C   C56       1.0  0.4596494749702558  0.5392308537291796  0.6680008230714591  1.0000
  C   C57       1.0  0.45922183367590447  0.5403562802711831  0.7086655569386906  1.0000
  C   C58       1.0  0.4190998039347703  0.5806437823775851  0.7301928006380862  1.0000
  C   C59       1.0  0.49999961516284225  0.5000053156411254  0.8520923583283775  1.0000
  C   C60       1.0  0.49999811468929756  0.49999771951748767  0.7706177761040182  1.0000
  C   C61       1.0  0.49999817919722733  0.49999210973138003  0.64790961618818  1.0000
  C   C62       1.0  0.4999955160920421  0.4999964675207166  0.7293833277456088  1.0000
  C   C63       1.0  0.4999944394980814  0.26615139939993776  0.9999999690062681  1.0000
  C   C64       1.0  0.4776974550526915  0.23240265307794053  0.03184046168902201  1.0000
  C   C65       1.0  0.4778119654277546  0.16791270700931446  0.03174767279219991  1.0000
  C   C66       1.0  0.5222938587638097  0.23240125093515465  0.9681598747781665  1.0000
  C   C67       1.0  0.5221789080014217  0.1679103798610555  0.9682566038903175  1.0000
  C   C68       1.0  0.49999909886783195  0.13426763024965277  2.4618474939e-06  1.0000
  C   C69       1.0  0.4999993561758274  0.0658218050246049  1.9701626073e-06  1.0000
  C   C70       1.0  0.5553302855248603  0.032227794175987895  0.9998443479704662  1.0000
  C   C71       1.0  0.4446685473775246  0.032226877725165096  0.00015911973314790005  1.0000
  C   C72       1.0  0.499995919659625  0.7338454167305385  1.1038058076000008e-06  1.0000
  C   C73       1.0  0.4776974351154947  0.7675951994994819  0.9681621584661926  1.0000
  C   C74       1.0  0.4778165486562003  0.8320869951781373  0.9682546567389211  1.0000
  C   C75       1.0  0.52229818202251  0.7675939532223665  0.0318399822932989  1.0000
  C   C76       1.0  0.5221845976888773  0.8320871382618904  0.0317441242433461  1.0000
  C   C77       1.0  0.5000014379641512  0.8657282605950771  0.9999997718527995  1.0000
  C   C78       1.0  0.5000010486196089  0.934175879869926  0.999999703776574  1.0000
  C   C79       1.0  0.4446686007230269  0.9677693726961748  0.9998436122908814  1.0000
  C   C80       1.0  0.5553306002364237  0.9677694747100534  0.00015771902127430002  1.0000
  C   C81       1.0  0.5000002457064808  0.7346038569938784  0.49999908157897727  1.0000
  C   C82       1.0  0.5508742169104862  0.7681858929736476  0.486081741469846  1.0000
  C   C83       1.0  0.5507139072914811  0.8326309649952818  0.486144637217933  1.0000
  C   C84       1.0  0.449126947261547  0.7681847958976389  0.5139166248090846  1.0000
  C   C85       1.0  0.4492863097271567  0.8326303297553179  0.5138532716777746  1.0000
  C   C86       1.0  0.5000011392893667  0.8660874582303675  0.49999920128189507  1.0000
  C   C87       1.0  0.49999995724991203  0.9343968100176165  0.4999999833714027  1.0000
  C   C88       1.0  0.49975403030079946  0.9677947543040515  0.5347594453710229  1.0000
  C   C89       1.0  0.5002470209464035  0.967797294606811  0.46524159564294376  1.0000
  C   C90       1.0  0.5000006217287591  0.2653919774201938  0.499999980327253  1.0000
  C   C91       1.0  0.4491258448551534  0.23180864528851688  0.4860823191814063  1.0000
  C   C92       1.0  0.44928476605626577  0.16736542334059828  0.48614654244889977  1.0000
  C   C93       1.0  0.5508747258474928  0.2318095589325678  0.5139188894860354  1.0000
  C   C94       1.0  0.5507167517838595  0.16736541335112776  0.5138559942757583  1.0000
  C   C95       1.0  0.5000015786293658  0.1339065256817733  0.5000021824321053  1.0000
  C   C96       1.0  0.4999999849460153  0.0655953234176323  0.5000014003497029  1.0000
  C   C97       1.0  0.4997606218074821  0.032197380954592285  0.4652422293979654  1.0000
  C   C98       1.0  0.5002382113304407  0.0321952996230479  0.5347606579339229  1.0000
  C   C99       1.0  0.733846182209696  0.5000074470886418  0.5000027627559974  1.0000
  C   C100      1.0  0.7675958707023725  0.5223048721660106  0.4681602339472661  1.0000
  C   C101      1.0  0.8320871759780883  0.5221871234617409  0.46825618971282523  1.0000
  C   C102      1.0  0.7675957648097621  0.47770791779076643  0.5318399531903992  1.0000
  C   C103      1.0  0.832086607427776  0.47781731703483393  0.5317455203647655  1.0000
  C   C104      1.0  0.8657308182052289  0.5000004745988561  0.4999993469357947  1.0000
  C   C105      1.0  0.9341770757217417  0.500002993014661  0.5000006821512244  1.0000
  C   C106      1.0  0.9677724029672135  0.44467236990919895  0.5001553875087126  1.0000
  C   C107      1.0  0.9677710630497386  0.5553333635349488  0.4998458630110322  1.0000
  C   C108      1.0  0.2661523720256723  0.5000078174367103  0.5000006525198942  1.0000
  C   C109      1.0  0.23240390376735579  0.52230343594924  0.5318416723633419  1.0000
  C   C110      1.0  0.16791121151968008  0.522184322282861  0.5317451364551928  1.0000
  C   C111      1.0  0.23240527020654153  0.4777073638157318  0.4681611981146929  1.0000
  C   C112      1.0  0.16791720249719327  0.47781770993505274  0.46825446974638407  1.0000
  C   C113      1.0  0.13427189968891887  0.5000013738882458  0.500000875863755  1.0000
  C   C114      1.0  0.06582471691524457  0.5000025564505747  0.49999954064509217  1.0000
  C   C115      1.0  0.032230776191958896  0.5553331785209606  0.500157408755193  1.0000
  C   C116      1.0  0.03223119355330079  0.4446717243365724  0.4998417863151588  1.0000
  O   O1        1.0  0.5000009623499436  0.4999988706672409  0.9999999559435154  1.0000
  O   O2        1.0  0.5464651656910674  0.638379937055461  0.015687577404655404  1.0000
  O   O3        1.0  0.3607115040603546  0.5249509424181582  0.9708411676007814  1.0000
  O   O4        1.0  0.4712881400865356  0.45578730870762746  0.08781173023009363  1.0000
  O   O5        1.0  0.4535291098577331  0.638376169763056  0.984314318067881  1.0000
  O   O6        1.0  0.5287134928019624  0.544214942822748  0.08781238897805822  1.0000
  O   O7        1.0  0.360707872235146  0.47504732715255926  0.0291528517762316  1.0000
  O   O8        1.0  0.4535343111073543  0.3616214018853015  0.015688383935547303  1.0000
  O   O9        1.0  0.6392936454230096  0.47504502766560813  0.9708459846228622  1.0000
  O   O10       1.0  0.5464652836255367  0.361618786369334  0.9843087150898882  1.0000
  O   O11       1.0  0.6392933393598309  0.5249539230459702  0.0291552175369176  1.0000
  O   O12       1.0  0.4712838038152966  0.544217994032131  0.9121885898222147  1.0000
  O   O13       1.0  0.5287144476031287  0.45578992814012037  0.9121871561176109  1.0000
  O   O14       1.0  0.49999973978221124  0.49999953638844363  0.49999880538702973  1.0000
  O   O15       1.0  0.36161828775638577  0.4535380725094739  0.4843100594697489  1.0000
  O   O16       1.0  0.47504898134176426  0.6392894161495305  0.5291547772919145  1.0000
  O   O17       1.0  0.5442109074260841  0.5287136713537137  0.4121855738228534  1.0000
  O   O18       1.0  0.3616215045786432  0.5464675921412336  0.5156917929185596  1.0000
  O   O19       1.0  0.4557856255933785  0.4712832043514935  0.4121869589543934  1.0000
  O   O20       1.0  0.5249503762058153  0.6392912711689362  0.4708424721886928  1.0000
  O   O21       1.0  0.6383776256047822  0.546466655128988  0.4843088898147699  1.0000
  O   O22       1.0  0.5249567244662358  0.36070576351314537  0.5291518615843033  1.0000
  O   O23       1.0  0.6383783027400937  0.45354016702957267  0.5156946372441384  1.0000
  O   O24       1.0  0.4750387135464677  0.3607047554103531  0.4708461104992665  1.0000
  O   O25       1.0  0.4557888188605189  0.528714812967081  0.5878137038267326  1.0000
  O   O26       1.0  0.5442062053429949  0.4712698025061783  0.5878142090474229  1.0000
  F   F1        1.0  0.2609052128793437  0.6021462383010743  0.9734587853676757  1.0000
  F   F2        1.0  0.13686618186851968  0.60119462979317  0.9731795089593406  1.0000
  F   F3        1.0  0.260904497007651  0.39785648262274986  0.026540215653369604  1.0000
  F   F4        1.0  0.1368668443265122  0.39880624800627373  0.026816719687602106  1.0000
  F   F5        1.0  0.06262614934429679  0.5001713931914367  0.9310183352900767  1.0000
  F   F6        1.0  0.9373816553682487  0.4998313160180032  0.9310188859421659  1.0000
  F   F7        1.0  0.06262707790771319  0.4998281923016349  0.0689781448044826  1.0000
  F   F8        1.0  0.9373802682712621  0.5001677066094101  0.0689781141270061  1.0000
  F   F9        1.0  0.8631407980043875  0.3988073389702293  0.9731808633211614  1.0000
  F   F10       1.0  0.7390985262358142  0.3978571164983008  0.9734605623140099  1.0000
  F   F11       1.0  0.8631385509456635  0.6011931670874519  0.0268178393270446  1.0000
  F   F12       1.0  0.7390995127673888  0.6021438595386002  0.026542333390438  1.0000
  F   F13       1.0  0.5425604163743571  0.26136418318801447  0.9359717009170438  1.0000
  F   F14       1.0  0.5429494814323162  0.1375545494780468  0.9365633415439659  1.0000
  F   F15       1.0  0.4574316049223768  0.2613655255944493  0.0640297213289784  1.0000
  F   F16       1.0  0.4570328304216886  0.13755821185201705  0.06343869208001962  1.0000
  F   F17       1.0  0.609947743332519  0.0625307065763181  0.9998775921747693  1.0000
  F   F18       1.0  0.6099492114083063  0.9374675395272688  0.0001231289235477  1.0000
  F   F19       1.0  0.3900513243567687  0.0625292757454545  0.0001266676073541  1.0000
  F   F20       1.0  0.39005021737965945  0.937468310567681  0.9998768298541949  1.0000
  F   F21       1.0  0.542953745371868  0.8624400367533981  0.063437316247267  1.0000
  F   F22       1.0  0.5425683818290139  0.7386317938259737  0.06402721682748341  1.0000
  F   F23       1.0  0.4570425465440735  0.8624393334400793  0.9365628371446564  1.0000
  F   F24       1.0  0.45743300452733127  0.7386343298379356  0.9359723870082846  1.0000
  F   F25       1.0  0.3978546475116857  0.7390948236657167  0.5265392612995898  1.0000
  F   F26       1.0  0.3988039422349843  0.8631334472947427  0.52681452335964  1.0000
  F   F27       1.0  0.6021462727552703  0.7390960810479683  0.47345830975517345  1.0000
  F   F28       1.0  0.6011960454754757  0.8631300874240538  0.4731798237096356  1.0000
  F   F29       1.0  0.4998270919085569  0.937368003422449  0.5689782984494443  1.0000
  F   F30       1.0  0.5001556033300715  0.06261442309865829  0.5689808834950156  1.0000
  F   F31       1.0  0.5001751133425855  0.9373730828719216  0.4310213703501234  1.0000
  F   F32       1.0  0.4998434637145266  0.06261904241569739  0.43102163470575056  1.0000
  F   F33       1.0  0.6011948443281909  0.1368603599257412  0.5268188954623341  1.0000
  F   F34       1.0  0.6021436787764713  0.26090453683436005  0.5265430182221706  1.0000
  F   F35       1.0  0.3988078281106197  0.13685898436724386  0.4731843008385539  1.0000
  F   F36       1.0  0.39785574792063727  0.2609036292241029  0.4734607270149667  1.0000
  F   F37       1.0  0.7386337384101224  0.45744092079218035  0.5640290011774169  1.0000
  F   F38       1.0  0.8624405421714769  0.4570439904008337  0.5634381819908327  1.0000
  F   F39       1.0  0.7386348937349254  0.5425660728320167  0.4359709938325125  1.0000
  F   F40       1.0  0.862441226790871  0.5429657733330726  0.4365648764030752  1.0000
  F   F41       1.0  0.9374699666581634  0.3900539626439182  0.5001189411758489  1.0000
  F   F42       1.0  0.0625326526586605  0.3900544768796833  0.4998746013790338  1.0000
  F   F43       1.0  0.9374714541234751  0.6099524612417611  0.4998829924228261  1.0000
  F   F44       1.0  0.0625313623211881  0.6099515860284227  0.5001224594796767  1.0000
  F   F45       1.0  0.13756111083623776  0.45704204463735454  0.43656244246115966  1.0000
  F   F46       1.0  0.261372075202658  0.4574380480430023  0.4359736538216127  1.0000
  F   F47       1.0  0.13755376614721368  0.5429569774665736  0.5634378470129491  1.0000
  F   F48       1.0  0.2613633405234737  0.5425679077354673  0.5640308599227879  1.0000
