data_image0
_chemical_formula_structural       Ag4H44C52N8O12
_chemical_formula_sum              "Ag4 H44 C52 N8 O12"
_cell_length_a       7.196702536048749
_cell_length_b       10.729047538872543
_cell_length_c       16.611220043000266
_cell_angle_alpha    107.80282533289125
_cell_angle_beta     89.99961588672835
_cell_angle_gamma    89.99996548390247

_space_group_name_H-M_alt    "P 1"
_space_group_IT_number       1

loop_
  _space_group_symop_operation_xyz
  'x, y, z'

loop_
  _atom_site_type_symbol
  _atom_site_label
  _atom_site_symmetry_multiplicity
  _atom_site_fract_x
  _atom_site_fract_y
  _atom_site_fract_z
  _atom_site_occupancy
  Ag  Ag1       1.0  0.2136799979042436  0.9512715712847142  0.8355745398926757  1.0000
  Ag  Ag2       1.0  0.7136745071909801  0.04871759143286881  0.6644243323176156  1.0000
  Ag  Ag3       1.0  0.7863324565760834  0.04871637691732641  0.16442257391373258  1.0000
  Ag  Ag4       1.0  0.2863309996552417  0.951286986820499  0.3355730311857741  1.0000
  H   H1        1.0  0.04074390689918771  0.6984252133946072  0.8400218043760503  1.0000
  H   H2        1.0  0.540745253883429  0.3015790118973031  0.6599859446057792  1.0000
  H   H3        1.0  0.9592449255605118  0.3015794068009541  0.15998640345297588  1.0000
  H   H4        1.0  0.45923941009026237  0.6984245851255294  0.3400106245895671  1.0000
  H   H5        1.0  0.9764036499770724  0.5698175982438515  0.9391285767478762  1.0000
  H   H6        1.0  0.4764012235695462  0.43019651020380684  0.5608840480846168  1.0000
  H   H7        1.0  0.023583792927098595  0.4301958392470767  0.06088316540251533  1.0000
  H   H8        1.0  0.5235806613600715  0.5698061055697964  0.43911172677258736  1.0000
  H   H9        1.0  0.0562095088845211  0.6714805602285951  0.0937119332089651  1.0000
  H   H10       1.0  0.5561987146010239  0.32852821614308436  0.40629624262761144  1.0000
  H   H11       1.0  0.9437904397822621  0.328533837539034  0.9062951811144372  1.0000
  H   H12       1.0  0.4437887284322955  0.6714704862621801  0.5936993671541728  1.0000
  H   H13       1.0  0.1974001281633946  0.8924059402900112  0.13986108302849223  1.0000
  H   H14       1.0  0.6973901987934781  0.10760155574222101  0.3601440204833891  1.0000
  H   H15       1.0  0.8026109367395762  0.1076025722826728  0.8601418676807171  1.0000
  H   H16       1.0  0.30261113947877044  0.8924020435925187  0.6398531511451607  1.0000
  H   H17       1.0  0.2882813789150305  0.08594550551576671  0.9847066354119605  1.0000
  H   H18       1.0  0.7882900758176632  0.9140542710021154  0.5152940988230839  1.0000
  H   H19       1.0  0.7117310755664547  0.9140492881593545  0.015290014183975086  1.0000
  H   H20       1.0  0.21172654720869133  0.08595716435865342  0.4847058127562605  1.0000
  H   H21       1.0  0.33189237070737215  0.06776791062348762  0.1656905763585712  1.0000
  H   H22       1.0  0.831905879064969  0.9322314617848381  0.33430892902263315  1.0000
  H   H23       1.0  0.6681103571046946  0.9322278573263107  0.8343050602133744  1.0000
  H   H24       1.0  0.16809962777910664  0.0677643154787404  0.665689117388652  1.0000
  H   H25       1.0  0.4957249370154954  0.22701899005191  0.2624536950233035  1.0000
  H   H26       1.0  0.9957428236335913  0.7729751627709405  0.237547919643049  1.0000
  H   H27       1.0  0.5042736222250781  0.7729669956603049  0.737541830120712  1.0000
  H   H28       1.0  0.004266851758501401  0.2270206284633005  0.7624537415272383  1.0000
  H   H29       1.0  0.6658954998244583  0.43992725370051033  0.30837200594145736  1.0000
  H   H30       1.0  0.1659020888328016  0.5600626659168952  0.1916243265288031  1.0000
  H   H31       1.0  0.3340975012938898  0.5600626546967008  0.6916260941219433  1.0000
  H   H32       1.0  0.8341006389643866  0.4399311535036786  0.8083733361235443  1.0000
  H   H33       1.0  0.6738609324887221  0.5810081705828624  0.21420349011571457  1.0000
  H   H34       1.0  0.1738689528200013  0.41898566454985803  0.285797800556935  1.0000
  H   H35       1.0  0.3261279000131552  0.41898371429783776  0.785799813406136  1.0000
  H   H36       1.0  0.8261309958925835  0.5810140400570348  0.7142040256957145  1.0000
  H   H37       1.0  0.523097155214387  0.5075505272898725  0.07395240418527751  1.0000
  H   H38       1.0  0.023104358011060807  0.49244753311045025  0.42604955406034856  1.0000
  H   H39       1.0  0.47689723539333767  0.49244624521228536  0.9260500513532648  1.0000
  H   H40       1.0  0.9768983697520567  0.5075521714935719  0.5739522721876682  1.0000
  H   H41       1.0  0.3692952326230738  0.29061699655655104  0.023976781823783704  1.0000
  H   H42       1.0  0.8693025517019706  0.7093822984781256  0.4760225989015722  1.0000
  H   H43       1.0  0.6307088846993736  0.7093768228625806  0.9760208808262475  1.0000
  H   H44       1.0  0.1306987865562235  0.29061641788774045  0.523976625623007  1.0000
  C   C1        1.0  0.073758498332289  0.7378477302019277  0.9070441182643378  1.0000
  C   C2        1.0  0.5737553449707847  0.26215935191615364  0.5929610840256172  1.0000
  C   C3        1.0  0.9262428398862141  0.2621549181598369  0.09296009101432649  1.0000
  C   C4        1.0  0.4262362666384902  0.7378442404411631  0.4070342802361679  1.0000
  C   C5        1.0  0.038508619481518694  0.6666622443273553  0.9626175746921531  1.0000
  C   C6        1.0  0.5385090490060165  0.3333449153712493  0.537388950003951  1.0000
  C   C7        1.0  0.9614871606119448  0.333343350125631  0.037389620085100723  1.0000
  C   C8        1.0  0.46148395211844206  0.6666616160826067  0.46260759236186993  1.0000
  C   C9        1.0  0.0836446311316479  0.7229466925940714  0.04769913841803229  1.0000
  C   C10       1.0  0.5836428927273829  0.2770620153639031  0.45230593365545246  1.0000
  C   C11       1.0  0.9163539280153259  0.2770647684061842  0.9523074002623273  1.0000
  C   C12       1.0  0.41635844555329976  0.7229445137521683  0.5476900062354845  1.0000
  C   C13       1.0  0.1623832263754892  0.8468545327065585  0.07369869199834508  1.0000
  C   C14       1.0  0.6623805853111122  0.15315499360792023  0.4263069119785712  1.0000
  C   C15       1.0  0.8376236699488759  0.1531530032766568  0.9263046692970105  1.0000
  C   C16       1.0  0.3376138053329925  0.8468495846569514  0.5736904515433494  1.0000
  C   C17       1.0  0.196540966566296  0.9142116039240593  0.014630881225400634  1.0000
  C   C18       1.0  0.6965458024321051  0.08579686347663801  0.4853720071633347  1.0000
  C   C19       1.0  0.8034659297820426  0.0857929859736899  0.985369494580631  1.0000
  C   C20       1.0  0.3034638729723866  0.9142096796057829  0.5146275474796552  1.0000
  C   C21       1.0  0.27823962773815225  0.044233802901644  0.0371315666875205  1.0000
  C   C22       1.0  0.7782428067507753  0.9557676360323204  0.46286789884155866  1.0000
  C   C23       1.0  0.7217700476752782  0.9557629556097211  0.9628672740595973  1.0000
  C   C24       1.0  0.2217696477292108  0.044237916478479605  0.5371284516100515  1.0000
  C   C25       1.0  0.3397268878043959  0.11277953465555159  0.11499686841477798  1.0000
  C   C26       1.0  0.8397340907705413  0.8872178590468279  0.3850010221784287  1.0000
  C   C27       1.0  0.6602716714447752  0.8872142707943527  0.8849971794785602  1.0000
  C   C28       1.0  0.160265857974295  0.11277693929955754  0.6149968323603333  1.0000
  C   C29       1.0  0.42242563532772687  0.24273271734049476  0.1400328290785353  1.0000
  C   C30       1.0  0.9224347041222387  0.7572635379934383  0.35996760629443253  1.0000
  C   C31       1.0  0.577572923909372  0.757260116173967  0.8599628343159935  1.0000
  C   C32       1.0  0.07756246555635471  0.24273224626625026  0.6400322475137158  1.0000
  C   C33       1.0  0.5043958723000513  0.28841038817517284  0.2209027890571988  1.0000
  C   C34       1.0  0.0044037893629607  0.71158673199119  0.2790990396380408  1.0000
  C   C35       1.0  0.49560407645668647  0.71158049215029  0.7790936954934295  1.0000
  C   C36       1.0  0.9955947698316406  0.2884090569253886  0.7209020190897772  1.0000
  C   C37       1.0  0.5957694187820765  0.40862235151580967  0.24733192615219224  1.0000
  C   C38       1.0  0.09577087910394509  0.5913706592710996  0.25266762555071415  1.0000
  C   C39       1.0  0.40423052996904824  0.5913665756221108  0.7526653795568449  1.0000
  C   C40       1.0  0.9042262905810998  0.4086241437364889  0.7473314339146595  1.0000
  C   C41       1.0  0.6023061254027056  0.4872557802942837  0.19429960661596368  1.0000
  C   C42       1.0  0.1023109947425027  0.5127411349866976  0.30570129328213363  1.0000
  C   C43       1.0  0.39768826521329  0.5127390320328331  0.805701862698008  1.0000
  C   C44       1.0  0.8976861749278201  0.487256609448032  0.6942995467505851  1.0000
  C   C45       1.0  0.518164050893624  0.44465190276395833  0.11453121546264809  1.0000
  C   C46       1.0  0.018169053883433196  0.5553491092715178  0.3854725397963463  1.0000
  C   C47       1.0  0.48183589781798014  0.555345846326219  0.8854708294874243  1.0000
  C   C48       1.0  0.9818336738778656  0.44465157425543816  0.6145294783334592  1.0000
  C   C49       1.0  0.4304644176708408  0.3234381128387724  0.08704724344912762  1.0000
  C   C50       1.0  0.9304685605073503  0.6765610672965466  0.4129549457056142  1.0000
  C   C51       1.0  0.5695355310592732  0.676559626934754  0.9129523916569722  1.0000
  C   C52       1.0  0.06952860916761239  0.3234366748090168  0.5870452918661114  1.0000
  N   N1        1.0  0.1502349570921027  0.8579751063764364  0.9318312849649927  1.0000
  N   N2        1.0  0.6502419959769057  0.1420279088102845  0.5681747022628088  1.0000
  N   N3        1.0  0.8497649916176827  0.14202362163668167  0.06817095186686829  1.0000
  N   N4        1.0  0.34977045847447386  0.8579805921151475  0.4318252361391187  1.0000
  N   N5        1.0  0.43492902069060346  0.1678057505758304  0.8099582358497486  1.0000
  N   N6        1.0  0.9349309212896344  0.8321917717021067  0.6900434332299097  1.0000
  N   N7        1.0  0.5650709280274453  0.8321910172622535  0.19004301475754198  1.0000
  N   N8        1.0  0.06506624836249839  0.16781576196201095  0.30995932562066736  1.0000
  O   O1        1.0  0.3195201538027419  0.21814176803292898  0.8670563897482637  1.0000
  O   O2        1.0  0.8195201882677452  0.7818540374911933  0.6329458826971788  1.0000
  O   O3        1.0  0.6804853529894145  0.7818520793347263  0.1329485024313541  1.0000
  O   O4        1.0  0.18047976044334754  0.21815642595137777  0.3670556444111455  1.0000
  O   O5        1.0  0.5634574595613059  0.2319391322031521  0.7899822666517338  1.0000
  O   O6        1.0  0.0634566717020704  0.7680611164338204  0.7100210243348214  1.0000
  O   O7        1.0  0.4365424891402084  0.7680615559850069  0.2100209564046907  1.0000
  O   O8        1.0  0.9365335503143157  0.23194153193944092  0.2899831849623737  1.0000
  O   O9        1.0  0.42309340383930316  0.042894769191761405  0.7689177298316208  1.0000
  O   O10       1.0  0.9230931962213236  0.9571047214450918  0.7310807476980514  1.0000
  O   O11       1.0  0.5769065449242207  0.9571049097943389  0.2310774693501187  1.0000
  O   O12       1.0  0.07690814201124138  0.0429028098855539  0.2689214086845837  1.0000
