data_image0
_chemical_formula_structural       Al2H16C24S2O11
_chemical_formula_sum              "Al2 H16 C24 S2 O11"
_cell_length_a       6.654068505960179
_cell_length_b       12.888332943643379
_cell_length_c       15.240709553216622
_cell_angle_alpha    68.72928368219333
_cell_angle_beta     78.94851446418694
_cell_angle_gamma    72.09418613231614

_space_group_name_H-M_alt    "P 1"
_space_group_IT_number       1

loop_
  _space_group_symop_operation_xyz
  'x, y, z'

loop_
  _atom_site_type_symbol
  _atom_site_label
  _atom_site_symmetry_multiplicity
  _atom_site_fract_x
  _atom_site_fract_y
  _atom_site_fract_z
  _atom_site_occupancy
  Al  Al1       1.0  0.502127916180491  0.4962315356946121  0.5006015653131398  1.0000
  Al  Al2       1.0  0.00016552494288641858  0.5011820056884845  0.4992796624738956  1.0000
  H   H1        1.0  0.251083755000991  0.4032118101055957  0.6168014274012277  1.0000
  H   H2        1.0  0.6874954115111576  0.6426339144290695  0.4327013980947711  1.0000
  H   H3        1.0  0.7879882645361674  0.5753914778829597  0.9209988312728893  1.0000
  H   H4        1.0  0.19454643617751793  0.4365604148059462  0.07665945117147288  1.0000
  H   H5        1.0  0.6324080044049083  0.5759413666037503  0.21342880930056643  1.0000
  H   H6        1.0  0.7303923891050984  0.5713795771167368  0.051181785854836924  1.0000
  H   H7        1.0  0.3832654765790834  0.4086336812958039  0.7929099879122459  1.0000
  H   H8        1.0  0.286802593725433  0.4123727583867804  0.9551999111962883  1.0000
  H   H9        1.0  0.6235765807424727  0.14371606782899699  0.5409084944531557  1.0000
  H   H10       1.0  0.9999509995266957  0.6185968309308123  0.7886292455291865  1.0000
  H   H11       1.0  0.8920691352896595  0.6501175661857983  0.6805922030638029  1.0000
  H   H12       1.0  0.0727641669451841  0.5171318310482108  0.7268521487686994  1.0000
  H   H13       1.0  0.9297489305551137  0.48838150200421643  0.2805149961187041  1.0000
  H   H14       1.0  0.09949221993689154  0.34944201427033755  0.31488486792588327  1.0000
  H   H15       1.0  0.9745356501152923  0.39909892346467046  0.20855334204116352  1.0000
  H   H16       1.0  0.5159357266758774  0.9017842549088328  0.44967059021058003  1.0000
  C   C1        1.0  0.8707657262349997  0.2992232880923851  0.5112478072707488  1.0000
  C   C2        1.0  0.6832030206718542  0.4820197859269797  0.666851364479079  1.0000
  C   C3        1.0  0.1381762793403709  0.7008130337015502  0.48512039335547985  1.0000
  C   C4        1.0  0.3218507314558534  0.5111754527590265  0.3363657935395634  1.0000
  C   C5        1.0  0.6415646096479433  0.4860988319095227  0.7654044477141537  1.0000
  C   C6        1.0  0.3614531431507118  0.509474625859241  0.2371430964131206  1.0000
  C   C7        1.0  0.7598318113993796  0.5324490685184455  0.8026097128330177  1.0000
  C   C8        1.0  0.6984964429371202  0.5365503801063126  0.8946390783362971  1.0000
  C   C9        1.0  0.2348001956807407  0.47006482235071445  0.19797812183826116  1.0000
  C   C10       1.0  0.29318829413873  0.46809467231346247  0.10527338119224079  1.0000
  C   C11       1.0  0.5369825759089507  0.5458599899545362  0.1820709067125108  1.0000
  C   C12       1.0  0.5911583916415565  0.5430410695720838  0.09027578327017241  1.0000
  C   C13       1.0  0.47248629077178345  0.4443647436882259  0.8223247866064651  1.0000
  C   C14       1.0  0.4178446601321041  0.44743875221356433  0.9140222312150923  1.0000
  C   C15       1.0  0.528917165308087  0.49542773733504225  0.9525043421196739  1.0000
  C   C16       1.0  0.4706887416386251  0.5026096374371036  0.04951769641959907  1.0000
  C   C17       1.0  0.227852266732292  0.886174851777376  0.47194633238400724  1.0000
  C   C18       1.0  0.7928191133126176  0.11351456636041493  0.5232039150161895  1.0000
  C   C19       1.0  0.08804039990606322  0.8181827717011886  0.48766308570115047  1.0000
  C   C20       1.0  0.9304798257568264  0.18107342190764095  0.5074519043983086  1.0000
  C   C21       1.0  0.9015276083582575  0.0059930244227146805  0.5117000570437966  1.0000
  C   C22       1.0  0.12007852878432615  0.9937391477090997  0.48609149062497886  1.0000
  C   C23       1.0  0.9405357157785301  0.5821452762036968  0.7470848593424363  1.0000
  C   C24       1.0  0.04905255298204024  0.42491658753689177  0.2527749160711963  1.0000
  S   S1        1.0  0.828287561318838  0.8850060878554871  0.5209116350512203  1.0000
  S   S2        1.0  0.1922757434470768  0.11499526873502217  0.4775973495030285  1.0000
  O   O1        1.0  0.6734363106983781  0.34207477025275057  0.5272880325866609  1.0000
  O   O2        1.0  0.8739404940767697  0.468545355714994  0.6287687983799157  1.0000
  O   O3        1.0  0.9830771140270751  0.6561502480258242  0.4973998937718349  1.0000
  O   O4        1.0  0.48423443326382193  0.4943507764026124  0.3775644051995072  1.0000
  O   O5        1.0  0.3337061104130115  0.6519403925801439  0.47123750946585813  1.0000
  O   O6        1.0  0.13104259160167678  0.5306574368356537  0.3734026804939106  1.0000
  O   O7        1.0  0.018206987360052614  0.34833212547004416  0.49833769302787795  1.0000
  O   O8        1.0  0.5226235435615292  0.4911758823466529  0.6274418334836012  1.0000
  O   O9        1.0  0.2614981957335516  0.44145676264420086  0.5490928712012886  1.0000
  O   O10       1.0  0.7349975605125465  0.5589293446764927  0.4538412712398736  1.0000
  O   O11       1.0  0.43619853353769844  0.8516508547335422  0.44505197277876357  1.0000
