data_image0
_chemical_formula_structural       Cu4H44C32Br4N4
_chemical_formula_sum              "Cu4 H44 C32 Br4 N4"
_cell_length_a       3.9482849652221925
_cell_length_b       14.24144335325704
_cell_length_c       15.698744426729574
_cell_angle_alpha    90.0005467744303
_cell_angle_beta     90.00104408380348
_cell_angle_gamma    90.00043582889552

_space_group_name_H-M_alt    "P 1"
_space_group_IT_number       1

loop_
  _space_group_symop_operation_xyz
  'x, y, z'

loop_
  _atom_site_type_symbol
  _atom_site_label
  _atom_site_symmetry_multiplicity
  _atom_site_fract_x
  _atom_site_fract_y
  _atom_site_fract_z
  _atom_site_occupancy
  Cu  Cu1       1.0  0.7644586437347202  0.5557606384295681  0.018923677037243205  1.0000
  Cu  Cu2       1.0  0.764303094577528  0.055753316374882914  0.48107372302811785  1.0000
  Cu  Cu3       1.0  0.23564324276603804  0.5557647363070758  0.518919047570499  1.0000
  Cu  Cu4       1.0  0.23556620899794473  0.05575811655964462  0.9810773746750245  1.0000
  H   H1        1.0  0.8360058507796638  0.4661955789020881  0.8758009034857752  1.0000
  H   H2        1.0  0.8359329048708446  0.9661899464611781  0.6242071861136722  1.0000
  H   H3        1.0  0.1640492601404659  0.46619223577418734  0.37579875104567156  1.0000
  H   H4        1.0  0.16398897777380486  0.9661922207161385  0.12419738980609202  1.0000
  H   H5        1.0  0.6159524308648374  0.4578438357480294  0.7760515827764893  1.0000
  H   H6        1.0  0.6158836323438522  0.9578336179875254  0.723957896416856  1.0000
  H   H7        1.0  0.38411604806306343  0.45782905108272604  0.2760492412118083  1.0000
  H   H8        1.0  0.384042184269383  0.9578391964144829  0.22395428094204567  1.0000
  H   H9        1.0  0.40559314000947205  0.431329937780987  0.8737294598468142  1.0000
  H   H10       1.0  0.405500070784143  0.9313229223887235  0.6262768379255093  1.0000
  H   H11       1.0  0.5944761369020171  0.43132545722751564  0.3737332513656214  1.0000
  H   H12       1.0  0.5944362552394439  0.9313282723264467  0.12627425968250355  1.0000
  H   H13       1.0  0.2409694031320697  0.5833058760942293  0.7292557483138682  1.0000
  H   H14       1.0  0.24094920048704438  0.08331533672012631  0.7707454017025129  1.0000
  H   H15       1.0  0.7590712916183122  0.5833017661461923  0.2292584403905025  1.0000
  H   H16       1.0  0.7589928358538104  0.0833112267098031  0.27074873062916543  1.0000
  H   H17       1.0  0.8838537778856193  0.713529828257677  0.6848887525725689  1.0000
  H   H18       1.0  0.8838542760647315  0.21353764149286295  0.8151243567762309  1.0000
  H   H19       1.0  0.11615688339426103  0.7135193555182655  0.18487235023803814  1.0000
  H   H20       1.0  0.11613712016031029  0.21352506229156631  0.3151251532101541  1.0000
  H   H21       1.0  0.1733213315206754  0.8089056208625183  0.689488425607685  1.0000
  H   H22       1.0  0.173331652276687  0.308913386460688  0.8105137391218735  1.0000
  H   H23       1.0  0.8267275363451035  0.8089023653224815  0.18947488938428592  1.0000
  H   H24       1.0  0.8266669408413706  0.3089059178868609  0.3105199495072668  1.0000
  H   H25       1.0  0.8097847015965416  0.8102625791419273  0.7551907961664597  1.0000
  H   H26       1.0  0.8097906223718924  0.3102703671178802  0.7448132443182305  1.0000
  H   H27       1.0  0.1902584698002485  0.8102466557962065  0.2551747590542491  1.0000
  H   H28       1.0  0.19019600724074343  0.3102642742616056  0.2448169538828395  1.0000
  H   H29       1.0  0.2130086415625527  0.834303668858773  0.8825709555100475  1.0000
  H   H30       1.0  0.2130288265323301  0.33430592584868185  0.6174367243183172  1.0000
  H   H31       1.0  0.7870031514926054  0.8343045369316828  0.3825483056413148  1.0000
  H   H32       1.0  0.7869650841377125  0.33430890050600937  0.11743764307910003  1.0000
  H   H33       1.0  0.4472387383997471  0.7256049909917055  0.07065707897915273  1.0000
  H   H34       1.0  0.44721649324343826  0.2255936229924559  0.4293510809037855  1.0000
  H   H35       1.0  0.5528127042879802  0.7256175269044434  0.5706425474582489  1.0000
  H   H36       1.0  0.5527474028653929  0.22560264804583605  0.929349926127266  1.0000
  H   H37       1.0  0.8431918350115454  0.7567094964789478  0.025934233000711508  1.0000
  H   H38       1.0  0.8431751175188181  0.2566929738002628  0.47407169369854074  1.0000
  H   H39       1.0  0.15685234267195367  0.7567099060922475  0.5259190233170017  1.0000
  H   H40       1.0  0.15680016729016444  0.25669759650556057  0.9740711347991609  1.0000
  H   H41       1.0  0.4938610829563431  0.8354047263298697  0.015870492956622705  1.0000
  H   H42       1.0  0.4938526374799893  0.3353967338544025  0.4841267601232175  1.0000
  H   H43       1.0  0.5061844340112884  0.835410837675781  0.5158544575539141  1.0000
  H   H44       1.0  0.5061101377106781  0.33539933433835495  0.9841285603640274  1.0000
  C   C1        1.0  0.48573539506853797  0.5780467830948341  0.8514240604199301  1.0000
  C   C2        1.0  0.4856994124637027  0.07802970134938653  0.6485814348467401  1.0000
  C   C3        1.0  0.5143006826641212  0.5780287807009543  0.351423634728306  1.0000
  C   C4        1.0  0.5142292420849303  0.0780425946703147  0.14858292018450214  1.0000
  C   C5        1.0  0.5927195328634697  0.4777740194787727  0.8433066733022301  1.0000
  C   C6        1.0  0.5926462302286594  0.9777602971343242  0.6567015927116631  1.0000
  C   C7        1.0  0.4073387635239598  0.4777606914658038  0.3433050832524246  1.0000
  C   C8        1.0  0.4072806575504161  0.9777701409306234  0.15669681783317913  1.0000
  C   C9        1.0  0.3030240936265187  0.6223310811556645  0.7869727906629791  1.0000
  C   C10       1.0  0.3029898950572374  0.12233783811267784  0.7130392005387665  1.0000
  C   C11       1.0  0.6970138660095984  0.6223268314136878  0.28696052594472843  1.0000
  C   C12       1.0  0.6969568729440923  0.12233007750448621  0.21303457967228215  1.0000
  C   C13       1.0  0.19862330764094344  0.7154156785078957  0.7963921674767463  1.0000
  C   C14       1.0  0.1986340673433915  0.21541391190910997  0.7036131212561259  1.0000
  C   C15       1.0  0.801399934940214  0.7154081529357014  0.296382328392447  1.0000
  C   C16       1.0  0.8013423110821661  0.21541691896613466  0.2036160219219383  1.0000
  C   C17       1.0  0.004066275563303601  0.7643960946405033  0.7277252654214906  1.0000
  C   C18       1.0  0.004061372037732299  0.26440135809482274  0.7722820430969934  1.0000
  C   C19       1.0  0.9959637522007155  0.7643847940253824  0.227709378588429  1.0000
  C   C20       1.0  0.9959233909050766  0.2643935684154499  0.2722846290068759  1.0000
  C   C21       1.0  0.28764988721074763  0.7614803204263371  0.8718737852851676  1.0000
  C   C22       1.0  0.2876277319374766  0.26148339023023953  0.6281348956126822  1.0000
  C   C23       1.0  0.7123846540308989  0.761481722663888  0.37185395245595043  1.0000
  C   C24       1.0  0.7123447698922336  0.2614805794543287  0.1281271655999561  1.0000
  C   C25       1.0  0.47068022134681803  0.7145565338845047  0.9345497430039487  1.0000
  C   C26       1.0  0.47066653201549263  0.21454069860472205  0.565453694339894  1.0000
  C   C27       1.0  0.5293497187598392  0.714546991436386  0.43453856266607727  1.0000
  C   C28       1.0  0.5293183008932021  0.21454941278234685  0.06545589090460881  1.0000
  C   C29       1.0  0.5678188423860321  0.7612283414602246  0.0162920386850516  1.0000
  C   C30       1.0  0.5678078362777087  0.2612196424987729  0.4837157551843277  1.0000
  C   C31       1.0  0.4322222724024273  0.7612335841039484  0.5162743646630759  1.0000
  C   C32       1.0  0.43215807909508186  0.26122348080308916  0.983712094884652  1.0000
  Br  Br1       1.0  0.21836267048494312  0.501361443298812  0.09627732245454723  1.0000
  Br  Br2       1.0  0.2181994076222722  0.0013842164669029004  0.4036895160222259  1.0000
  Br  Br3       1.0  0.7817252761423108  0.501382920790725  0.5962862142159367  1.0000
  Br  Br4       1.0  0.7816734541279688  0.0013684788376409007  0.9037143327350208  1.0000
  N   N1        1.0  0.566963566077064  0.6234984045051635  0.9245736226746857  1.0000
  N   N2        1.0  0.566869497185337  0.12348688543234941  0.5754339468699002  1.0000
  N   N3        1.0  0.43311909697445133  0.6234907518806455  0.42456515275899426  1.0000
  N   N4        1.0  0.43305542129969143  0.12349397855163605  0.07542802506846873  1.0000
