data_image0
_chemical_formula_structural       Sr4H44C16N4O28
_chemical_formula_sum              "Sr4 H44 C16 N4 O28"
_cell_length_a       7.245744232007938
_cell_length_b       9.97496373101767
_cell_length_c       11.605173166027416
_cell_angle_alpha    89.99979997551557
_cell_angle_beta     89.99985157660684
_cell_angle_gamma    89.99991858270884

_space_group_name_H-M_alt    "P 1"
_space_group_IT_number       1

loop_
  _space_group_symop_operation_xyz
  'x, y, z'

loop_
  _atom_site_type_symbol
  _atom_site_label
  _atom_site_symmetry_multiplicity
  _atom_site_fract_x
  _atom_site_fract_y
  _atom_site_fract_z
  _atom_site_occupancy
  Sr  Sr1       1.0  0.24983477990515007  0.12454565783245639  0.013952009560341597  1.0000
  Sr  Sr2       1.0  0.7498239470856376  0.3754475938013754  0.9860470208134584  1.0000
  Sr  Sr3       1.0  0.750173913453871  0.6245492641100867  0.4860480757186635  1.0000
  Sr  Sr4       1.0  0.2501656236435181  0.8754536382279523  0.5139529004635149  1.0000
  H   H1        1.0  0.028175273580792696  0.652356275835906  0.9706523302709441  1.0000
  H   H2        1.0  0.5281781253096227  0.8476478601982645  0.029348143234066995  1.0000
  H   H3        1.0  0.9718202501669779  0.15235185513858335  0.5293482604538936  1.0000
  H   H4        1.0  0.4718287553855731  0.3476451753447661  0.47065213427089236  1.0000
  H   H5        1.0  0.21076004681754057  0.6836930121324725  0.78521759110518  1.0000
  H   H6        1.0  0.7107649500952677  0.8163049186983994  0.21478172544490798  1.0000
  H   H7        1.0  0.7892354161748899  0.18369604851085333  0.7147794588366665  1.0000
  H   H8        1.0  0.28924061124469347  0.3163061846753479  0.28521778442222967  1.0000
  H   H9        1.0  0.3596695103024389  0.5779831613668731  0.8421836039166379  1.0000
  H   H10       1.0  0.8596703046466702  0.9220166194110461  0.15781547181615707  1.0000
  H   H11       1.0  0.6403275377583242  0.07798357665732417  0.6578154866040292  1.0000
  H   H12       1.0  0.14032815114223504  0.422015804073041  0.34218285916281127  1.0000
  H   H13       1.0  0.41711861315842214  0.6090394647077486  0.062313200399493986  1.0000
  H   H14       1.0  0.9171217521655423  0.8909472236176366  0.9376831973897308  1.0000
  H   H15       1.0  0.5828804494247848  0.10904782570803208  0.4376826229866494  1.0000
  H   H16       1.0  0.08287744935470438  0.3909606374425393  0.5623140923041205  1.0000
  H   H17       1.0  0.20678394815161028  0.6135767782084185  0.13907051216339988  1.0000
  H   H18       1.0  0.7067887945382837  0.886430179338404  0.8609357042808695  1.0000
  H   H19       1.0  0.7932137255176811  0.11357420430447715  0.3609287443637611  1.0000
  H   H20       1.0  0.29321593622078274  0.38642401469535753  0.6390710775238657  1.0000
  H   H21       1.0  0.1035345779087251  0.12057928165886977  0.27155966428300354  1.0000
  H   H22       1.0  0.6035344671704338  0.3794211398963652  0.7284396026694892  1.0000
  H   H23       1.0  0.8964644623034986  0.6205797718384358  0.22843870954113749  1.0000
  H   H24       1.0  0.3964619964624632  0.8794199706210217  0.7715611683738712  1.0000
  H   H25       1.0  0.9391106792013062  0.1806544067467399  0.19583921836593984  1.0000
  H   H26       1.0  0.43910819457132527  0.3193436603248612  0.804156920840974  1.0000
  H   H27       1.0  0.0608882445401022  0.680656462071404  0.3041572518172941  1.0000
  H   H28       1.0  0.5608856253021487  0.8193456348836246  0.6958405837374074  1.0000
  H   H29       1.0  0.4145351140745319  0.07683861437361367  0.26930875803258647  1.0000
  H   H30       1.0  0.9145376694363205  0.42315947828321027  0.7306900059681282  1.0000
  H   H31       1.0  0.5854640109355459  0.5768434293267786  0.23069060872364833  1.0000
  H   H32       1.0  0.0854642298777151  0.9231616495579541  0.7693097721341714  1.0000
  H   H33       1.0  0.571674488585046  0.011277561583483494  0.1857606438271446  1.0000
  H   H34       1.0  0.07167577409950349  0.4887198856170228  0.8142403980224981  1.0000
  H   H35       1.0  0.42832338341283094  0.5112811983349274  0.31423978134762354  1.0000
  H   H36       1.0  0.9283232378618819  0.9887225209832091  0.6857609067216756  1.0000
  H   H37       1.0  0.25771926272072687  0.1819920428797204  0.7224342362490361  1.0000
  H   H38       1.0  0.7577197618216828  0.3180082181084031  0.2775639196695323  1.0000
  H   H39       1.0  0.7422817240493913  0.6819934966101185  0.777564542164242  1.0000
  H   H40       1.0  0.24228165585554962  0.8180084114344339  0.22243558509142497  1.0000
  H   H41       1.0  0.13519743313991478  0.2827221445116236  0.7977652445267509  1.0000
  H   H42       1.0  0.6351929196326438  0.21727724155867623  0.20223569459474788  1.0000
  H   H43       1.0  0.8648047384535429  0.7827247791171102  0.7022340933045682  1.0000
  H   H44       1.0  0.3648031728544582  0.7172780038421747  0.2977658358055776  1.0000
  C   C1        1.0  0.21379716693442669  0.8140169036572824  0.9773972053511951  1.0000
  C   C2        1.0  0.7137920793620367  0.685982026525835  0.0226021062938173  1.0000
  C   C3        1.0  0.786211844589161  0.3140197212295632  0.5226011768824889  1.0000
  C   C4        1.0  0.28620131355733486  0.18598251510483266  0.4774003797022956  1.0000
  C   C5        1.0  0.17859461528480838  0.6631813202738995  0.960436920442497  1.0000
  C   C6        1.0  0.6785974456173277  0.8368166440517583  0.039564171496841986  1.0000
  C   C7        1.0  0.8214050278345724  0.16318302979467345  0.5395619144173904  1.0000
  C   C8        1.0  0.3214025554680546  0.33681916989045374  0.46043700019211536  1.0000
  C   C9        1.0  0.2706354203764576  0.5840880820194981  0.05728714950702599  1.0000
  C   C10       1.0  0.77064539072947  0.9159077814239608  0.9427172403191475  1.0000
  C   C11       1.0  0.7293623104538868  0.08409526753934668  0.4427130571777694  1.0000
  C   C12       1.0  0.2293620431215047  0.4159090330198579  0.5572851445945018  1.0000
  C   C13       1.0  0.25276302630140185  0.43312515577649424  0.047751126034043495  1.0000
  C   C14       1.0  0.7527805343961661  0.06687310533214227  0.9522530696818519  1.0000
  C   C15       1.0  0.7472285073437561  0.933126897372048  0.4522480332976499  1.0000
  C   C16       1.0  0.24722895627953528  0.5668740030142271  0.5477503625897525  1.0000
  N   N1        1.0  0.22518501140896774  0.6101136664060292  0.8459397480019175  1.0000
  N   N2        1.0  0.7251872637536606  0.8898842494022573  0.15406040690682937  1.0000
  N   N3        1.0  0.7748119743567372  0.11011495940931576  0.6540592461024841  1.0000
  N   N4        1.0  0.27481401457028903  0.3898872887991586  0.3459380204846666  1.0000
  O   O1        1.0  0.2461569621374338  0.8881907684621234  0.8895612393902464  1.0000
  O   O2        1.0  0.7461557942589253  0.6118091305274902  0.11043888160224917  1.0000
  O   O3        1.0  0.75384914533916  0.3881922604743834  0.6104369202719724  1.0000
  O   O4        1.0  0.25383912258892133  0.11180700203441767  0.38956382696945  1.0000
  O   O5        1.0  0.2012067660609205  0.8631587649951837  0.07799824006135479  1.0000
  O   O6        1.0  0.7011994218577299  0.6368361682594068  0.9220019536374833  1.0000
  O   O7        1.0  0.7988152658886635  0.3631619522857007  0.42199854413974686  1.0000
  O   O8        1.0  0.2987906114845202  0.13684227595587115  0.5780004070170363  1.0000
  O   O9        1.0  0.4008141349638094  0.36363910885370376  0.049177198729616095  1.0000
  O   O10       1.0  0.9008273738984443  0.13636401063268977  0.9508233108139873  1.0000
  O   O11       1.0  0.5991830538840118  0.8636349953565199  0.4508238924845783  1.0000
  O   O12       1.0  0.09917646157362008  0.6363620491619101  0.5491781895736095  1.0000
  O   O13       1.0  0.0934806245819786  0.38060074878704586  0.041927206841094695  1.0000
  O   O14       1.0  0.5934952464386852  0.11939567318236037  0.9580763847882705  1.0000
  O   O15       1.0  0.9065110108835129  0.8806033033477754  0.45807814189370066  1.0000
  O   O16       1.0  0.40651138217148747  0.6193964286424388  0.541924304825713  1.0000
  O   O17       1.0  0.043872132325788  0.11622255979521867  0.19516447813741414  1.0000
  O   O18       1.0  0.5438689359018908  0.3837759188745124  0.80483488530718  1.0000
  O   O19       1.0  0.956126916330632  0.6162256850872863  0.30483390875611593  1.0000
  O   O20       1.0  0.45612751928485545  0.8837780052774985  0.6951658726637858  1.0000
  O   O21       1.0  0.4792836078500287  0.08880869885826569  0.19551228780566274  1.0000
  O   O22       1.0  0.9792858802017291  0.4111873213460411  0.8044880948558557  1.0000
  O   O23       1.0  0.5207141138287807  0.5888132815088551  0.30448876640242867  1.0000
  O   O24       1.0  0.020714662200994396  0.9111918648065044  0.6955117191691969  1.0000
  O   O25       1.0  0.24130391074878324  0.2181574359950389  0.801449819318172  1.0000
  O   O26       1.0  0.7412992873543586  0.281840837065694  0.19855094820864846  1.0000
  O   O27       1.0  0.7586983860227434  0.7181591935553723  0.6985497122556621  1.0000
  O   O28       1.0  0.2586966799593781  0.7818416948854929  0.3014495267689766  1.0000
