data_image0
_chemical_formula_structural       Cd2H32C32Br4N4O8
_chemical_formula_sum              "Cd2 H32 C32 Br4 N4 O8"
_cell_length_a       7.200310744254884
_cell_length_b       10.27174405478174
_cell_length_c       14.263793940106595
_cell_angle_alpha    75.31293009144991
_cell_angle_beta     75.38997527695308
_cell_angle_gamma    69.48374591560986

_space_group_name_H-M_alt    "P 1"
_space_group_IT_number       1

loop_
  _space_group_symop_operation_xyz
  'x, y, z'

loop_
  _atom_site_type_symbol
  _atom_site_label
  _atom_site_symmetry_multiplicity
  _atom_site_fract_x
  _atom_site_fract_y
  _atom_site_fract_z
  _atom_site_occupancy
  Cd  Cd1       1.0  0.15790857103949216  0.2501575503222996  0.7499780632815529  1.0000
  Cd  Cd2       1.0  0.8421183816266266  0.7498188951628321  0.25002568576564965  1.0000
  H   H1        1.0  0.61739906117392  0.3023040380231379  0.6181463090050202  1.0000
  H   H2        1.0  0.5379358756124331  0.19754172720737276  0.8817732062609951  1.0000
  H   H3        1.0  0.38260807088875043  0.6976924738949677  0.3818573670466138  1.0000
  H   H4        1.0  0.4620619384602236  0.8024590814005707  0.11822160820923246  1.0000
  H   H5        1.0  0.685866452561399  0.5527366806079357  0.4579404593818667  1.0000
  H   H6        1.0  0.6965717502865585  0.9471919336404897  0.04205781487294763  1.0000
  H   H7        1.0  0.3141389641826605  0.4472608899751549  0.5420629021005681  1.0000
  H   H8        1.0  0.3034136589197162  0.0528120268906918  0.9579390098844628  1.0000
  H   H9        1.0  0.5422316076566814  0.5614623358630696  0.5781200181431887  1.0000
  H   H10       1.0  0.6816903213214405  0.9383864334761687  0.9219021501647546  1.0000
  H   H11       1.0  0.4577745974388634  0.43853629036875924  0.4218833974980925  1.0000
  H   H12       1.0  0.31829944548918837  0.061613295411326895  0.07809556414140677  1.0000
  H   H13       1.0  0.6086705064351675  0.1442978361382785  0.5497757815025751  1.0000
  H   H14       1.0  0.30240320108153923  0.35533382177109013  0.9504697230136189  1.0000
  H   H15       1.0  0.39132842484762165  0.8557018620183998  0.4502256963319837  1.0000
  H   H16       1.0  0.697581120719008  0.6446690572182233  0.04953022198250791  1.0000
  H   H17       1.0  0.7429349392142229  0.99100014959528  0.41925696030849496  1.0000
  H   H18       1.0  0.15310985744488198  0.5084253577566287  0.08112239603764242  1.0000
  H   H19       1.0  0.2570582949587746  0.009002731783702703  0.5807426880370485  1.0000
  H   H20       1.0  0.8468828037512142  0.49157116503166526  0.9188799534270375  1.0000
  H   H21       1.0  0.0278126523626695  0.03100232878339431  0.28498913171701906  1.0000
  H   H22       1.0  0.34438583128716976  0.46861951035566574  0.21512060268940306  1.0000
  H   H23       1.0  0.9721852533711234  0.968995250848465  0.7150131235812369  1.0000
  H   H24       1.0  0.6556138516219577  0.531375973628272  0.7848796244030326  1.0000
  H   H25       1.0  0.16551941643317752  0.2258170848015268  0.283974864474736  1.0000
  H   H26       1.0  0.6763641777683203  0.274147460964592  0.21574528558154796  1.0000
  H   H27       1.0  0.834478952784181  0.7741794376734745  0.7160275210286856  1.0000
  H   H28       1.0  0.32363774579970805  0.7258448702145587  0.7842530435102476  1.0000
  H   H29       1.0  0.011879629648383652  0.3743483360223011  0.4137415863772347  1.0000
  H   H30       1.0  0.8006834558252152  0.12584409325059204  0.08588977646969212  1.0000
  H   H31       1.0  0.9881235206231053  0.6256503004531311  0.58626057475459  1.0000
  H   H32       1.0  0.19930567216106046  0.874154592934737  0.9141062964788347  1.0000
  C   C1        1.0  0.8782391962961571  0.3554413586522287  0.613637158236955  1.0000
  C   C2        1.0  0.8473859114082101  0.1443972244564691  0.8862789038454582  1.0000
  C   C3        1.0  0.12176178608462622  0.6445625765540657  0.3863627646702241  1.0000
  C   C4        1.0  0.152610866203986  0.8555982827176509  0.1137184815387258  1.0000
  C   C5        1.0  0.716312463698117  0.35440282580349697  0.5605412693430766  1.0000
  C   C6        1.0  0.6313955613113579  0.14546877711001122  0.9393676624676744  1.0000
  C   C7        1.0  0.28369172702457496  0.6455968332001731  0.4394650061265679  1.0000
  C   C8        1.0  0.3685960703450066  0.8545299060590636  0.06062877920890497  1.0000
  C   C9        1.0  0.5902417422592166  0.5013601667799178  0.5180155203951672  1.0000
  C   C10       1.0  0.6096549889257835  0.9985703343225151  0.9819660348346063  1.0000
  C   C11       1.0  0.4097617219687209  0.4986373995920771  0.48198835814061175  1.0000
  C   C12       1.0  0.3903345515987908  0.0014315145979110994  0.018030717643831965  1.0000
  C   C13       1.0  0.7283535445386279  0.15876820170708333  0.4874794778441969  1.0000
  C   C14       1.0  0.3746412265890129  0.3409821945118594  0.012621124554776554  1.0000
  C   C15       1.0  0.2716481385232328  0.8412357392184334  0.5125197436456048  1.0000
  C   C16       1.0  0.6253485402216157  0.6590175343756287  0.987376589751385  1.0000
  C   C17       1.0  0.8056576990713749  0.0744550197904132  0.41623798925876815  1.0000
  C   C18       1.0  0.2965276924773122  0.42519764800975673  0.08393256186971605  1.0000
  C   C19       1.0  0.1943366992662661  0.9255468101509334  0.5837610878745779  1.0000
  C   C20       1.0  0.7034678591135093  0.5747999475849355  0.916067737501692  1.0000
  C   C21       1.0  0.9654527859496228  0.09656926945412181  0.34164011300173086  1.0000
  C   C22       1.0  0.40419075144047395  0.403163810367417  0.15840122689956368  1.0000
  C   C23       1.0  0.03454653205780278  0.9034315045252016  0.6583589460114966  1.0000
  C   C24       1.0  0.5958091686661716  0.5968327364926083  0.8415981685703288  1.0000
  C   C25       1.0  0.04151881358326661  0.20463474122109915  0.3406383865924099  1.0000
  C   C26       1.0  0.5875534153259705  0.295315914483453  0.15918976512625707  1.0000
  C   C27       1.0  0.9584833220506969  0.7953649596385405  0.6593627585528311  1.0000
  C   C28       1.0  0.41244744265927835  0.704681700971868  0.8408080973037075  1.0000
  C   C29       1.0  0.9591298218920202  0.28736578604271307  0.4127752466384253  1.0000
  C   C30       1.0  0.659845718396568  0.21272163489930307  0.08696577889112703  1.0000
  C   C31       1.0  0.04087058751186139  0.7126317905728997  0.5872273773878902  1.0000
  C   C32       1.0  0.34014911761096284  0.7872770509727405  0.9130303300961345  1.0000
  Br  Br1       1.0  0.495110029299198  0.043878279345371106  0.731839981614499  1.0000
  Br  Br2       1.0  0.27083387091614264  0.45625539576129637  0.7682905421934194  1.0000
  Br  Br3       1.0  0.5049916506605289  0.9561499413259896  0.2681604730180355  1.0000
  Br  Br4       1.0  0.72912270673239  0.5437643959746555  0.2317075440930339  1.0000
  N   N1        1.0  0.8059039643183898  0.2626467815413422  0.4849631069811481  1.0000
  N   N2        1.0  0.5537448203124243  0.23727545958603716  0.014938123619373394  1.0000
  N   N3        1.0  0.1940999852160487  0.7373560934918403  0.5150373148592565  1.0000
  N   N4        1.0  0.446249639881941  0.762725333372373  0.9850586107389534  1.0000
  O   O1        1.0  0.0211656278286228  0.23893529112154974  0.6262896764433351  1.0000
  O   O2        1.0  0.886322746023481  0.26092900978168393  0.8735318288796281  1.0000
  O   O3        1.0  0.9788310886089346  0.7610696467523541  0.3737167977431144  1.0000
  O   O4        1.0  0.1136807542475041  0.7390654326949361  0.1264666085298742  1.0000
  O   O5        1.0  0.8529164054136517  0.46434666758030835  0.6456355478046378  1.0000
  O   O6        1.0  0.9629688871550856  0.035453820994860094  0.8543817547725755  1.0000
  O   O7        1.0  0.1470916354053032  0.5356614986431013  0.3543635576312738  1.0000
  O   O8        1.0  0.03703710587452494  0.9645374355564799  0.14561884481526022  1.0000
