data_image0
_chemical_formula_structural       Zn2H28C36I4N8O4
_chemical_formula_sum              "Zn2 H28 C36 I4 N8 O4"
_cell_length_a       6.6900812500110485
_cell_length_b       12.375535294773274
_cell_length_c       13.47147630789209
_cell_angle_alpha    114.44489804293248
_cell_angle_beta     90.00016888535214
_cell_angle_gamma    89.99981249550757

_space_group_name_H-M_alt    "P 1"
_space_group_IT_number       1

loop_
  _space_group_symop_operation_xyz
  'x, y, z'

loop_
  _atom_site_type_symbol
  _atom_site_label
  _atom_site_symmetry_multiplicity
  _atom_site_fract_x
  _atom_site_fract_y
  _atom_site_fract_z
  _atom_site_occupancy
  Zn  Zn1       1.0  0.605855889529252  0.49999880397629687  0.7499984007774574  1.0000
  Zn  Zn2       1.0  0.39414691342561525  0.5000004107164671  0.25000060925557926  1.0000
  H   H1        1.0  0.5520091524134331  0.84943575425514  0.658180358409837  1.0000
  H   H2        1.0  0.5520043830724646  0.15056637305912093  0.8418217887590418  1.0000
  H   H3        1.0  0.4479981347981409  0.1505625765181904  0.34181980176141746  1.0000
  H   H4        1.0  0.44799991462917893  0.849434616852122  0.158177893040481  1.0000
  H   H5        1.0  0.48771151636836413  0.6581653700673372  0.6420579098982416  1.0000
  H   H6        1.0  0.4877071683411033  0.3418350625527466  0.8579412781499158  1.0000
  H   H7        1.0  0.5122912865898854  0.341832069405946  0.35794042836898404  1.0000
  H   H8        1.0  0.5122896556029914  0.6581694778024599  0.14205974717783226  1.0000
  H   H9        1.0  0.2995503394216286  0.6216069786386456  0.9195122885576127  1.0000
  H   H10       1.0  0.29955004571543503  0.37839192877557076  0.5804853140299215  1.0000
  H   H11       1.0  0.7004599372840727  0.3783957920280373  0.08049029403906625  1.0000
  H   H12       1.0  0.7004557467385835  0.6216055070023997  0.4195115382195667  1.0000
  H   H13       1.0  0.05845574082488981  0.7895972434870446  0.9678183943102638  1.0000
  H   H14       1.0  0.0584621596043249  0.21040287424938955  0.5321793254584933  1.0000
  H   H15       1.0  0.9415470621243787  0.2104073005574706  0.03218411703929293  1.0000
  H   H16       1.0  0.9415451276100484  0.7895927918480583  0.4678190840544972  1.0000
  H   H17       1.0  0.034621237847822804  0.8970426611840523  0.8430204892480334  1.0000
  H   H18       1.0  0.034621606315624796  0.10295748661343399  0.6569764658873893  1.0000
  H   H19       1.0  0.9653800703540371  0.10295566220666069  0.1569766988823318  1.0000
  H   H20       1.0  0.9653811966477477  0.8970408460095527  0.3430244372913762  1.0000
  H   H21       1.0  0.2196851756460632  0.8556479545913122  0.449501604410621  1.0000
  H   H22       1.0  0.21967566925862775  0.1443522090705471  0.0504976339343273  1.0000
  H   H23       1.0  0.7803161325580703  0.14435037064605183  0.5504963267292879  1.0000
  H   H24       1.0  0.7803166704344164  0.8556514418312705  0.9495023124989433  1.0000
  H   H25       1.0  0.7217749371137573  0.022615668754497203  0.655374750142535  1.0000
  H   H26       1.0  0.7217696018158082  0.9773897780659555  0.8446274085386708  1.0000
  H   H27       1.0  0.27822637109660775  0.9773817725664385  0.3446243311335594  1.0000
  H   H28       1.0  0.2782197483695724  0.0226165338204325  0.15537280253241192  1.0000
  C   C1        1.0  0.2585452788913187  0.7863016468339835  0.733675896695523  1.0000
  C   C2        1.0  0.25853517561827744  0.21369731362743496  0.7663209256810007  1.0000
  C   C3        1.0  0.741456029324695  0.21369402111412233  0.2663232558243038  1.0000
  C   C4        1.0  0.7414526798350137  0.7863019010753337  0.23367808434525736  1.0000
  C   C5        1.0  0.39094300043640834  0.6926142005602075  0.7138624624139284  1.0000
  C   C6        1.0  0.39094440242422485  0.30738725288848917  0.7861384597569697  1.0000
  C   C7        1.0  0.6090598025156098  0.3073841228295038  0.2861347257171118  1.0000
  C   C8        1.0  0.6090569057811166  0.6926164072405925  0.2138652017280904  1.0000
  C   C9        1.0  0.2839059781985753  0.6705056411909283  0.8685336454027849  1.0000
  C   C10       1.0  0.2839122756556876  0.32949329269958844  0.6314661720248722  1.0000
  C   C11       1.0  0.7160983194996858  0.3294971239397952  0.13146670816254874  1.0000
  C   C12       1.0  0.7160920220584261  0.6705059293787913  0.36853581004702113  1.0000
  C   C13       1.0  0.14855315519783832  0.763573404536622  0.89412455637207  1.0000
  C   C14       1.0  0.1485583714298429  0.23642214716547727  0.6058685936737264  1.0000
  C   C15       1.0  0.8514496477632606  0.23642492623970665  0.10587560379715201  1.0000
  C   C16       1.0  0.8514444315227012  0.7635735097017002  0.39412610078950644  1.0000
  C   C17       1.0  0.1347950856349271  0.8219558025699027  0.825533544385408  1.0000
  C   C18       1.0  0.13479958535543096  0.17804599558995451  0.6744678884363609  1.0000
  C   C19       1.0  0.865204727817357  0.17804341027819956  0.1744647226367277  1.0000
  C   C20       1.0  0.8652062071145394  0.8219550090935288  0.3255377374401932  1.0000
  C   C21       1.0  0.2465793861449157  0.8482664941289569  0.6593277091227067  1.0000
  C   C22       1.0  0.24655517086814174  0.15173427789152782  0.8406779472635719  1.0000
  C   C23       1.0  0.7534159430455319  0.1517327094888756  0.3406668428496644  1.0000
  C   C24       1.0  0.7534341793546417  0.8482667304962703  0.159329164624623  1.0000
  C   C25       1.0  0.4637092198382575  0.933163931083719  0.5603026782815945  1.0000
  C   C26       1.0  0.4636995845731419  0.06684097910348188  0.9397011394436064  1.0000
  C   C27       1.0  0.5362965726231579  0.0668343996906131  0.43969748188898455  1.0000
  C   C28       1.0  0.5363017236151962  0.9331644451651541  0.060298735749988404  1.0000
  C   C29       1.0  0.3402964380496912  0.9199322257008475  0.47208547860968514  1.0000
  C   C30       1.0  0.34029466096646394  0.0800686604281609  0.027912719012967102  1.0000
  C   C31       1.0  0.6596944069157545  0.0800607757317238  0.5279111802375951  1.0000
  C   C32       1.0  0.6596902049605758  0.9199429789663255  0.9720902503630457  1.0000
  C   C33       1.0  0.6239284124247388  0.0131604415440805  0.587382686720133  1.0000
  C   C34       1.0  0.6239279201791206  0.9868424715696309  0.9126176325452493  1.0000
  C   C35       1.0  0.376071401017292  0.9868369850046148  0.41261045047892253  1.0000
  C   C36       1.0  0.37606143003178266  0.013161194107425398  0.08738825796302048  1.0000
  I   I1        1.0  0.7905168897250335  0.4670492774530431  0.5753662868936545  1.0000
  I   I2        1.0  0.7905162634217787  0.5329489727785343  0.9246317610654061  1.0000
  I   I3        1.0  0.20947993422297634  0.5329508211601492  0.42463157300048243  1.0000
  I   I4        1.0  0.2094760762961485  0.4670475864786284  0.07536921335234585  1.0000
  N   N1        1.0  0.4297473942046324  0.8679232887623909  0.6232014885448933  1.0000
  N   N2        1.0  0.42974594205855965  0.1320825507953387  0.8768011482399558  1.0000
  N   N3        1.0  0.5702464402435866  0.13207414333027148  0.37679387768007905  1.0000
  N   N4        1.0  0.5702434081472632  0.8679237777109421  0.12320574991702671  1.0000
  N   N5        1.0  0.4029133354116111  0.6364415923701757  0.7802907505236548  1.0000
  N   N6        1.0  0.4029124912117866  0.36355628538490964  0.7197051239255643  1.0000
  N   N7        1.0  0.5970894675478037  0.3635576260158971  0.21970974552846914  1.0000
  N   N8        1.0  0.5970858274835251  0.6364429219242355  0.2802909140672583  1.0000
  O   O1        1.0  0.0855811686235626  0.8813918720580105  0.6360521079198166  1.0000
  O   O2        1.0  0.08559616249401361  0.1186126400260576  0.8639443438355273  1.0000
  O   O3        1.0  0.9144320975993596  0.11860202250927188  0.3639471158491716  1.0000
  O   O4        1.0  0.914417103716552  0.8813901343319375  0.13605972478159614  1.0000
