data_image0
_chemical_formula_structural       Dy4H48C44O32
_chemical_formula_sum              "Dy4 H48 C44 O32"
_cell_length_a       5.796202942
_cell_length_b       13.271691851724407
_cell_length_c       15.5301
_cell_angle_alpha    94.20945501944634
_cell_angle_beta     90.0
_cell_angle_gamma    90.0

_space_group_name_H-M_alt    "P 1"
_space_group_IT_number       1

loop_
  _space_group_symop_operation_xyz
  'x, y, z'

loop_
  _atom_site_type_symbol
  _atom_site_label
  _atom_site_symmetry_multiplicity
  _atom_site_fract_x
  _atom_site_fract_y
  _atom_site_fract_z
  _atom_site_occupancy
  Dy  Dy1       1.0  0.4399621658381889  0.6338788023160333  0.5828785016040711  1.0000
  Dy  Dy2       1.0  0.9399636373187549  0.8661208379423826  0.9171213792432695  1.0000
  Dy  Dy3       1.0  0.5600373265881444  0.3661257428260569  0.41711849956024577  1.0000
  Dy  Dy4       1.0  0.0600410309097867  0.1338753964626633  0.0828815397100229  1.0000
  H   H1        1.0  0.6901621699635782  0.7141454117213968  0.7428075455435135  1.0000
  H   H2        1.0  0.19016069848301242  0.7858527174939169  0.7571922405184421  1.0000
  H   H3        1.0  0.3098407729975605  0.2858530892482989  0.257194227766135  1.0000
  H   H4        1.0  0.8098474202803345  0.2141472945188738  0.2428083397548733  1.0000
  H   H5        1.0  0.8747968369531236  0.7178565335719185  0.6666834572873697  1.0000
  H   H6        1.0  0.3747988160073632  0.7821408401218477  0.8333169252927561  1.0000
  H   H7        1.0  0.1252009302057999  0.2821465005270767  0.33331731255670854  1.0000
  H   H8        1.0  0.6252110280233865  0.217853883240096  0.1666846110534337  1.0000
  H   H9        1.0  0.8996113580179071  0.6890296088555985  0.49506366187760154  1.0000
  H   H10       1.0  0.3996116118047439  0.8109722979674672  0.0049376489695234105  1.0000
  H   H11       1.0  0.10039158494323171  0.3109741807649442  0.5049365114483138  1.0000
  H   H12       1.0  0.6003913311563949  0.189025447480681  0.9950634330365702  1.0000
  H   H13       1.0  0.796003874634522  0.5880005117519147  0.459115379201549  1.0000
  H   H14       1.0  0.296002403153949  0.9120013950711439  0.04088399991300661  1.0000
  H   H15       1.0  0.2039990683266169  0.4120017668255258  0.540882767606412  1.0000
  H   H16       1.0  0.7040005398071827  0.08799786142009941  0.9591184647001894  1.0000
  H   H17       1.0  0.0855818895514417  0.9638248847072717  0.6463730408921577  1.0000
  H   H18       1.0  0.5855799104972021  0.5361747555511371  0.8536242643117619  1.0000
  H   H19       1.0  0.9144176028748845  0.0361781493917164  0.35362644113020986  1.0000
  H   H20       1.0  0.4144247577313322  0.46382072333235413  0.1463734559619851  1.0000
  H   H21       1.0  0.8835957007110622  0.880751512745988  0.5961332913461845  1.0000
  H   H22       1.0  0.3835907786956838  0.6192473719908804  0.9038633225541801  1.0000
  H   H23       1.0  0.1164055169826739  0.1192515213530001  0.4038649028544654  1.0000
  H   H24       1.0  0.6164087137306424  0.38074810689261795  0.09613375380870079  1.0000
  H   H25       1.0  0.51292544960031  0.30723963774639174  0.7108837936046868  1.0000
  H   H26       1.0  0.0129274286545495  0.19276074602078103  0.7891187739163144  1.0000
  H   H27       1.0  0.48707231755861363  0.692760374266399  0.2891116353817722  1.0000
  H   H28       1.0  0.9870686132369711  0.8072347328627174  0.2108860293768515  1.0000
  H   H29       1.0  0.087503837438959  0.9024319591267869  0.45146716785533403  1.0000
  H   H30       1.0  0.5875053089195319  0.5975669256100744  0.04853008995588231  1.0000
  H   H31       1.0  0.9124922044525619  0.0975740970583985  0.5485305720052196  1.0000
  H   H32       1.0  0.4124872824371835  0.4024240201441245  0.9514686337834277  1.0000
  H   H33       1.0  0.2647664368132823  0.9948299780504328  0.5047618800385862  1.0000
  H   H34       1.0  0.7647592819568344  0.5051681511648809  0.9952340425582378  1.0000
  H   H35       1.0  0.7352313303456413  0.005175322613205001  0.4952377441618552  1.0000
  H   H36       1.0  0.23522640833027  0.4948235501108655  0.004763440752050504  1.0000
  H   H37       1.0  0.2052015797068663  0.4748407606515102  0.8421239977444301  1.0000
  H   H38       1.0  0.7052013259200365  0.0251566010294653  0.6578790241166672  1.0000
  H   H39       1.0  0.7947892863824464  0.5251607624043828  0.1578734577599832  1.0000
  H   H40       1.0  0.2948016170411023  0.9748434109833255  0.3421241318000767  1.0000
  H   H41       1.0  0.6087071200413448  0.2837920264616045  0.8629155145521494  1.0000
  H   H42       1.0  0.10870564856077891  0.2162053352193638  0.6370868633980888  1.0000
  H   H43       1.0  0.3912906471175788  0.7162026969003392  0.137080226596332  1.0000
  H   H44       1.0  0.8912869427959363  0.7837916547072297  0.36291739076960267  1.0000
  H   H45       1.0  0.9643761710785199  0.3635796352046725  0.9295098966165084  1.0000
  H   H46       1.0  0.4643764248653497  0.1364177264763029  0.5704899056903014  1.0000
  H   H47       1.0  0.0356233213478134  0.636417354721921  0.0704840549774701  1.0000
  H   H48       1.0  0.5356247928283793  0.8635815300149403  0.4295132028337533  1.0000
  C   C1        1.0  0.7404657916479138  0.4044813053230669  0.5964666804166328  1.0000
  C   C2        1.0  0.2404694959695561  0.0955205894872009  0.9035346940680354  1.0000
  C   C3        1.0  0.2595250744413988  0.5955255063836731  0.4035311068366169  1.0000
  C   C4        1.0  0.7595351722589854  0.9044786670040423  0.09646841445601238  1.0000
  C   C5        1.0  0.2240225218118326  0.8234096937132378  0.6007172157302207  1.0000
  C   C6        1.0  0.7240153669553849  0.676589946545171  0.8992807333845506  1.0000
  C   C7        1.0  0.7759821464167089  0.1765948514288453  0.3992778537015268  1.0000
  C   C8        1.0  0.275987576005754  0.3234062878598749  0.1007215416578831  1.0000
  C   C9        1.0  0.8077736488613071  0.4012182077513273  0.6895389181273116  1.0000
  C   C10       1.0  0.3077773531829493  0.09878293153739291  0.8104617650538088  1.0000
  C   C11       1.0  0.1922223930302138  0.5987870929123105  0.3104549108754142  1.0000
  C   C12       1.0  0.6922324908478005  0.9012170804753978  0.1895420347737939  1.0000
  C   C13       1.0  0.0605827648744892  0.909330626394116  0.58998015468606  1.0000
  C   C14       1.0  0.5605790605528469  0.5906667472996503  0.9100182961614962  1.0000
  C   C15       1.0  0.9394115517496288  0.090674674269529  0.4100188256035224  1.0000
  C   C16       1.0  0.43941525607127124  0.4093257094976437  0.0899818101849092  1.0000
  C   C17       1.0  0.0013664117835859  0.4503996385292979  0.7278162967052921  1.0000
  C   C18       1.0  0.5013678832641517  0.0495999897163273  0.7721862234230199  1.0000
  C   C19       1.0  0.9986210037709213  0.5496018845265951  0.2721798709774106  1.0000
  C   C20       1.0  0.4986367849643898  0.9504022888611132  0.22781900640436697  1.0000
  C   C21       1.0  0.6654615165474311  0.3435598251893878  0.7397762259704166  1.0000
  C   C22       1.0  0.165461770334268  0.1564390475346826  0.7602256028543479  1.0000
  C   C23       1.0  0.3345310748092842  0.656441697866498  0.2602205856231379  1.0000
  C   C24       1.0  0.8345377220920653  0.8435602089565606  0.2397787934914177  1.0000
  C   C25       1.0  0.0924967613047372  0.9602618450804314  0.5059836655255694  1.0000
  C   C26       1.0  0.5924965075179074  0.5397377951779845  0.9940136396783501  1.0000
  C   C27       1.0  0.9075010058541864  0.0397434555832064  0.494015958674872  1.0000
  C   C28       1.0  0.40749608383881514  0.4602561726624117  0.005984629720870803  1.0000
  C   C29       1.0  0.1547081786081463  0.5154659098828347  0.6787925425221815  1.0000
  C   C30       1.0  0.6547113753561149  0.9845337303755811  0.8212079822360181  1.0000
  C   C31       1.0  0.8452913138181799  0.48453636869460576  0.3212049603749206  1.0000
  C   C32       1.0  0.3453036444768429  0.015465526115661998  0.1787938384663192  1.0000
  C   C33       1.0  0.0533366417797154  0.43694077764877187  0.8144614992710331  1.0000
  C   C34       1.0  0.5533363879928856  0.0630588505968532  0.6855403769464203  1.0000
  C   C35       1.0  0.9466559495769999  0.5630630119717708  0.18553738623316457  1.0000
  C   C36       1.0  0.4466717307704613  0.9369426724590397  0.3144628737557085  1.0000
  C   C37       1.0  0.7195762539261352  0.3309539481381094  0.8258278044728158  1.0000
  C   C38       1.0  0.2195747824455694  0.1690456801075158  0.6741753595663552  1.0000
  C   C39       1.0  0.280430139569809  0.6690490859608857  0.1741716775495519  1.0000
  C   C40       1.0  0.7804229847133612  0.8309528208621798  0.325827057654152  1.0000
  C   C41       1.0  0.916831251972404  0.3762859966220233  0.863228821186162  1.0000
  C   C42       1.0  0.4168332310266436  0.1237128761020472  0.6367736515494542  1.0000
  C   C43       1.0  0.0831527130472907  0.6237155264338696  0.13676541476396406  1.0000
  C   C44       1.0  0.5831645361322799  0.8762886469538458  0.3632321747960958  1.0000
  O   O1        1.0  0.6128305091357547  0.4752630971976046  0.5723962710326944  1.0000
  O   O2        1.0  0.1128290376551817  0.024737286569561  0.927604364755737  1.0000
  O   O3        1.0  0.3871741590927869  0.5247384258582812  0.4276024722934295  1.0000
  O   O4        1.0  0.8871739053059571  0.9752597033570325  0.0723953820359569  1.0000
  O   O5        1.0  0.4224110205422136  0.8182207717121486  0.5677415788157062  1.0000
  O   O6        1.0  0.9224107667553767  0.6817773575031651  0.9322575633353979  1.0000
  O   O7        1.0  0.5775798455470991  0.1817830179083941  0.4322540871342113  1.0000
  O   O8        1.0  0.0775887256709495  0.31821509929412883  0.0677457625652949  1.0000
  O   O9        1.0  0.7206769745295817  0.6905225194371595  0.6819796741465112  1.0000
  O   O10       1.0  0.2206737777816059  0.8094733432135115  0.8180206136482296  1.0000
  O   O11       1.0  0.2793225178967518  0.3094797591402809  0.31802040439401935  1.0000
  O   O12       1.0  0.7793308904469356  0.1905213801484393  0.18198156660881884  1.0000
  O   O13       1.0  0.1530018891460685  0.7486123048037854  0.644972175741394  1.0000
  O   O14       1.0  0.6529981848244262  0.7513880909761781  0.8550283964094945  1.0000
  O   O15       1.0  0.8469976032802649  0.2513914848167573  0.35502606585194474  1.0000
  O   O16       1.0  0.3470064834041153  0.2486104099935176  0.1449778842761518  1.0000
  O   O17       1.0  0.7503360464634312  0.6544010341616442  0.48947165472588944  1.0000
  O   O18       1.0  0.2503380255176708  0.8456001171398668  0.010529608728546701  1.0000
  O   O19       1.0  0.2496668964977005  0.34559973337270117  0.5105283290292562  1.0000
  O   O20       1.0  0.7496666427108708  0.1543998948729239  0.9894729032773382  1.0000
  O   O21       1.0  0.1264034415860493  0.5174944852428993  0.5960394498515456  1.0000
  O   O22       1.0  0.6264049130666223  0.9825028884508668  0.9039609327285801  1.0000
  O   O23       1.0  0.8736012266424851  0.48250628229144615  0.4039560265276094  1.0000
  O   O24       1.0  0.3736118320337454  0.0174948569972742  0.0960407931883722  1.0000
  O   O25       1.0  0.3124700805205194  0.5682632667961016  0.7164796196408361  1.0000
  O   O26       1.0  0.8124715520010853  0.9317378845054093  0.7835216438136  1.0000
  O   O27       1.0  0.6875328624406194  0.4317397673028863  0.2835198623815245  1.0000
  O   O28       1.0  0.18753829202966443  0.0682628830289289  0.2164796277632632  1.0000
  O   O29       1.0  0.7913094220295491  0.3299581707360346  0.5434683820973092  1.0000
  O   O30       1.0  0.2913079505489833  0.1700452351173354  0.9565350189053133  1.0000
  O   O31       1.0  0.20869007039677712  0.6700478854491578  0.45652935776324444  1.0000
  O   O32       1.0  0.7086898166099473  0.8299525103308056  0.04347121438764389  1.0000
