data_image0
_chemical_formula_structural       Zn4H66C66N16O3
_chemical_formula_sum              "Zn4 H66 C66 N16 O3"
_cell_length_a       14.819465259377983
_cell_length_b       14.952710265917615
_cell_length_c       14.974470376500994
_cell_angle_alpha    69.58957243185351
_cell_angle_beta     73.19488819573822
_cell_angle_gamma    111.02744890205713

_space_group_name_H-M_alt    "P 1"
_space_group_IT_number       1

loop_
  _space_group_symop_operation_xyz
  'x, y, z'

loop_
  _atom_site_type_symbol
  _atom_site_label
  _atom_site_symmetry_multiplicity
  _atom_site_fract_x
  _atom_site_fract_y
  _atom_site_fract_z
  _atom_site_occupancy
  Zn  Zn1       1.0  0.15264965279600762  0.6365460295474606  0.9907637071440688  1.0000
  Zn  Zn2       1.0  0.8708072845895529  0.3727625190722463  0.992662060669609  1.0000
  Zn  Zn3       1.0  0.0041689263090559986  0.6391976474160471  0.8666764350643561  1.0000
  Zn  Zn4       1.0  0.997869529859372  0.3628380606713507  0.1340165585304901  1.0000
  H   H1        1.0  0.9966146792665  0.3256854593262659  0.8204858726526113  1.0000
  H   H2        1.0  0.02111873263021369  0.5827671607087054  0.5572851390244368  1.0000
  H   H3        1.0  0.6468893931791085  0.3262911603583305  0.16474879376939103  1.0000
  H   H4        1.0  0.9422063476641329  0.43803246620321806  0.615717975469849  1.0000
  H   H5        1.0  0.014020073715052072  0.32139897365346565  0.5118956343535502  1.0000
  H   H6        1.0  0.020628398658196444  0.3193774776805824  0.6644238426916617  1.0000
  H   H7        1.0  0.3024380420653542  0.5578395944114546  0.3620323510749018  1.0000
  H   H8        1.0  0.27400322310192843  0.6644695879941408  0.3110663009849546  1.0000
  H   H9        1.0  0.23198282849266139  0.6734095821761841  0.46907404554674775  1.0000
  H   H10       1.0  0.28916291984832293  0.5899050764738121  0.5060778647555039  1.0000
  H   H11       1.0  0.1525985572436141  0.35523057225971383  0.46115106442520926  1.0000
  H   H12       1.0  0.16116979473847673  0.9041323110329244  0.6652568386955269  1.0000
  H   H13       1.0  0.6423315571631605  0.2864229505824056  0.5042513746472608  1.0000
  H   H14       1.0  0.8240561083441379  0.684637066773746  0.7873706007916608  1.0000
  H   H15       1.0  0.33494659769565516  0.9482286057229743  0.46227542336090016  1.0000
  H   H16       1.0  0.2690405178721349  0.027995784837216292  0.45334704529079056  1.0000
  H   H17       1.0  0.5002306740219282  0.10587839548607289  0.2885801747132676  1.0000
  H   H18       1.0  0.4347862086770817  0.18621763950867629  0.2792514542161584  1.0000
  H   H19       1.0  0.3488196701213652  0.32280198985372976  0.8977735106257114  1.0000
  H   H20       1.0  0.5175912639682068  0.32929276905925786  0.8886905177174784  1.0000
  H   H21       1.0  0.6811964937831546  0.7398115809210637  0.8215823296381192  1.0000
  H   H22       1.0  0.7327573087654145  0.7780938730077266  0.6822296116297721  1.0000
  H   H23       1.0  0.9187857661184041  0.0905553925057276  0.2468344830292395  1.0000
  H   H24       1.0  0.5092010165760001  0.7333343469585927  0.8293628853587832  1.0000
  H   H25       1.0  0.020652487503120678  0.3179018330897136  0.353660575628993  1.0000
  H   H26       1.0  0.5589060954263942  0.771546130726776  0.6900886961732978  1.0000
  H   H27       1.0  0.7852097141945575  0.787162287212645  0.042496936917409286  1.0000
  H   H28       1.0  0.0058731547100591445  0.9815884463568381  0.2520086098042426  1.0000
  H   H29       1.0  0.871235842672142  0.8893930379191914  0.3652597643342617  1.0000
  H   H30       1.0  0.021239597236451743  0.8182818825988177  0.2603461128840865  1.0000
  H   H31       1.0  0.8834779307693236  0.726621415846047  0.3662808299689645  1.0000
  H   H32       1.0  0.6566204131184249  0.32611807411804244  0.9404457345431183  1.0000
  H   H33       1.0  0.24683335711876  0.6724460038884743  0.16129789020703103  1.0000
  H   H34       1.0  0.8097874426667673  0.1298843577582858  0.00432126643809031  1.0000
  H   H35       1.0  0.8275452142463278  0.3417997688007615  0.3462077049170916  1.0000
  H   H36       1.0  0.811434575449475  0.6462903860829384  0.027527885357017178  1.0000
  H   H37       1.0  0.34380399933131395  0.6702583978468012  0.8011166839517402  1.0000
  H   H38       1.0  0.1810078098812226  0.8846110623138587  0.9996115504713076  1.0000
  H   H39       1.0  0.2187361342062672  0.7823656427696547  0.03659638708681728  1.0000
  H   H40       1.0  0.20129822219350035  0.9198287979262431  0.14487847056970088  1.0000
  H   H41       1.0  0.21812428890765279  0.8047213858516286  0.19742706012016248  1.0000
  H   H42       1.0  0.3957166895775471  0.900066041643626  0.0256484411035203  1.0000
  H   H43       1.0  0.4010438641781348  0.9847244433195002  0.08497692795565832  1.0000
  H   H44       1.0  0.3784609756767594  0.015072781984962097  0.9704848019815914  1.0000
  H   H45       1.0  0.3783829901647734  0.8958242176398913  0.8044812230176106  1.0000
  H   H46       1.0  0.2586375619231375  0.286231212764342  0.6228606914522814  1.0000
  H   H47       1.0  0.14817752938225223  0.23600766404904047  0.595075781169804  1.0000
  H   H48       1.0  0.12546795374023384  0.2300969850664174  0.8078647575089093  1.0000
  H   H49       1.0  0.014459364663004173  0.1751933580259077  0.7827537526284942  1.0000
  H   H50       1.0  0.06862407028279448  0.04085974139803741  0.7547208864594025  1.0000
  H   H51       1.0  0.0400424699129687  0.0221104015275415  0.8854513778336823  1.0000
  H   H52       1.0  0.17833081844767656  0.09328437952199663  0.78248422728921  1.0000
  H   H53       1.0  0.3952604825129883  0.09286602948501609  0.7669394717698523  1.0000
  H   H54       1.0  0.5144840397551604  0.08245978731132907  0.7356827855237995  1.0000
  H   H55       1.0  0.5277924839162793  0.21506940896253468  0.6911806982056774  1.0000
  H   H56       1.0  0.17125854760615059  0.3117205881492566  0.0030434010113111953  1.0000
  H   H57       1.0  0.5972213357978973  0.9329049247465947  0.067110813266943  1.0000
  H   H58       1.0  0.6615889207453307  0.9920459502631618  0.13187374247198141  1.0000
  H   H59       1.0  0.5161253049185319  0.7453396693414475  0.21683847983262441  1.0000
  H   H60       1.0  0.6105523374904677  0.7928632430132153  0.2627236449925406  1.0000
  H   H61       1.0  0.5287495693062423  0.9006607219913219  0.3115495298914583  1.0000
  H   H62       1.0  0.4295077485948013  0.7570066882333322  0.382382398857068  1.0000
  H   H63       1.0  0.4293145862953053  0.8508490895295038  0.2705525841544374  1.0000
  H   H64       1.0  0.16039517925653968  0.6843713306308244  0.631565196835119  1.0000
  H   H65       1.0  0.9693167521506184  0.4741952344660518  0.4411877531826036  1.0000
  H   H66       1.0  0.07365574127010885  0.61298182437816  0.38030597259150056  1.0000
  C   C1        1.0  0.9997826068938025  0.6991624329095811  0.10579259371636598  1.0000
  C   C2        1.0  0.31140295763449904  0.8805238197422157  0.7847511126702004  1.0000
  C   C3        1.0  0.1980381017491267  0.39946181079589854  0.9613581000494309  1.0000
  C   C4        1.0  0.7067175161559119  0.336780165673595  0.19414137122245018  1.0000
  C   C5        1.0  0.11348868585611874  0.5968681432037357  0.6931877049732975  1.0000
  C   C6        1.0  0.30220729009557346  0.4914525224496914  0.8787606013003498  1.0000
  C   C7        1.0  0.09330274478361379  0.502935581479953  0.6822719639730224  1.0000
  C   C8        1.0  0.3063518850097392  0.9506371698588648  0.69697500172628  1.0000
  C   C9        1.0  0.8502717661611428  0.05955587099666809  0.1370275900514315  1.0000
  C   C10       1.0  0.044644506705175474  0.5270332271747691  0.439641126102849  1.0000
  C   C11       1.0  0.02278861548710854  0.5117887308785499  0.5521808268802887  1.0000
  C   C12       1.0  0.6922130548149639  0.312079410058189  0.29889060720510224  1.0000
  C   C13       1.0  0.09684700266601706  0.3829477088693878  0.4905064663237511  1.0000
  C   C14       1.0  0.24196416082848773  0.5835394574546912  0.381494293150105  1.0000
  C   C15       1.0  0.1324182114532277  0.49730685413111075  0.39952376541965845  1.0000
  C   C16       1.0  0.796930969020778  0.5968590917491525  0.8286639142474002  1.0000
  C   C17       1.0  0.11236628993894024  0.4990328128682294  0.57989195552031  1.0000
  C   C18       1.0  0.09898804443371022  0.38783568716914374  0.5917003103502054  1.0000
  C   C19       1.0  0.2257610148308657  0.5934744239469367  0.48374799215545744  1.0000
  C   C20       1.0  0.4933439556119056  0.16952097626524684  0.402673200331563  1.0000
  C   C21       1.0  0.5876755675082775  0.2424987319336367  0.39845019343954385  1.0000
  C   C22       1.0  0.5750461627814258  0.228009941809951  0.5007978698432821  1.0000
  C   C23       1.0  0.7022216061638744  0.5053322971669729  0.8510325053360078  1.0000
  C   C24       1.0  0.4824095530332713  0.13990426319961807  0.5995482424756275  1.0000
  C   C25       1.0  0.3936809669239167  0.05798979704118779  0.601322624203192  1.0000
  C   C26       1.0  0.4012139530590062  0.0815543346653911  0.4996980389017196  1.0000
  C   C27       1.0  0.3464988922653304  0.030689140669196004  0.4441861206872559  1.0000
  C   C28       1.0  0.07463750004659885  0.40514708809903505  0.29173822098457686  1.0000
  C   C29       1.0  0.4511068467076599  0.13049790010324358  0.3341697946136151  1.0000
  C   C30       1.0  0.5054314896280657  0.5959625713695047  0.80110582320188  1.0000
  C   C31       1.0  0.40771810245746554  0.49725876929660723  0.8436143800599964  1.0000
  C   C32       1.0  0.4195618601812469  0.40290177613599804  0.868533566285315  1.0000
  C   C33       1.0  0.516527333256441  0.4066617644463975  0.8634582601621404  1.0000
  C   C34       1.0  0.13782729047419195  0.4954693883533992  0.2987674613435305  1.0000
  C   C35       1.0  0.610705468664939  0.5049176157837821  0.8331575477856318  1.0000
  C   C36       1.0  0.601982905747924  0.5995713224682788  0.7965991816460872  1.0000
  C   C37       1.0  0.6601271663291185  0.7218237430348254  0.7626915891975159  1.0000
  C   C38       1.0  0.5508413738689267  0.7177724573414678  0.7676705845114428  1.0000
  C   C39       1.0  0.8937735924869795  0.8146726702302515  0.2068554036923588  1.0000
  C   C40       1.0  0.7117876138459706  0.4142258999707024  0.9061006747518833  1.0000
  C   C41       1.0  0.8703252334720731  0.7755130300195107  0.13893353101115483  1.0000
  C   C42       1.0  0.813601594265634  0.817000406907802  0.09158548674075467  1.0000
  C   C43       1.0  0.7941371158789821  0.8991318447955622  0.1001073926684625  1.0000
  C   C44       1.0  0.8372970363775422  0.953530280945891  0.1519321280762256  1.0000
  C   C45       1.0  0.28643722505641017  0.5824394134322688  0.8590398829303467  1.0000
  C   C46       1.0  0.879113663449857  0.9006822529225996  0.21045030706203252  1.0000
  C   C47       1.0  0.9268027909177405  0.9055636991956746  0.2869675121551723  1.0000
  C   C48       1.0  0.9379999261382326  0.8044604064470067  0.28780809293722587  1.0000
  C   C49       1.0  0.1895897821842212  0.5854676812572848  0.1936173481184298  1.0000
  C   C50       1.0  0.7990737785179007  0.34623854118993347  0.28645223801888875  1.0000
  C   C51       1.0  0.8779288385423241  0.6584256304979945  0.047860650006334965  1.0000
  C   C52       1.0  0.9078871507990198  0.708382905440075  0.10694453016051156  1.0000
  C   C53       1.0  0.17763799727227803  0.8214996710570123  0.06861561459670883  1.0000
  C   C54       1.0  0.23561719236320042  0.8723086780255331  0.12187077149692972  1.0000
  C   C55       1.0  0.3594297674833909  0.9472035303795392  0.04660697007189913  1.0000
  C   C56       1.0  0.029600918180882636  0.41413404218343436  0.7891195372446305  1.0000
  C   C57       1.0  0.17552228261374828  0.27229707249306756  0.6420808061180239  1.0000
  C   C58       1.0  0.09830453669434996  0.19104612050104924  0.7631202548900902  1.0000
  C   C59       1.0  0.09615485517781505  0.0808571306026238  0.7986681525417866  1.0000
  C   C60       1.0  0.479758741063833  0.13215493321643382  0.7036689162878176  1.0000
  C   C61       1.0  0.638132340516982  0.9217494474954504  0.11734921519237675  1.0000
  C   C62       1.0  0.5613141396799434  0.8147840769005655  0.22656869989812384  1.0000
  C   C63       1.0  0.4826887524397562  0.8315139636819919  0.3018653144970145  1.0000
  C   C64       1.0  0.2010423983374778  0.8840438372089707  0.7133029780671122  1.0000
  C   C65       1.0  0.8940531993038974  0.1167591653773528  0.1855437914682838  1.0000
  C   C66       1.0  0.8373590737494538  0.1364159892848775  0.0626224358281249  1.0000
  N   N1        1.0  0.02105256013105356  0.6478857674128166  0.051323477021433944  1.0000
  N   N2        1.0  0.857060904359713  0.5625546318420759  0.8673612010449432  1.0000
  N   N3        1.0  0.08750225215681691  0.43911735888362097  0.19060357433998845  1.0000
  N   N4        1.0  0.8039826347095271  0.44895493324043656  0.915347776679937  1.0000
  N   N5        1.0  0.1589178550900882  0.5518314013877799  0.1290174633612722  1.0000
  N   N6        1.0  0.869847789444556  0.38522677454771775  0.18325245182881386  1.0000
  N   N7        1.0  0.9468071748854568  0.6242158935126696  0.0140454946366475  1.0000
  N   N8        1.0  0.18265238976416498  0.5470644298741192  0.9270213372180436  1.0000
  N   N9        1.0  0.011890648565533006  0.452809403361023  0.8578577509059853  1.0000
  N   N10       1.0  0.148437429251622  0.7837651228456651  0.8029468312281979  1.0000
  N   N11       1.0  0.9049682907072307  0.21781085234304948  0.1441131399162501  1.0000
  N   N12       1.0  0.8688639082633569  0.22947174830678557  0.0684107249224937  1.0000
  N   N13       1.0  0.21745772078038778  0.781228219950144  0.8470570856467886  1.0000
  N   N14       1.0  0.12835484136780187  0.4345938499514688  0.9897517607673479  1.0000
  N   N15       1.0  0.06340247443715433  0.5650101755377364  0.7988782875617702  1.0000
  N   N16       1.0  0.8127713099679852  0.3794732666182057  0.12685151940595318  1.0000
  O   O1        1.0  0.0642927975943904  0.7389882025051477  0.14750482296788195  1.0000
  O   O2        1.0  0.18837458636986065  0.3802880025491148  0.6052893887183615  1.0000
  O   O3        1.0  0.7355262987338873  0.9282494939479733  0.049804876995892866  1.0000
