data_image0
_chemical_formula_structural       Cu2H12C12N4O12
_chemical_formula_sum              "Cu2 H12 C12 N4 O12"
_cell_length_a       7.263757788386186
_cell_length_b       7.259578474540325
_cell_length_c       10.42917550453727
_cell_angle_alpha    86.27762120312669
_cell_angle_beta     116.74596101194402
_cell_angle_gamma    116.4682521332609

_space_group_name_H-M_alt    "P 1"
_space_group_IT_number       1

loop_
  _space_group_symop_operation_xyz
  'x, y, z'

loop_
  _atom_site_type_symbol
  _atom_site_label
  _atom_site_symmetry_multiplicity
  _atom_site_fract_x
  _atom_site_fract_y
  _atom_site_fract_z
  _atom_site_occupancy
  Cu  Cu1       1.0  2.8075569745171916e-06  0.9999992950540176  0.5000021672871853  1.0000
  Cu  Cu2       1.0  0.9999966661958413  0.5000016129207624  0.9999980558876657  1.0000
  H   H1        1.0  0.28807515944001943  0.4250294933049759  0.3031909757146565  1.0000
  H   H2        1.0  0.6229410185182828  0.9856656219595834  0.19671930546179076  1.0000
  H   H3        1.0  0.7119350222891327  0.5749839226400795  0.6968087781514285  1.0000
  H   H4        1.0  0.37706388758623904  0.014339953625700702  0.8032811136431093  1.0000
  H   H5        1.0  0.3391874769012588  0.36697817158440676  0.1825713517911112  1.0000
  H   H6        1.0  0.6847032858663981  0.15665012474259046  0.3174674100514138  1.0000
  H   H7        1.0  0.6608111457866742  0.6330274672376248  0.8174266543627552  1.0000
  H   H8        1.0  0.3152997759798166  0.8433475455494983  0.6825363984555111  1.0000
  H   H9        1.0  0.719467710873083  0.04491463182866082  0.8580003910194093  1.0000
  H   H10       1.0  0.685867228375116  0.861915571947314  0.6413537895859986  1.0000
  H   H11       1.0  0.2805307786896517  0.9550878742581614  0.1419975622022774  1.0000
  H   H12       1.0  0.3141252908366852  0.1380806652756803  0.3586446801956811  1.0000
  C   C1        1.0  0.11364253934218736  0.33181036632045385  0.6871552324987036  1.0000
  C   C2        1.0  0.14407352348528238  0.4264314426495162  0.8124616246363487  1.0000
  C   C3        1.0  0.8863575927586497  0.6681858196191683  0.3128449887320172  1.0000
  C   C4        1.0  0.8559231772492313  0.5735648082235444  0.18753587243115527  1.0000
  C   C5        1.0  0.8139567925908014  0.02322264067404231  0.690899584066301  1.0000
  C   C6        1.0  0.8313793773713557  0.12332251529569764  0.8085504391796192  1.0000
  C   C7        1.0  0.1860407537101876  0.9767798090393142  0.30910105424097606  1.0000
  C   C8        1.0  0.1686181689296261  0.876679934417652  0.19145019912765796  1.0000
  C   C9        1.0  0.2233020071395728  0.43283214964990446  0.5900529952074861  1.0000
  C   C10       1.0  0.34225820626749476  0.6329931876030132  0.9096750231978559  1.0000
  C   C11       1.0  0.7766981849414166  0.5671608813444634  0.4099481848828432  1.0000
  C   C12       1.0  0.6577444648179526  0.36700933213387543  0.09032195730964795  1.0000
  N   N1        1.0  0.9545530874448218  0.1285807291404168  0.6339635538869004  1.0000
  N   N2        1.0  0.993929269307266  0.3206240132343298  0.8656299657339942  1.0000
  N   N3        1.0  0.04545085768298642  0.8714201524703924  0.3660366106748184  1.0000
  N   N4        1.0  0.006063944630838327  0.6793706524927213  0.13436865272650061  1.0000
  O   O1        1.0  0.2105303659148702  0.30316669537083374  0.5039911465574958  1.0000
  O   O2        1.0  0.29864479738831307  0.7063264999146668  0.9957504783566828  1.0000
  O   O3        1.0  0.7894744116145062  0.6968309424545323  0.4960140240310337  1.0000
  O   O4        1.0  0.7013497037570604  0.2936759703120302  0.004249459370974808  1.0000
  O   O5        1.0  0.304005304508287  0.6253289184499309  0.5914670073195649  1.0000
  O   O6        1.0  0.5332512407853969  0.7120792860702991  0.9083071770624969  1.0000
  O   O7        1.0  0.6959966032558642  0.37466408007771423  0.4085355348523763  1.0000
  O   O8        1.0  0.4667387526067017  0.2879200599811611  0.09169266865536228  1.0000
  O   O9        1.0  0.22122898306945868  0.37926415738110103  0.19914426593908266  1.0000
  O   O10       1.0  0.6807160758028132  0.022254459275806902  0.3007622665385625  1.0000
  O   O11       1.0  0.7787750951835549  0.6207398569649172  0.8008559515548228  1.0000
  O   O12       1.0  0.3192840562980308  0.9777417266638223  0.6992379546921582  1.0000
