data_image0
_chemical_formula_structural       Li4H8C4N28O4
_chemical_formula_sum              "Li4 H8 C4 N28 O4"
_cell_length_a       4.676032597028102
_cell_length_b       8.978387181446143
_cell_length_c       12.729958302496247
_cell_angle_alpha    95.52046438654712
_cell_angle_beta     89.99998384191584
_cell_angle_gamma    89.99960651909866

_space_group_name_H-M_alt    "P 1"
_space_group_IT_number       1

loop_
  _space_group_symop_operation_xyz
  'x, y, z'

loop_
  _atom_site_type_symbol
  _atom_site_label
  _atom_site_symmetry_multiplicity
  _atom_site_fract_x
  _atom_site_fract_y
  _atom_site_fract_z
  _atom_site_occupancy
  Li  Li1       1.0  0.491748005236758  0.0019677410084852996  0.1529995682034482  1.0000
  Li  Li2       1.0  0.9917464385177865  0.9980333370495913  0.3470017941280332  1.0000
  Li  Li3       1.0  0.5082509263359681  0.9980322932173636  0.8470002484136572  1.0000
  Li  Li4       1.0  0.0082524930546768  0.0019666972470773  0.6529988080424047  1.0000
  H   H1        1.0  0.3562216398799478  0.17877053871114157  0.31299226717612777  1.0000
  H   H2        1.0  0.8562267891841769  0.8212299114560011  0.1870082830010844  1.0000
  H   H3        1.0  0.643779430257851  0.8212294955108277  0.6870075494405866  1.0000
  H   H4        1.0  0.14377641951870146  0.17877012276209567  0.8129915336152465  1.0000
  H   H5        1.0  0.11970064197116408  0.18022592942171656  0.21705451535546413  1.0000
  H   H6        1.0  0.6197014697063211  0.8197742588941137  0.28294525938820664  1.0000
  H   H7        1.0  0.8803004281737827  0.8197729858953834  0.7829460109413944  1.0000
  H   H8        1.0  0.380299600424074  0.18022689430356556  0.7170546331016963  1.0000
  C   C1        1.0  0.053697479015895104  0.2853859443221793  0.0220240779155674  1.0000
  C   C2        1.0  0.5536995648829119  0.7146111261987543  0.4779747076518248  1.0000
  C   C3        1.0  0.9463035911219037  0.7146140898997969  0.9779757387011471  1.0000
  C   C4        1.0  0.4463015052546239  0.2853889080940418  0.5220258945182294  1.0000
  N   N1        1.0  0.927466327712203  0.2287663734603811  0.10445696542377188  1.0000
  N   N2        1.0  0.4274618609040459  0.771231580500597  0.3955426215529697  1.0000
  N   N3        1.0  0.0725347424329996  0.7712325417858922  0.8955427753197539  1.0000
  N   N4        1.0  0.57253920923349  0.22876845379219907  0.6044579806170772  1.0000
  N   N5        1.0  0.9496472830283268  0.22391612552475235  0.9294277298616506  1.0000
  N   N6        1.0  0.44964724493943453  0.7760812653271998  0.5705719516690806  1.0000
  N   N7        1.0  0.050351648544655306  0.7760839086302764  0.07057130120212919  1.0000
  N   N8        1.0  0.5503538252055122  0.2239176499898932  0.42942857462777784  1.0000
  N   N9        1.0  0.7515248373102353  0.12578309460322154  0.9562381074241486  1.0000
  N   N10       1.0  0.25151924508049467  0.8742172523771289  0.5437633689922237  1.0000
  N   N11       1.0  0.24847623282781942  0.8742169395479352  0.0437609236392404  1.0000
  N   N12       1.0  0.7484818250644523  0.12578166293997134  0.4562371573046349  1.0000
  N   N13       1.0  0.4367321048421645  0.5237368623239718  0.183988966910043  1.0000
  N   N14       1.0  0.9367353044222922  0.4762588198786942  0.3160081082901698  1.0000
  N   N15       1.0  0.5632668267305617  0.47626317190187717  0.8160108497070624  1.0000
  N   N16       1.0  0.06326362715810059  0.5237400953006386  0.6839908469004212  1.0000
  N   N17       1.0  0.3423448770632405  0.45452682310000364  0.1123100416569045  1.0000
  N   N18       1.0  0.8423407002087372  0.5454725583289814  0.387689652140672  1.0000
  N   N19       1.0  0.6576540545094787  0.545473211125845  0.8876897749602009  1.0000
  N   N20       1.0  0.1576582313713928  0.4545263569211713  0.6123100886032447  1.0000
  N   N21       1.0  0.7382467652430691  0.1286261951063565  0.06011137454407839  1.0000
  N   N22       1.0  0.23824308631128593  0.8713735635888044  0.4398883571004716  1.0000
  N   N23       1.0  0.2617521663373239  0.8713727200729693  0.9398875806465057  1.0000
  N   N24       1.0  0.76175798382625  0.1286264707039919  0.5601122450695825  1.0000
  N   N25       1.0  0.2670250520642838  0.39266141355695083  0.025475499188864603  1.0000
  N   N26       1.0  0.7670221399109067  0.6073382407692023  0.47452343643926287  1.0000
  N   N27       1.0  0.7329738795010313  0.6073397396446012  0.9745243933014294  1.0000
  N   N28       1.0  0.2329767916615566  0.39266179352746633  0.5254771657311749  1.0000
  O   O1        1.0  0.2417275782306731  0.11551501474496459  0.2586668751662344  1.0000
  O   O2        1.0  0.7417275797563931  0.884486969492407  0.24133536361849645  1.0000
  O   O3        1.0  0.7582734919068628  0.8844850195478315  0.7413337270038127  1.0000
  O   O4        1.0  0.2582734903814057  0.1155130647295692  0.7586644529982249  1.0000
