data_image0
_chemical_formula_structural       Al6H39C84N4Cl9O28
_chemical_formula_sum              "Al6 H39 C84 N4 Cl9 O28"
_cell_length_a       13.173970286569883
_cell_length_b       13.033346463318985
_cell_length_c       27.691212679460595
_cell_angle_alpha    90.21617563985929
_cell_angle_beta     90.03352483830481
_cell_angle_gamma    59.54212578931447

_space_group_name_H-M_alt    "P 1"
_space_group_IT_number       1

loop_
  _space_group_symop_operation_xyz
  'x, y, z'

loop_
  _atom_site_type_symbol
  _atom_site_label
  _atom_site_symmetry_multiplicity
  _atom_site_fract_x
  _atom_site_fract_y
  _atom_site_fract_z
  _atom_site_occupancy
  Al  Al1       1.0  0.4141841820990635  0.18231774213793267  0.4950175143968992  1.0000
  Al  Al2       1.0  0.414060660512753  0.9370153890226048  0.4994797069060227  1.0000
  Al  Al3       1.0  0.6481314129438404  0.925673359261829  0.5011380583171174  1.0000
  Al  Al4       1.0  0.9320333984668353  0.15599703404815563  0.9830152509698922  1.0000
  Al  Al5       1.0  0.6788087798735631  0.3926197904713221  0.9868348464283729  1.0000
  Al  Al6       1.0  0.8917473427194051  0.4191571298331028  0.9834211355436157  1.0000
  H   H1        1.0  0.5225683920665248  0.6030669199166849  0.22275234036060004  1.0000
  H   H2        1.0  0.832100147734657  0.5771434721771554  0.8651888510276536  1.0000
  H   H3        1.0  0.5516060513445138  0.875462488260418  0.734775393284899  1.0000
  H   H4        1.0  0.7020438441820644  0.5077863075244338  0.6911334289283033  1.0000
  H   H5        1.0  0.5084784048063967  0.31923068990415265  0.606432188426517  1.0000
  H   H6        1.0  0.4638233314723834  0.830209093222514  0.2608401838654971  1.0000
  H   H7        1.0  0.8673063364634926  0.1394152268940303  0.7546042456850303  1.0000
  H   H8        1.0  0.8972198110812357  0.1433499421259157  0.8433735441964886  1.0000
  H   H9        1.0  0.805932038107429  0.004973452100593103  0.7131553311818595  1.0000
  H   H10       1.0  0.7871815899868005  0.9579482967011189  0.6271271787586062  1.0000
  H   H11       1.0  0.2063908886807795  0.009305894027470204  0.7824514943706051  1.0000
  H   H12       1.0  0.8005021154503781  0.24341827304690614  0.22321836715236298  1.0000
  H   H13       1.0  0.1489150388082905  0.04668116249401779  0.8692486010300443  1.0000
  H   H14       1.0  0.18236301357926274  0.33375389983103787  0.7087736770928715  1.0000
  H   H15       1.0  0.05219534518050049  0.38717717224367476  0.7608797674881773  1.0000
  H   H16       1.0  0.6243870996809732  0.8393127137259313  0.19565957889056312  1.0000
  H   H17       1.0  0.0066114160450539495  0.4208198859369573  0.8486781169554335  1.0000
  H   H18       1.0  0.1560746494952383  0.016687070892700703  0.7043193893994941  1.0000
  H   H19       1.0  0.21781988025789897  0.9897052107085216  0.6184241341568253  1.0000
  H   H20       1.0  0.8641528670743526  0.503283152823407  0.22727370169861424  1.0000
  H   H21       1.0  0.7819954182711584  0.9489604381381727  0.20174488201593027  1.0000
  H   H22       1.0  0.8899774405389137  0.0217204116884204  0.2720963083020821  1.0000
  H   H23       1.0  0.06819699662541723  0.40139646733987167  0.2270914026414844  1.0000
  H   H24       1.0  0.3980964248476156  0.3268744379281259  0.2300710927493982  1.0000
  H   H25       1.0  0.4433888908180564  0.2624394545641735  0.17555100592067427  1.0000
  H   H26       1.0  0.8351347104301112  0.6311785100265866  0.7361691927380181  1.0000
  H   H27       1.0  0.9130203287214942  0.5962622226224495  0.7890228221332978  1.0000
  H   H28       1.0  0.4650331259023091  0.254940338419182  0.743287219294672  1.0000
  H   H29       1.0  0.430371566919277  0.24990620030334296  0.8013500268846843  1.0000
  H   H30       1.0  0.4242617779900969  0.3714754192484618  0.8548716774128738  1.0000
  H   H31       1.0  0.5119106928941123  0.33420435378354085  0.9048882750728283  1.0000
  H   H32       1.0  0.9700039895589468  0.2977821340336249  0.2879031410755176  1.0000
  H   H33       1.0  0.29247657846249103  0.2473367815310965  0.26848987947565933  1.0000
  H   H34       1.0  0.33644138496839565  0.0772058603491459  0.19499867387050784  1.0000
  H   H35       1.0  0.23829384692949454  0.9735111022711532  0.2556261650115276  1.0000
  H   H36       1.0  0.014565910975342426  0.1258945441325849  0.21435098976410674  1.0000
  H   H37       1.0  0.7032066129510212  0.4933751965136751  0.2923973070893809  1.0000
  H   H38       1.0  0.3239564453566998  0.3739114676549209  0.4618685397982959  1.0000
  H   H39       1.0  0.02179532309806138  0.9593843243455634  0.010425967477978304  1.0000
  C   C1        1.0  0.28618380894842943  0.1008595222231605  0.4282134910979566  1.0000
  C   C2        1.0  0.6393630248074303  0.7218277579224974  0.34266618976457863  1.0000
  C   C3        1.0  0.8008198483728464  0.0763043759849467  0.25800018443371914  1.0000
  C   C4        1.0  0.6003160040500148  0.7894711854362699  0.4343694953566769  1.0000
  C   C5        1.0  0.7409598723003512  0.035385793696768496  0.21980993377437844  1.0000
  C   C6        1.0  0.7024971615534524  0.1894084424937574  0.09941102970634573  1.0000
  C   C7        1.0  0.6644831105158815  0.10065611197018849  0.3829393616907098  1.0000
  C   C8        1.0  0.7515929775283042  0.1988030059718895  0.23196034953475936  1.0000
  C   C9        1.0  0.6912232359986561  0.15801080297428172  0.19258540645585506  1.0000
  C   C10       1.0  0.6372274084930538  0.2523405879843779  0.2633556829296496  1.0000
  C   C11       1.0  0.6875962474745806  0.1298436790365045  0.29086037742777654  1.0000
  C   C12       1.0  0.6257659357225691  0.7436328003715  0.3858795046144154  1.0000
  C   C13       1.0  0.5754230552680896  0.21466226745769024  0.22450145172032884  1.0000
  C   C14       1.0  0.6268421935859222  0.08992551734620244  0.2513256130984018  1.0000
  C   C15       1.0  0.696033197024981  0.173952601903224  0.14239847925888685  1.0000
  C   C16       1.0  0.6275416090065563  0.0839576646705069  0.4296496586738102  1.0000
  C   C17       1.0  0.6797351878171936  0.11446037456771313  0.34069507615070194  1.0000
  C   C18       1.0  0.05080907909030694  0.24921451644368625  0.2665670660094221  1.0000
  C   C19       1.0  0.10572177989920557  0.3062736644940429  0.23377342985847357  1.0000
  C   C20       1.0  0.0834968792732269  0.24262729056827942  0.10002887675533863  1.0000
  C   C21       1.0  0.2315266060463373  0.12231075884000828  0.3815380349013752  1.0000
  C   C22       1.0  0.07606205511545032  0.15313083279880152  0.22701412250302166  1.0000
  C   C23       1.0  0.7746785052226529  0.5752629539404948  0.23488819923183266  1.0000
  C   C24       1.0  0.1299620859805657  0.2111059578418946  0.19297608154491291  1.0000
  C   C25       1.0  0.2005031884355546  0.06859870943526397  0.248778597432228  1.0000
  C   C26       1.0  0.1763200190253187  0.1636901823178007  0.28959697410461877  1.0000
  C   C27       1.0  0.2553641155032834  0.12565987907054682  0.2161034062561528  1.0000
  C   C28       1.0  0.28161150500783805  0.11522512027188007  0.5649788459900479  1.0000
  C   C29       1.0  0.23007709821375502  0.22163854850735729  0.2555946994694055  1.0000
  C   C30       1.0  0.1065161145774738  0.23083976937478207  0.14302034974278402  1.0000
  C   C31       1.0  0.20268739099088862  0.14087967348454813  0.33921988141271003  1.0000
  C   C32       1.0  0.6068697080631009  0.7555495848122789  0.6209595501842813  1.0000
  C   C33       1.0  0.5702800149371754  0.8401360958704842  0.6583816111402501  1.0000
  C   C34       1.0  0.6739074621623403  0.6371619919448007  0.19559706080451636  1.0000
  C   C35       1.0  0.5811515586475124  0.807406376114571  0.7067315125499151  1.0000
  C   C36       1.0  0.6284167980818295  0.6875847448668039  0.7189446248118829  1.0000
  C   C37       1.0  0.6662054340842686  0.6013254712468026  0.6823557008686622  1.0000
  C   C38       1.0  0.6547873735632451  0.635995419669257  0.6339272192542112  1.0000
  C   C39       1.0  0.7438801774806123  0.6284811580503558  0.7960543229012986  1.0000
  C   C40       1.0  0.5908268910439247  0.7984686638581026  0.5694786381829007  1.0000
  C   C41       1.0  0.7521281058691754  0.6005321377302337  0.8451961520488853  1.0000
  C   C42       1.0  0.5547469519614198  0.6298215898207076  0.8460826414338458  1.0000
  C   C43       1.0  0.5465442602798943  0.6578161497148473  0.7965760254443668  1.0000
  C   C44       1.0  0.6396698145765428  0.6553547813672012  0.771019866911246  1.0000
  C   C45       1.0  0.7419055438643767  0.6999557691513303  0.2554710442354137  1.0000
  C   C46       1.0  0.6611669460032417  0.5982558228974355  0.8703160136331294  1.0000
  C   C47       1.0  0.6453219469468151  0.1353429533624606  0.6121755152528012  1.0000
  C   C48       1.0  0.574897538193028  0.25127399755746893  0.6297963853307921  1.0000
  C   C49       1.0  0.589446488134044  0.2778867113425108  0.6771777573022177  1.0000
  C   C50       1.0  0.6694103802464471  0.18860549105699678  0.7088282974322484  1.0000
  C   C51       1.0  0.742913214112143  0.07423752439148501  0.6891411605980056  1.0000
  C   C52       1.0  0.6166729974635389  0.10326891282498002  0.5647041451271023  1.0000
  C   C53       1.0  0.7328096478741913  0.0476192961728543  0.6414730990959754  1.0000
  C   C54       1.0  0.5838484570367727  0.24842200439714904  0.7924274967225531  1.0000
  C   C55       1.0  0.5986102568981265  0.263082143321789  0.8425414421302337  1.0000
  C   C56       1.0  0.6522279936379222  0.695321679384996  0.29271847090616643  1.0000
  C   C57       1.0  0.809958888071634  0.17414186010731209  0.8285393982712963  1.0000
  C   C58       1.0  0.7932137497770455  0.17086769026114723  0.7795368358378527  1.0000
  C   C59       1.0  0.6802315822946808  0.2072013948312659  0.7607464428806029  1.0000
  C   C60       1.0  0.7132729138851844  0.22118124733182748  0.8606493209509696  1.0000
  C   C61       1.0  0.2299356446555834  0.14702239460258676  0.6143333346137754  1.0000
  C   C62       1.0  0.2165621627952986  0.2464996048723975  0.6405649563267704  1.0000
  C   C63       1.0  0.18626193424314857  0.2590420329943086  0.6893544666838168  1.0000
  C   C64       1.0  0.6856665753992105  0.569733997320462  0.2702904813498251  1.0000
  C   C65       1.0  0.1649764740737752  0.1775034004552936  0.7135135219437887  1.0000
  C   C66       1.0  0.17430559113991254  0.08068079069276729  0.6870394041216841  1.0000
  C   C67       1.0  0.6412031352613784  0.7627847214422374  0.21746640845309886  1.0000
  C   C68       1.0  0.2067479325847614  0.06645060271096531  0.6387472780672001  1.0000
  C   C69       1.0  0.160745683697229  0.1002198990174463  0.796425134806505  1.0000
  C   C70       1.0  0.13101174974269722  0.11996999720578569  0.8451640425263707  1.0000
  C   C71       1.0  0.050688742593301556  0.33134147114039086  0.833527747635408  1.0000
  C   C72       1.0  0.07771311716628301  0.31169232728488083  0.7847715167222165  1.0000
  C   C73       1.0  0.1341695849656119  0.1958042281316068  0.7652710727670567  1.0000
  C   C74       1.0  0.07624473432278478  0.2358774072271856  0.8641063089077151  1.0000
  C   C75       1.0  0.7235457489961306  0.21912282659259574  0.05190529528800172  1.0000
  C   C76       1.0  0.5847355479298743  0.6318139892595624  0.23242092677645595  1.0000
  C   C77       1.0  0.7180474207161112  0.540503377742553  0.05421727981359231  1.0000
  C   C78       1.0  0.5524814634323788  0.7566834026036134  0.2529758325789758  1.0000
  C   C79       1.0  0.03561647240121603  0.25385954431315827  0.052332296003655215  1.0000
  C   C80       1.0  0.7383373288567796  0.22820983826360927  0.9119965592101382  1.0000
  C   C81       1.0  0.690754781915622  0.5488712032722204  0.920303495748428  1.0000
  C   C82       1.0  0.034135150837592186  0.259178693686458  0.9148429655521328  1.0000
  C   C83       1.0  0.6943096230466564  0.5872297197689704  0.10256821121351584  1.0000
  C   C84       1.0  0.6850407870863435  0.6101056117021457  0.14565877091003906  1.0000
  N   N1        1.0  0.46460270739618176  0.2935808326201723  0.20537549938690355  1.0000
  N   N2        1.0  0.8334001919938178  0.6342960992981687  0.7727345980933225  1.0000
  N   N3        1.0  0.4706746370044427  0.27799540264623346  0.7778518767461764  1.0000
  N   N4        1.0  0.4994635234542811  0.3096897486572701  0.871454103399323  1.0000
  Cl  Cl1       1.0  0.566419401511844  0.3893952155289782  0.29243441743647486  1.0000
  Cl  Cl2       1.0  0.5084473283642339  0.9891890828375693  0.6449074681296878  1.0000
  Cl  Cl3       1.0  0.41798964879351536  0.6976106206632763  0.7656419196419935  1.0000
  Cl  Cl4       1.0  0.43388859358698545  0.6406394623208911  0.8745363511788684  1.0000
  Cl  Cl5       1.0  0.700047988782039  0.52920149836158  0.5890747050892955  1.0000
  Cl  Cl6       1.0  0.5092869656963758  0.42507707089660574  0.6961870590787315  1.0000
  Cl  Cl7       1.0  0.23871985270857018  0.3556062045614752  0.6167882369985875  1.0000
  Cl  Cl8       1.0  0.8449760112514255  0.741244267118461  0.2703020619627311  1.0000
  Cl  Cl9       1.0  0.5429075179628029  0.026266052841570804  0.266255864725224  1.0000
  O   O1        1.0  0.526503192639865  0.16355941209344138  0.44341521367762493  1.0000
  O   O2        1.0  0.812212680370735  0.5267629166037934  0.0344197454205357  1.0000
  O   O3        1.0  0.01684178147289827  0.3447113496071452  0.026925411449788307  1.0000
  O   O4        1.0  0.31883590433031367  0.1722694208593438  0.44168610767702904  1.0000
  O   O5        1.0  0.0357107028082595  0.1758808233306723  0.9384432487420471  1.0000
  O   O6        1.0  0.8426164773679548  0.16204051239911618  0.9266771401657012  1.0000
  O   O7        1.0  0.6534170893862665  0.3045318692946565  0.9400533533905675  1.0000
  O   O8        1.0  0.6274207084633617  0.5118292644293801  0.9399347550680803  1.0000
  O   O9        1.0  0.7839172159836922  0.538065978213936  0.9396389160163994  1.0000
  O   O10       1.0  0.9924777255528666  0.36689455566553875  0.9308583173259353  1.0000
  O   O11       1.0  0.8329128695268436  0.32477219491528325  0.9854819411552357  1.0000
  O   O12       1.0  0.49589612950067163  0.8205549045265882  0.5485050573813768  1.0000
  O   O13       1.0  0.3012431532352267  0.008491116851814702  0.4515111126889126  1.0000
  O   O14       1.0  0.49962683048060114  0.8171980708307272  0.4518442292933572  1.0000
  O   O15       1.0  0.6782216872612142  0.8043693547374174  0.4557055495975393  1.0000
  O   O16       1.0  0.6985603703935226  0.9873925972012644  0.45219445132563874  1.0000
  O   O17       1.0  0.5196465333299829  0.1767122472786227  0.5456009015294188  1.0000
  O   O18       1.0  0.3086106734935755  0.183578769016151  0.5439936171478622  1.0000
  O   O19       1.0  0.301540969070892  0.014257287720902003  0.5474743193754252  1.0000
  O   O20       1.0  0.6695197502591982  0.8169833539476273  0.5521264824656529  1.0000
  O   O21       1.0  0.6906487669121263  0.999206359419773  0.5474014161289987  1.0000
  O   O22       1.0  0.4937162582967646  0.0119601071901982  0.4983522503630696  1.0000
  O   O23       1.0  0.011726022137800392  0.1749093936139516  0.04019638415286411  1.0000
  O   O24       1.0  0.8202227880301651  0.14911192604101586  0.031668205134025115  1.0000
  O   O25       1.0  0.6416693926853086  0.3202580487296628  0.035344782158063005  1.0000
  O   O26       1.0  0.647689636799953  0.5112218851667764  0.035560600058083515  1.0000
  O   O27       1.0  0.34102569595981447  0.3382953938746454  0.49358343868456  1.0000
  O   O28       1.0  0.021457500474554095  0.000808893707670704  0.9814967147129894  1.0000
