data_image0
_chemical_formula_structural       Li2P2H48C38O2
_chemical_formula_sum              "Li2 P2 H48 C38 O2"
_cell_length_a       8.998833616010492
_cell_length_b       10.498763416898823
_cell_length_c       10.642120528650844
_cell_angle_alpha    60.444546887873216
_cell_angle_beta     87.74605931456564
_cell_angle_gamma    85.42699595099486

_space_group_name_H-M_alt    "P 1"
_space_group_IT_number       1

loop_
  _space_group_symop_operation_xyz
  'x, y, z'

loop_
  _atom_site_type_symbol
  _atom_site_label
  _atom_site_symmetry_multiplicity
  _atom_site_fract_x
  _atom_site_fract_y
  _atom_site_fract_z
  _atom_site_occupancy
  Li  Li1       1.0  0.574754817855144  0.4405603525153622  0.892423173314292  1.0000
  Li  Li2       1.0  0.0747556314373696  0.3329839725277282  0.10757757322400607  1.0000
  P   P1        1.0  0.33995608872710653  0.37266439755067177  0.8197127109713804  1.0000
  P   P2        1.0  0.8399580905666326  0.1923775948442595  0.18028711531542294  1.0000
  H   H1        1.0  0.06804338517010677  0.36027007391039917  0.8596771089952995  1.0000
  H   H2        1.0  0.5680442141950196  0.21994373761187086  0.1403246756909837  1.0000
  H   H3        1.0  0.23907067238398846  0.5697477880177786  0.9191817522537206  1.0000
  H   H4        1.0  0.7390705284947857  0.48892878821796143  0.08081690263021804  1.0000
  H   H5        1.0  0.8984006386486314  0.5478037924794137  0.9145257548471831  1.0000
  H   H6        1.0  0.39840009049552805  0.46232832663763174  0.08547458782590668  1.0000
  H   H7        1.0  0.0001855670209848914  0.6680922014733425  0.9588268600559856  1.0000
  H   H8        1.0  0.5001849790268197  0.626917073821957  0.041172927243380224  1.0000
  H   H9        1.0  0.5342227514561415  0.0986994899245063  0.9770651739831492  1.0000
  H   H10       1.0  0.034225316238668306  0.07576522248056959  0.022933799463274285  1.0000
  H   H11       1.0  0.5285593181150007  0.8520410487117686  0.002670929090221764  1.0000
  H   H12       1.0  0.028559566432079516  0.8547126059406479  0.9973282302384017  1.0000
  H   H13       1.0  0.32743123386326545  0.7978074342008198  0.8844080299396778  1.0000
  H   H14       1.0  0.8274305795876842  0.6822161996059605  0.11559183824359556  1.0000
  H   H15       1.0  0.13410283581449528  0.9950777714813271  0.7366922919838075  1.0000
  H   H16       1.0  0.6341041887692569  0.7317711825279147  0.2633079518022327  1.0000
  H   H17       1.0  0.1428215567417865  0.24371765936410852  0.7076341561936914  1.0000
  H   H18       1.0  0.6428243029379531  0.951351214631458  0.292367122433184  1.0000
  H   H19       1.0  0.1396392384438627  0.6199906672254513  0.6183670166445977  1.0000
  H   H20       1.0  0.6396392731792275  0.23835706593880693  0.38163149371754906  1.0000
  H   H21       1.0  0.12800882443748657  0.7692545465872554  0.34905669249847887  1.0000
  H   H22       1.0  0.6280095915656643  0.1183112458239891  0.650940974795155  1.0000
  H   H23       1.0  0.3121059817666563  0.7137793566343688  0.1993664768716884  1.0000
  H   H24       1.0  0.8121065370139321  0.9131475517289118  0.8006323561278064  1.0000
  H   H25       1.0  0.5013356160176058  0.5037969502716849  0.31710679335172637  1.0000
  H   H26       1.0  0.0013374385303350858  0.8209050598299115  0.6828940372584922  1.0000
  H   H27       1.0  0.5125765676335662  0.354842271257766  0.5851747395139597  1.0000
  H   H28       1.0  0.012578567293807871  0.9400158366463388  0.4148260872253075  1.0000
  H   H29       1.0  0.8858420801312618  0.538515322600574  0.628605887726536  1.0000
  H   H30       1.0  0.38584211963949855  0.16712085177860558  0.37139382522800446  1.0000
  H   H31       1.0  0.7387554579119424  0.5066460437934736  0.5418322645232008  1.0000
  H   H32       1.0  0.23875709505624343  0.04847702129101345  0.45816920906412406  1.0000
  H   H33       1.0  0.8390157636048842  0.29974728046332894  0.8573915366135907  1.0000
  H   H34       1.0  0.3390131936001879  0.15714058103765177  0.1426080486552692  1.0000
  H   H35       1.0  0.882594564952747  0.26983993819062146  0.7087727918565178  1.0000
  H   H36       1.0  0.38259437933096774  0.9786116753765837  0.2912265140259791  1.0000
  H   H37       1.0  0.6955438836165727  0.2690806180617643  0.7677749981905676  1.0000
  H   H38       1.0  0.19554210112877263  0.03685559970914201  0.23222641369532226  1.0000
  H   H39       1.0  0.5742451438886604  0.6958436291397304  0.5087766947217247  1.0000
  H   H40       1.0  0.0742453317458427  0.2046198722037999  0.4912239430770313  1.0000
  H   H41       1.0  0.723804923209066  0.7638612381874238  0.5597312980860991  1.0000
  H   H42       1.0  0.2238043002104462  0.32359233504847396  0.44026803271214016  1.0000
  H   H43       1.0  0.4131634328065275  0.7027797443411072  0.7022997476025876  1.0000
  H   H44       1.0  0.9131633759505108  0.40507910833566996  0.2976978496039139  1.0000
  H   H45       1.0  0.4818042369659779  0.8782516911019017  0.5877660801968928  1.0000
  H   H46       1.0  0.9818034632966433  0.46601712527967004  0.4122318737971895  1.0000
  H   H47       1.0  0.5631631313254956  0.7632993132598143  0.7601642338872665  1.0000
  H   H48       1.0  0.06316316135632859  0.5234639133576237  0.23983392690820435  1.0000
  C   C1        1.0  0.16423818568055992  0.4019477025918192  0.8843721006818726  1.0000
  C   C2        1.0  0.664239216461624  0.2863183773367979  0.11562798151218345  1.0000
  C   C3        1.0  0.13840777547804353  0.5228756368544578  0.9090820635901764  1.0000
  C   C4        1.0  0.6384069875398666  0.43195563685299737  0.09091748858163837  1.0000
  C   C5        1.0  0.004183896308788282  0.5785607126848121  0.9348331381618776  1.0000
  C   C6        1.0  0.5041843334017031  0.5133913371371647  0.06516554704207775  1.0000
  C   C7        1.0  0.3374759138412031  0.1879587590906056  0.841826085475624  1.0000
  C   C8        1.0  0.8374806044001063  0.029783278628485718  0.15817576766242777  1.0000
  C   C9        1.0  0.4461043429140901  0.07660645237164948  0.9240993178845683  1.0000
  C   C10       1.0  0.9461069667110209  0.0007049155452421223  0.07590219980456679  1.0000
  C   C11       1.0  0.4425055081144365  0.9368469692267566  0.9390503729644947  1.0000
  C   C12       1.0  0.9425086971151021  0.8758963916807331  0.060950672648800594  1.0000
  C   C13       1.0  0.33019923262146017  0.9068373065008541  0.8725401734052619  1.0000
  C   C14       1.0  0.8302016392103937  0.7793779531832427  0.12746046788887358  1.0000
  C   C15       1.0  0.22185742790918542  0.017451656403935086  0.7895247335725343  1.0000
  C   C16       1.0  0.7218606086059154  0.8069756583829388  0.2104758419698525  1.0000
  C   C17       1.0  0.22617120444734706  0.156850898926642  0.7739958072545362  1.0000
  C   C18       1.0  0.7261748284775823  0.9308455814716724  0.2260065935015588  1.0000
  C   C19       1.0  0.32759959288172524  0.47863464111016196  0.6200774932247413  1.0000
  C   C20       1.0  0.8276009906699003  0.0987139312093817  0.37992139916708817  1.0000
  C   C21       1.0  0.22010027673658786  0.596199144343977  0.5518552353108462  1.0000
  C   C22       1.0  0.7201016597792107  0.1480544380540749  0.4481431413811308  1.0000
  C   C23       1.0  0.2143809394101766  0.6802960028756145  0.4012310721335621  1.0000
  C   C24       1.0  0.7143803451840398  0.08152787243726323  0.5987678771514949  1.0000
  C   C25       1.0  0.316781429564891  0.6484582909145402  0.3168310285834933  1.0000
  C   C26       1.0  0.8167851259505029  0.9652911349068771  0.683167591209731  1.0000
  C   C27       1.0  0.42431251906715767  0.5311175185162895  0.3836086178871767  1.0000
  C   C28       1.0  0.9243139988232087  0.9147273995779626  0.6163916620672937  1.0000
  C   C29       1.0  0.42954810201665344  0.4473295662916782  0.5339372536193637  1.0000
  C   C30       1.0  0.9295498642258694  0.9812672677031884  0.46606293638973983  1.0000
  C   C31       1.0  0.7800840950082346  0.4850520115771743  0.6473950330684204  1.0000
  C   C32       1.0  0.28008482479049945  0.132445860630142  0.352605652853569  1.0000
  C   C33       1.0  0.8005087948614076  0.3220456953692261  0.7513319967383937  1.0000
  C   C34       1.0  0.30050827566224575  0.07337667312355471  0.24866861640438737  1.0000
  C   C35       1.0  0.6248968491634416  0.699260528564423  0.5997649405894947  1.0000
  C   C36       1.0  0.12489611687631451  0.2990243643048985  0.40023461829782997  1.0000
  C   C37       1.0  0.5142873180512313  0.7637547704120421  0.6671591694019411  1.0000
  C   C38       1.0  0.014286552927075011  0.430913819687511  0.33283897373442517  1.0000
  O   O1        1.0  0.6725874259172001  0.5507615149552479  0.7061954360152143  1.0000
  O   O2        1.0  0.1725869650078309  0.25695482487591187  0.293805192447131  1.0000
