data_image0
_chemical_formula_structural       Zn16H48C96S16N16O52
_chemical_formula_sum              "Zn16 H48 C96 S16 N16 O52"
_cell_length_a       19.686251423768024
_cell_length_b       19.68399871463493
_cell_length_c       33.40163404746714
_cell_angle_alpha    79.05769319910755
_cell_angle_beta     79.0564188907583
_cell_angle_gamma    63.84046169872427

_space_group_name_H-M_alt    "P 1"
_space_group_IT_number       1

loop_
  _space_group_symop_operation_xyz
  'x, y, z'

loop_
  _atom_site_type_symbol
  _atom_site_label
  _atom_site_symmetry_multiplicity
  _atom_site_fract_x
  _atom_site_fract_y
  _atom_site_fract_z
  _atom_site_occupancy
  Zn  Zn1       1.0  0.05480201770711089  0.4002433703938453  0.47806502384732846  1.0000
  Zn  Zn2       1.0  0.9851215926597376  0.48347858576744346  0.5603912813568216  1.0000
  Zn  Zn3       1.0  0.058639998087748814  0.5600631529435774  0.48284771156275513  1.0000
  Zn  Zn4       1.0  0.901870146024862  0.5549518199124894  0.47938387316140313  1.0000
  Zn  Zn5       1.0  0.6952057179735576  0.349591730567511  0.27211281487817024  1.0000
  Zn  Zn6       1.0  0.6878833066640623  0.19015192999121688  0.26607361398620105  1.0000
  Zn  Zn7       1.0  0.7675977559131367  0.2667195953145837  0.19078250599666555  1.0000
  Zn  Zn8       1.0  0.8470920025598686  0.19417731635245186  0.2714880752210078  1.0000
  Zn  Zn9       1.0  0.26679728015463405  0.765500550155828  0.6893258081253891  1.0000
  Zn  Zn10      1.0  0.34895012634537875  0.6964969694146538  0.7722565136083972  1.0000
  Zn  Zn11      1.0  0.1938557264654222  0.8479428689806955  0.771578088819119  1.0000
  Zn  Zn12      1.0  0.1918336092647621  0.6898786446783378  0.7675022628377307  1.0000
  Zn  Zn13      1.0  0.5606667532966512  0.06059035528998195  0.9840651887829852  1.0000
  Zn  Zn14      1.0  0.40110594756657747  0.054715459420208536  0.977622125367809  1.0000
  Zn  Zn15      1.0  0.5557227820011263  0.9022140114923124  0.9786795980416656  1.0000
  Zn  Zn16      1.0  0.4827559811493956  0.9827045030992496  0.059709479518076605  1.0000
  H   H1        1.0  0.7515383662711768  0.4495345936890235  0.347719221869923  1.0000
  H   H2        1.0  0.0014062049511807  0.3031664472802974  0.3994718159771651  1.0000
  H   H3        1.0  0.19788159596200217  0.7028774487053726  0.6014508912386773  1.0000
  H   H4        1.0  0.04777770248956871  0.5515552510617996  0.6492242020855556  1.0000
  H   H5        1.0  0.46332151378858544  0.2406192800761319  0.34147815468991644  1.0000
  H   H6        1.0  0.48033343332751594  0.7011702567151451  0.601852017394954  1.0000
  H   H7        1.0  0.20448776687010195  0.9791326299079229  0.6017714892381606  1.0000
  H   H8        1.0  0.9476203840272744  0.9698627658630491  0.3469878580110403  1.0000
  H   H9        1.0  0.6508797841628179  0.14639187879263474  0.04955583262734823  1.0000
  H   H10       1.0  0.603641229989094  0.09889201834656819  0.20041219963421505  1.0000
  H   H11       1.0  0.5468756182472134  0.7702101713366363  0.14801675445911405  1.0000
  H   H12       1.0  0.162662437862231  0.14355911144485847  0.04064517628059861  1.0000
  H   H13       1.0  0.300323456305577  0.9991399412407066  0.9021720163845616  1.0000
  H   H14       1.0  0.4475817180936729  0.7498579319670928  0.8498155538612477  1.0000
  H   H15       1.0  0.30193394000660584  0.28003561561360624  0.9019604436277079  1.0000
  H   H16       1.0  0.7860674746745032  0.010527545287352856  0.9080733503990503  1.0000
  H   H17       1.0  0.7911288201327195  0.5383658284990247  0.4200203401882093  1.0000
  H   H18       1.0  0.7238708528910037  0.5414553895701463  0.3921038643757839  1.0000
  H   H19       1.0  0.9538873753361939  0.20634177593741787  0.33511218615519306  1.0000
  H   H20       1.0  0.016851724605800204  0.19899307488384468  0.36734751046565617  1.0000
  H   H21       1.0  0.14551808581914832  0.64253525630091  0.5207462251821724  1.0000
  H   H22       1.0  0.1991364747859947  0.6848340703198519  0.5328601082692118  1.0000
  H   H23       1.0  0.111124214430987  0.600898680278256  0.7295873340524182  1.0000
  H   H24       1.0  0.06881486624313743  0.5480266577251812  0.7174808341762927  1.0000
  H   H25       1.0  0.7272651339744414  0.23152846915547812  0.10575521135691451  1.0000
  H   H26       1.0  0.7093484992556753  0.2251093538679073  0.05789100018360218  1.0000
  H   H27       1.0  0.5165806884587667  0.024157696459347774  0.14459479130982092  1.0000
  H   H28       1.0  0.5250572657251666  0.040691030182564855  0.1923135116807941  1.0000
  H   H29       1.0  0.20922740544047258  0.9583118982706583  0.8311954473948475  1.0000
  H   H30       1.0  0.20589505093926166  0.025880633761147527  0.8594036606565254  1.0000
  H   H31       1.0  0.542963738721937  0.7951778618360524  0.9162682649616515  1.0000
  H   H32       1.0  0.5507540615512526  0.7325308724228421  0.883562813593386  1.0000
  H   H33       1.0  0.3110599281351867  0.5581124324568877  0.3947351414581419  1.0000
  H   H34       1.0  0.2313013738124354  0.5532390462549301  0.42591498591902177  1.0000
  H   H35       1.0  0.7684702397282591  0.522298511855546  0.6854079922069758  1.0000
  H   H36       1.0  0.8368405311221422  0.5176551148667344  0.643009496472466  1.0000
  H   H37       1.0  0.04551306101409839  0.26719380848756913  0.6857533771968461  1.0000
  H   H38       1.0  0.021156437847331202  0.3353658597871388  0.6430715268033964  1.0000
  H   H39       1.0  0.742605007616845  0.8026414815347426  0.3858309426275072  1.0000
  H   H40       1.0  0.7954210109194051  0.7246786079889135  0.4189193003175333  1.0000
  H   H41       1.0  0.7282252986295673  0.48231152841373176  0.0650111147103445  1.0000
  H   H42       1.0  0.7349269169164501  0.41362829118030964  0.10739085710995516  1.0000
  H   H43       1.0  0.1444534286174886  0.08531460840087852  0.22694335405288513  1.0000
  H   H44       1.0  0.04623063166521041  0.11655743771115822  0.23960337932056325  1.0000
  H   H45       1.0  0.5166997903827523  0.4369905689453476  0.854857533757148  1.0000
  H   H46       1.0  0.4562928776485434  0.523662225808373  0.8301211482350014  1.0000
  H   H47       1.0  0.9266371420175759  0.7018425389715763  0.8441978869825776  1.0000
  H   H48       1.0  0.0155314210559467  0.6985644179381227  0.8221206111647916  1.0000
  C   C1        1.0  0.0593553889484113  0.3156748097493038  0.5626072070389226  1.0000
  C   C2        1.0  0.0701357277971724  0.5708822548439375  0.5691196630467559  1.0000
  C   C3        1.0  0.1850237478391179  0.43905033865983983  0.4393566689192382  1.0000
  C   C4        1.0  0.9366979176772858  0.685026345930702  0.43857385894080647  1.0000
  C   C5        1.0  0.9287018674810386  0.4326502776112877  0.43011681833659315  1.0000
  C   C6        1.0  0.8166812331030825  0.5623995238801599  0.5629570364743302  1.0000
  C   C7        1.0  0.5651721056856688  0.31228090676467707  0.3112100659475986  1.0000
  C   C8        1.0  0.6820848593815186  0.18046030662491572  0.17933570884780184  1.0000
  C   C9        1.0  0.688493383663328  0.4340409281727207  0.18768301220635664  1.0000
  C   C10       1.0  0.9356595878426005  0.18709793072118017  0.18923613337439357  1.0000
  C   C11       1.0  0.8220702596302658  0.3177574660351967  0.3193257540087373  1.0000
  C   C12       1.0  0.810090873955069  0.06558108002290208  0.3111550379974801  1.0000
  C   C13       1.0  0.4344504217516628  0.686922015069669  0.6887402124382049  1.0000
  C   C14       1.0  0.31787076255886865  0.8222170217458498  0.8195499713239016  1.0000
  C   C15       1.0  0.18960875130949253  0.9334250223300274  0.6885741613139446  1.0000
  C   C16       1.0  0.0654607198797947  0.8096726082484342  0.8120740153451891  1.0000
  C   C17       1.0  0.1792748354461366  0.679807771187413  0.6814864813840629  1.0000
  C   C18       1.0  0.3135086817880151  0.5658276075932992  0.8123781962739544  1.0000
  C   C19       1.0  0.4392794507307726  0.18357602537795267  0.938283600059954  1.0000
  C   C20       1.0  0.4315004110435865  0.9282156762232605  0.9309664149511576  1.0000
  C   C21       1.0  0.6838227658133177  0.9392376297099716  0.9382091643235883  1.0000
  C   C22       1.0  0.5624948725022137  0.815585851643867  0.06132047108056337  1.0000
  C   C23       1.0  0.5690960526325384  0.06816848500813692  0.0706767551468985  1.0000
  C   C24       1.0  0.31569479151743  0.06216790106068267  0.061210443888271  1.0000
  C   C25       1.0  0.8999215406196017  0.4064463506129814  0.40081278514750096  1.0000
  C   C26       1.0  0.852597500806091  0.3457659323819587  0.3468206410756737  1.0000
  C   C27       1.0  0.8275241550847807  0.4504988006851465  0.38600823643229637  1.0000
  C   C28       1.0  0.9256085029024633  0.30237609775155533  0.3609891166759952  1.0000
  C   C29       1.0  0.8065087739728654  0.417838382513793  0.3594629187137102  1.0000
  C   C30       1.0  0.9463481619261955  0.3347545461170402  0.3878158630637145  1.0000
  C   C31       1.0  0.09768142747864059  0.6014798095119718  0.5967648387812831  1.0000
  C   C32       1.0  0.14856591808245406  0.6522734681648432  0.6538624213345727  1.0000
  C   C33       1.0  0.14024050387894957  0.6460720935650673  0.5819595310129131  1.0000
  C   C34       1.0  0.1043893290513509  0.6093247888416544  0.6686753863782329  1.0000
  C   C35       1.0  0.16473058728725218  0.6693514058369135  0.6115061487905037  1.0000
  C   C36       1.0  0.08109423232423302  0.5849246339765417  0.6391712699753356  1.0000
  C   C37       1.0  0.30367248094692906  0.45563613441471057  0.4023036287974834  1.0000
  C   C38       1.0  0.4459212835277242  0.29757347103790016  0.3493362731457951  1.0000
  C   C39       1.0  0.2591346727375878  0.4140480934298195  0.4152787015380852  1.0000
  C   C40       1.0  0.49040546308098953  0.33772345288181077  0.3363773516742087  1.0000
  C   C41       1.0  0.377873055884983  0.3400881560542289  0.37326659483944274  1.0000
  C   C42       1.0  0.37186234663365514  0.41205236734857226  0.3780977362760751  1.0000
  C   C43       1.0  0.7280886661551308  0.5764914234293672  0.6303803040654757  1.0000
  C   C44       1.0  0.5251531385300366  0.6721315702640925  0.6217879207853017  1.0000
  C   C45       1.0  0.7429163176800416  0.5875085460327868  0.5873533110206423  1.0000
  C   C46       1.0  0.5096711052688504  0.6617506480936729  0.6641016568536388  1.0000
  C   C47       1.0  0.6044500600123044  0.6409473980144825  0.6092824251754009  1.0000
  C   C48       1.0  0.6479413773044554  0.6074987757386624  0.6424378837572534  1.0000
  C   C49       1.0  0.07318305725922872  0.2267427927605468  0.6299921821669726  1.0000
  C   C50       1.0  0.17474072960911263  0.024022770627702528  0.6216258212662639  1.0000
  C   C51       1.0  0.0835286636155317  0.24168720917317907  0.5869457648644669  1.0000
  C   C52       1.0  0.1645638798529347  0.008597355979972632  0.663942214114961  1.0000
  C   C53       1.0  0.14182332927501312  0.10326409968858745  0.6090179834130538  1.0000
  C   C54       1.0  0.1071131666242238  0.1467063502698168  0.6421307993001478  1.0000
  C   C55       1.0  0.8415825597052801  0.8004645359912534  0.3985245707135618  1.0000
  C   C56       1.0  0.9032446592967746  0.9494193085385165  0.3520232964783077  1.0000
  C   C57       1.0  0.9118069884736641  0.7589765306705806  0.41444034348681674  1.0000
  C   C58       1.0  0.8343903785657217  0.9908117356524363  0.3362018381721938  1.0000
  C   C59       1.0  0.9064745787724177  0.8799694540278654  0.37458773608734225  1.0000
  C   C60       1.0  0.8396991177525663  0.8699563991434619  0.3755749808652808  1.0000
  C   C61       1.0  0.6558053189980698  0.15132147783477753  0.15031307292705515  1.0000
  C   C62       1.0  0.5981683083485692  0.09446079124388988  0.09966150558742025  1.0000
  C   C63       1.0  0.6712003214634875  0.16531799502092798  0.10669628694124361  1.0000
  C   C64       1.0  0.5842149249318426  0.07899448956367647  0.1432804431546302  1.0000
  C   C65       1.0  0.6408988743901816  0.13643341528132438  0.08292095212652134  1.0000
  C   C66       1.0  0.6135348457154137  0.10892010076397467  0.16704721107178952  1.0000
  C   C67       1.0  0.6736757709454863  0.5222349152274436  0.12006840138882069  1.0000
  C   C68       1.0  0.5762657855026561  0.725219952350841  0.12820862486444184  1.0000
  C   C69       1.0  0.6624710651790835  0.507692715014166  0.1631442594383188  1.0000
  C   C70       1.0  0.587315744411768  0.7404277486963126  0.0858965357707717  1.0000
  C   C71       1.0  0.6077502465389839  0.6460102208872129  0.1408784742786651  1.0000
  C   C72       1.0  0.6419451814495716  0.6023255933293329  0.10782636794175464  1.0000
  C   C73       1.0  0.0810737727395576  0.12229283104173312  0.1786336244708693  1.0000
  C   C74       1.0  0.1700032273621446  0.126425573280642  0.073023514929055  1.0000
  C   C75       1.0  0.009076013551052099  0.1620685879574709  0.1645183226633193  1.0000
  C   C76       1.0  0.24115611601256148  0.08713474937581375  0.08647627704663563  1.0000
  C   C77       1.0  0.11146471828162419  0.13978876660718956  0.10635257940133867  1.0000
  C   C78       1.0  0.13932797213835363  0.11013626751957878  0.1446459898091561  1.0000
  C   C79       1.0  0.3440513316679983  0.8510896274711969  0.8487001265813063  1.0000
  C   C80       1.0  0.40402702801294055  0.8980633952456292  0.9030866969122472  1.0000
  C   C81       1.0  0.2994802193220067  0.9232859219155506  0.863725704922132  1.0000
  C   C82       1.0  0.4477773303356186  0.8250679820433505  0.8888657816575288  1.0000
  C   C83       1.0  0.33209296420642426  0.9442667698638875  0.8903241339670912  1.0000
  C   C84       1.0  0.4158191210749393  0.8047423324114433  0.8616443940924583  1.0000
  C   C85       1.0  0.4075219324941983  0.450645175780352  0.8531807854695687  1.0000
  C   C86       1.0  0.3463862336562116  0.3003127403825163  0.897331180694785  1.0000
  C   C87       1.0  0.3375907731791656  0.4923707741997563  0.8370218356904644  1.0000
  C   C88       1.0  0.4149853589621059  0.2585610334593016  0.9133680974307482  1.0000
  C   C89       1.0  0.34338442667978336  0.3700319526180422  0.8752020330089039  1.0000
  C   C90       1.0  0.4098646056572761  0.3801693099955089  0.8749717245849739  1.0000
  C   C91       1.0  0.9471472130732649  0.7930928974415681  0.849618529944756  1.0000
  C   C92       1.0  0.8033789614941186  0.9534954622328231  0.9003525543585839  1.0000
  C   C93       1.0  0.9921915569998703  0.8341741424899073  0.8368991593348127  1.0000
  C   C94       1.0  0.758481385165105  0.9137962299266252  0.9131163990036414  1.0000
  C   C95       1.0  0.8718897805032099  0.9101760199532765  0.8770361418007865  1.0000
  C   C96       1.0  0.8779111302211078  0.8379866047048241  0.8726268723021138  1.0000
  S   S1        1.0  0.3004532320758955  0.3239304794654103  0.3984064781861605  1.0000
  S   S2        1.0  0.44997686158804123  0.4272640547104488  0.35328911085722575  1.0000
  S   S3        1.0  0.6606947636884116  0.6352206478426229  0.5626224872794764  1.0000
  S   S4        1.0  0.5912224870002091  0.6144383954492627  0.6889589504374953  1.0000
  S   S5        1.0  0.13317241286704024  0.15948274511271882  0.5622765377438909  1.0000
  S   S6        1.0  0.11468377732014545  0.09011047534934859  0.6887152326532942  1.0000
  S   S7        1.0  0.9731306217466481  0.8046003043055524  0.4017474808225643  1.0000
  S   S8        1.0  0.7730201213170745  0.9459212408703835  0.3487902350837402  1.0000
  S   S9        1.0  0.6135782710781328  0.5901296923526975  0.18764642688407213  1.0000
  S   S10       1.0  0.6356200729269474  0.6587043799910292  0.06121457665081212  1.0000
  S   S11       1.0  0.013278852837437698  0.18312838465252673  0.1110615260612988  1.0000
  S   S12       1.0  0.23744271213424636  0.06576780394080124  0.13962698417282132  1.0000
  S   S13       1.0  0.27649371980518817  0.44648234778807017  0.8487251626885168  1.0000
  S   S14       1.0  0.4760316568906544  0.30387537032892475  0.9018831568261374  1.0000
  S   S15       1.0  0.9507738323689738  0.9247892322995955  0.8531681163451951  1.0000
  S   S16       1.0  0.7992681912906506  0.823507066621737  0.8971070265398282  1.0000
  N   N1        1.0  0.7794455893427638  0.5231236317484048  0.3956195597051818  1.0000
  N   N2        1.0  0.9764200383390644  0.2324306092346477  0.3486922196449811  1.0000
  N   N3        1.0  0.15601881941979906  0.6682704860044525  0.5409567788425704  1.0000
  N   N4        1.0  0.08221551240662711  0.5933413122648336  0.7098937061935189  1.0000
  N   N5        1.0  0.7154271701029273  0.20313880824244296  0.0876164328276872  1.0000
  N   N6        1.0  0.5461276025531843  0.03505191403210992  0.162447497179393  1.0000
  N   N7        1.0  0.22694029053624826  0.9707968135206858  0.8543359826436968  1.0000
  N   N8        1.0  0.5172191072578157  0.7741519009901835  0.9014677466287965  1.0000
  N   N9        1.0  0.28561697515190343  0.526064932748156  0.41247905485273867  1.0000
  N   N10       1.0  0.7823977244289183  0.5435111337681918  0.6566119091609792  1.0000
  N   N11       1.0  0.0340415352894254  0.28073739812832343  0.6562526016802437  1.0000
  N   N12       1.0  0.7831410406057911  0.7788103767230372  0.4051318087065212  1.0000
  N   N13       1.0  0.7076312105674134  0.4678602623136715  0.09386881657545136  1.0000
  N   N14       1.0  0.0932291186563106  0.09694985074238364  0.21867503273516326  1.0000
  N   N15       1.0  0.4633821792963672  0.4751768083432925  0.8496079751710965  1.0000
  N   N16       1.0  0.9677030594098638  0.7204201791611174  0.8422264165665042  1.0000
  O   O1        1.0  0.0003252507441047015  0.498874190478233  0.5004575183647403  1.0000
  O   O2        1.0  0.07487793893576371  0.3170193136889807  0.5235141266260116  1.0000
  O   O3        1.0  0.034460985071554304  0.5296441819775525  0.5855848181539188  1.0000
  O   O4        1.0  0.15679241432009414  0.5065546426409783  0.4506711955556923  1.0000
  O   O5        1.0  0.024101249095956196  0.37475373644556964  0.5824041471786644  1.0000
  O   O6        1.0  0.15286050591522124  0.39297792185391267  0.447525774980484  1.0000
  O   O7        1.0  0.08388531047641119  0.5873131991031856  0.5301185685066158  1.0000
  O   O8        1.0  0.004085555555754201  0.6558211208711812  0.4493290611806984  1.0000
  O   O9        1.0  0.8852594717037761  0.49791737417385223  0.44282127407648636  1.0000
  O   O10       1.0  0.8892723111355068  0.6537026540076315  0.4474215798123852  1.0000
  O   O11       1.0  0.9945486265166749  0.3890049195997068  0.44120783635329985  1.0000
  O   O12       1.0  0.8760937489057383  0.527193302567618  0.5824084366811917  1.0000
  O   O13       1.0  0.8173632667562317  0.5767933503674033  0.5238141460567505  1.0000
  O   O14       1.0  0.7485315548249287  0.2501590076343523  0.2506247364285699  1.0000
  O   O15       1.0  0.5961855942830141  0.3592164520457718  0.3029931702641094  1.0000
  O   O16       1.0  0.6639772604157129  0.16569606487631475  0.2178119040235629  1.0000
  O   O17       1.0  0.7249969266772779  0.37479474865180884  0.1681250054549963  1.0000
  O   O18       1.0  0.592198262803926  0.2457613285718666  0.3000067017263177  1.0000
  O   O19       1.0  0.673840967587168  0.43295983521885284  0.22683338813936874  1.0000
  O   O20       1.0  0.7213408966414505  0.21920505359133108  0.16417076438279568  1.0000
  O   O21       1.0  0.8764732924552234  0.2249767314635564  0.17031761610083151  1.0000
  O   O22       1.0  0.863915218652302  0.25090937566086796  0.3081628540471685  1.0000
  O   O23       1.0  0.9351224020121763  0.1696256437707435  0.2286097859586746  1.0000
  O   O24       1.0  0.7560077556033917  0.3612091442614303  0.3084350387627381  1.0000
  O   O25       1.0  0.7438790717554085  0.09327257452072521  0.29937145837443785  1.0000
  O   O26       1.0  0.8573827063335102  0.09602978318947934  0.3035031406778117  1.0000
  O   O27       1.0  0.25129966607121906  0.7499807191477007  0.7496156682369772  1.0000
  O   O28       1.0  0.3764364145782366  0.7231345494197471  0.6691123596181399  1.0000
  O   O29       1.0  0.36276625589670886  0.7572848395934177  0.8074844578076394  1.0000
  O   O30       1.0  0.17313843284516386  0.9336454925079001  0.7275464048866667  1.0000
  O   O31       1.0  0.43438105676180777  0.6702121013804716  0.7277217254365667  1.0000
  O   O32       1.0  0.2249849122349943  0.8751994413405916  0.6690445722451487  1.0000
  O   O33       1.0  0.2515156845396831  0.8641943208152301  0.8079383650881766  1.0000
  O   O34       1.0  0.09643873028495162  0.8568429072739081  0.8029333369589793  1.0000
  O   O35       1.0  0.16516241050478433  0.6636657104080258  0.7204839640355161  1.0000
  O   O36       1.0  0.09423141138636738  0.7421568172930295  0.8007917754659388  1.0000
  O   O37       1.0  0.21829143675222437  0.7176919726598502  0.6649734898665756  1.0000
  O   O38       1.0  0.36015567928156134  0.5980493096608441  0.8045647471260723  1.0000
  O   O39       1.0  0.2475197330767216  0.5934405640164969  0.8000244135250726  1.0000
  O   O40       1.0  0.49961571078335254  0.0009346762441282707  0.9997753531491326  1.0000
  O   O41       1.0  0.5060535654792774  0.15566290923345608  0.9494339569443611  1.0000
  O   O42       1.0  0.3882620052121339  0.9946542983724672  0.9415458864385472  1.0000
  O   O43       1.0  0.6524295160021083  0.8926086386964874  0.9455532319190851  1.0000
  O   O44       1.0  0.39177322049473423  0.15345010226626246  0.9464865462377221  1.0000
  O   O45       1.0  0.6572285333924057  0.004803556390420905  0.9504522754923103  1.0000
  O   O46       1.0  0.497600968846001  0.8857657302091444  0.9428407931481219  1.0000
  O   O47       1.0  0.5814998032207511  0.8159854035788571  0.02243764437734096  1.0000
  O   O48       1.0  0.5295413352757662  0.029732406876860365  0.08594480351285941  1.0000
  O   O49       1.0  0.5241557861452718  0.8736357528181959  0.08077387193144146  1.0000
  O   O50       1.0  0.5847416332589501  0.08520785881430751  0.0321532962195192  1.0000
  O   O51       1.0  0.31569895335078246  0.0784162155657882  0.02233274454624021  1.0000
  O   O52       1.0  0.3740151646950808  0.02595092824866192  0.08081077977598031  1.0000
