data_image0
_chemical_formula_structural       AlH24C45Cl3O6
_chemical_formula_sum              "Al1 H24 C45 Cl3 O6"
_cell_length_a       3.9684197164642256
_cell_length_b       23.578395655918023
_cell_length_c       23.54883201630103
_cell_angle_alpha    60.07766065690271
_cell_angle_beta     87.72293818038642
_cell_angle_gamma    87.51788173331269

_space_group_name_H-M_alt    "P 1"
_space_group_IT_number       1

loop_
  _space_group_symop_operation_xyz
  'x, y, z'

loop_
  _atom_site_type_symbol
  _atom_site_label
  _atom_site_symmetry_multiplicity
  _atom_site_fract_x
  _atom_site_fract_y
  _atom_site_fract_z
  _atom_site_occupancy
  Al  Al1       1.0  0.9999750609627966  0.49993317372950213  0.49981200104471685  1.0000
  H   H1        1.0  0.4920056909139631  0.32127877697620744  0.677645472532376  1.0000
  H   H2        1.0  0.48838613441783707  0.25711977580989753  0.7981633452607041  1.0000
  H   H3        1.0  0.8263306503523964  0.16333662060359438  0.01654560611544301  1.0000
  H   H4        1.0  0.4451573762744376  0.6855663965175651  0.31524122041111  1.0000
  H   H5        1.0  0.5014783516567576  0.8053748564770091  0.25842817374587657  1.0000
  H   H6        1.0  0.24709394570648877  0.893576355670902  0.23118339148011574  1.0000
  H   H7        1.0  0.24344315373151906  0.012736561622539  0.16685961506342298  1.0000
  H   H8        1.0  0.5110234740071886  0.1063406589428482  0.10494506235539801  1.0000
  H   H9        1.0  0.5186955088870704  0.6771503394722487  0.5009696622169955  1.0000
  H   H10       1.0  0.5091570000955346  0.7973089463928458  0.44540913953975564  1.0000
  H   H11       1.0  0.8073733131244437  0.016248284104477796  0.31759918441944274  1.0000
  H   H12       1.0  0.5230031268947002  0.3155588432094164  0.49900218557349507  1.0000
  H   H13       1.0  0.5803941493756424  0.2583564144257194  0.4351656481084873  1.0000
  H   H14       1.0  0.2844917956643869  0.233399271461245  0.37762818637712303  1.0000
  H   H15       1.0  0.2634606703130089  0.16909094522201676  0.32245837380283154  1.0000
  H   H16       1.0  0.5353481723905843  0.1052491855304964  0.2879294420320519  1.0000
  H   H17       1.0  0.5542506081103085  0.500958613213072  0.32015406474884134  1.0000
  H   H18       1.0  0.5509312019337997  0.4444427460099052  0.25604680575322186  1.0000
  H   H19       1.0  0.8566034152984585  0.3139232607482824  0.16238271841164226  1.0000
  H   H20       1.0  0.47879919434460316  0.49975433517649037  0.6856092414951577  1.0000
  H   H21       1.0  0.5286652814122235  0.4354213880191153  0.8060225592420663  1.0000
  H   H22       1.0  0.2265601253115932  0.3765875948669617  0.8936373248300669  1.0000
  H   H23       1.0  0.2222724201982587  0.3209683049672165  0.013647978487334513  1.0000
  H   H24       1.0  0.538262743511865  0.2877575783423438  0.10611115355285256  1.0000
  C   C1        1.0  0.48848701730285876  0.45151534028357077  0.6007388168416625  1.0000
  C   C2        1.0  0.5240236014257036  0.4478556111079471  0.450879107103617  1.0000
  C   C3        1.0  0.4862507461656023  0.6006362096815394  0.4476783197730541  1.0000
  C   C4        1.0  0.4952808394866325  0.3461591561111064  0.7061578272387266  1.0000
  C   C5        1.0  0.4995521004803294  0.3100295362335003  0.7741329655058422  1.0000
  C   C6        1.0  0.6877664735443362  0.24151926290288372  0.9221958901786563  1.0000
  C   C7        1.0  0.686986257479589  0.2097556304963959  0.9903528240826346  1.0000
  C   C8        1.0  0.46688362912592385  0.7103585374751374  0.3435247596355211  1.0000
  C   C9        1.0  0.4932889091527811  0.7780999569686031  0.31184883560585774  1.0000
  C   C10       1.0  0.37972683627943843  0.9203067184476695  0.2497428513956237  1.0000
  C   C11       1.0  0.37686018410270344  0.988158995221859  0.21301287063612062  1.0000
  C   C12       1.0  0.48696231299146575  0.4146023164749549  0.6737373901815928  1.0000
  C   C13       1.0  0.5159495794707424  0.3408554572839577  0.8119208642664474  1.0000
  C   C14       1.0  0.5277606810462245  0.303502084885352  0.8843703116684694  1.0000
  C   C15       1.0  0.5239599093527545  0.237236428384243  0.02507870165177199  1.0000
  C   C16       1.0  0.5233569821751728  0.20116383928964862  0.09741382670036101  1.0000
  C   C17       1.0  0.5183204482894083  0.13256489965021254  0.1320844047763501  1.0000
  C   C18       1.0  0.508193481802472  0.7057719015285784  0.44767439978916457  1.0000
  C   C19       1.0  0.5103784966954309  0.7736329618102715  0.4160248317783371  1.0000
  C   C20       1.0  0.6763974763308126  0.9222000098035962  0.33481814351757316  1.0000
  C   C21       1.0  0.6762137853997386  0.9902435880378279  0.29812395549992493  1.0000
  C   C22       1.0  0.5369689762462428  0.34362815954509773  0.44559098668451463  1.0000
  C   C23       1.0  0.5643125959989846  0.3117107680119346  0.4092816845732444  1.0000
  C   C24       1.0  0.419603738904641  0.25040098165588626  0.33096574215761626  1.0000
  C   C25       1.0  0.40768268087484927  0.21375001498889648  0.2998260477615062  1.0000
  C   C26       1.0  0.4838099039565761  0.6734239342298878  0.4118846140562056  1.0000
  C   C27       1.0  0.5138389767998817  0.8116362160806574  0.34716860737329813  1.0000
  C   C28       1.0  0.5284339064507719  0.8839933739465524  0.31193253507281316  1.0000
  C   C29       1.0  0.5250887922285017  0.024922438392991395  0.23692018062626366  1.0000
  C   C30       1.0  0.5234633720013164  0.09720441159766581  0.200677241130542  1.0000
  C   C31       1.0  0.5324035836861043  0.13200980927275907  0.2345467750772343  1.0000
  C   C32       1.0  0.5546393499088254  0.4476320201593325  0.3451321251002071  1.0000
  C   C33       1.0  0.5598352073065839  0.4155372943843147  0.3090922405097131  1.0000
  C   C34       1.0  0.7336643511799891  0.332426539984489  0.24086476547550723  1.0000
  C   C35       1.0  0.7241555918264666  0.2958493993047782  0.20937713156563825  1.0000
  C   C36       1.0  0.48666168673152294  0.4463832740528348  0.7105024814424822  1.0000
  C   C37       1.0  0.5102219248645881  0.4098323078917403  0.7784376333148798  1.0000
  C   C38       1.0  0.36631380900400495  0.3302310193518778  0.9206350875619408  1.0000
  C   C39       1.0  0.3634478173649924  0.2988235671048685  0.9886265120116846  1.0000
  C   C40       1.0  0.5388804734395335  0.412047220677529  0.4136381867419843  1.0000
  C   C41       1.0  0.573034064923675  0.3467656819651239  0.34019080596738854  1.0000
  C   C42       1.0  0.5810567580554249  0.3110552688443207  0.3032800511022984  1.0000
  C   C43       1.0  0.5585069614955529  0.2363453638323563  0.23753544905815  1.0000
  C   C44       1.0  0.5403934803054825  0.20044148800252512  0.20134164048645425  1.0000
  C   C45       1.0  0.533630562917601  0.23442892357208922  0.13266183344279633  1.0000
  Cl  Cl1       1.0  0.9511300534405436  0.40503604521887115  0.19802902571156272  1.0000
  Cl  Cl2       1.0  0.9079856757131779  0.19990450438407237  0.8880816158239355  1.0000
  Cl  Cl3       1.0  0.8792399412813836  0.8893541780061087  0.40936314723576556  1.0000
  O   O1        1.0  0.2606830289772759  0.5717586910077869  0.4350673969420241  1.0000
  O   O2        1.0  0.24870166797037288  0.49281377255310604  0.5718420457287009  1.0000
  O   O3        1.0  0.2836044609082649  0.435450378111085  0.492753085733483  1.0000
  O   O4        1.0  0.7170013386819392  0.5718204010120334  0.48983872639432485  1.0000
  O   O5        1.0  0.7522427835960812  0.48946705052740913  0.43752649292181184  1.0000
  O   O6        1.0  0.7325273667767932  0.43808378181350355  0.5720479100724202  1.0000
