data_image0
_chemical_formula_structural       Al4H32C64Br8O31
_chemical_formula_sum              "Al4 H32 C64 Br8 O31"
_cell_length_a       6.699976134412486
_cell_length_b       22.28964194857851
_cell_length_c       23.894980074285247
_cell_angle_alpha    112.91205320295624
_cell_angle_beta     92.24941224961482
_cell_angle_gamma    93.64141967147395

_space_group_name_H-M_alt    "P 1"
_space_group_IT_number       1

loop_
  _space_group_symop_operation_xyz
  'x, y, z'

loop_
  _atom_site_type_symbol
  _atom_site_label
  _atom_site_symmetry_multiplicity
  _atom_site_fract_x
  _atom_site_fract_y
  _atom_site_fract_z
  _atom_site_occupancy
  Al  Al1       1.0  0.1467758138576798  0.4985122439130977  0.5013908918246273  1.0000
  Al  Al2       1.0  0.6472744429121916  0.5008642517705368  0.5015625705131868  1.0000
  Al  Al3       1.0  0.6627282853409112  0.0013833906961409005  0.004279989223512399  1.0000
  Al  Al4       1.0  0.16185505088161284  0.9987046647468745  0.000473779039957426  1.0000
  H   H1        1.0  0.6108575365459785  0.8629259944322741  0.07390946909811902  1.0000
  H   H2        1.0  0.5944535136360898  0.7928155716518575  0.13407870525394833  1.0000
  H   H3        1.0  0.8625487108811993  0.8672496349269494  0.29743437132119505  1.0000
  H   H4        1.0  0.5868364605250845  0.617855870180307  0.41241997473451164  1.0000
  H   H5        1.0  0.1770970210961238  0.6495580725211242  0.30555231262000143  1.0000
  H   H6        1.0  0.6745975804903495  0.6819321038723417  0.6426452004325114  1.0000
  H   H7        1.0  0.5547564720185036  0.7869035819491617  0.7089489665260373  1.0000
  H   H8        1.0  0.1219575195815779  0.821375370526745  0.8612439392884639  1.0000
  H   H9        1.0  0.6143124275940579  0.324443449272998  0.3574866262050023  1.0000
  H   H10       1.0  0.7489058894591664  0.1336115394299497  0.1865498148570595  1.0000
  H   H11       1.0  0.7202996122606817  0.1872947220669303  0.843246438353276  1.0000
  H   H12       1.0  0.627907639464766  0.15443660384821814  0.7258891667520685  1.0000
  H   H13       1.0  0.1775243479907687  0.3325019125274551  0.7634760354780497  1.0000
  H   H14       1.0  0.1663803694665447  0.26724512328985384  0.8272430387175476  1.0000
  H   H15       1.0  0.09189493551253489  0.2984201276890062  0.6447057801618357  1.0000
  H   H16       1.0  0.08293883011839401  0.36677968505684794  0.5832831449202658  1.0000
  H   H17       1.0  0.713618881208795  0.4243089780368266  0.6306311783777899  1.0000
  H   H18       1.0  0.22862947211230994  0.5703155616415359  0.40835411603690375  1.0000
  H   H19       1.0  0.2484654636439672  0.58954831420089  0.6427799007176418  1.0000
  H   H20       1.0  0.1279769749015287  0.12423141487622763  0.10987310031946147  1.0000
  H   H21       1.0  0.9418872605248935  0.0779060182898945  0.8597085145736827  1.0000
  H   H22       1.0  0.06499498912951648  0.1566994250010652  0.7686868908451601  1.0000
  H   H23       1.0  0.7326968655641649  0.09197944058583123  0.9317850527097419  1.0000
  H   H24       1.0  0.32884858206372053  0.898450486090127  0.21830360584744568  1.0000
  H   H25       1.0  0.7364849848890598  0.33768225541933117  0.7264038900896209  1.0000
  H   H26       1.0  0.8405839664582188  0.8514209565664858  0.38565477230960704  1.0000
  H   H27       1.0  0.886700749619436  0.5943519700261531  0.22302745603514035  1.0000
  H   H28       1.0  0.4265623051735191  0.6708431079228491  0.36531619899491125  1.0000
  H   H29       1.0  0.41573523332620965  0.587035606076306  0.5261248859650963  1.0000
  H   H30       1.0  0.871722963934154  0.4171635244664387  0.4577460632190905  1.0000
  H   H31       1.0  0.39651429497479995  0.9180280572168513  0.9580916749107616  1.0000
  H   H32       1.0  0.9353695514077953  0.08115126856446152  0.004885328511768697  1.0000
  C   C1        1.0  0.36377254927131725  0.41269607938836833  0.4011220673461224  1.0000
  C   C2        1.0  0.3976099620152524  0.43618985175007213  0.5629142307649886  1.0000
  C   C3        1.0  0.9301115924036978  0.5917785998432805  0.6003684669781819  1.0000
  C   C4        1.0  0.8990896460087966  0.5659626449373718  0.43990810623996873  1.0000
  C   C5        1.0  0.7371080132813714  0.8635790080965793  0.10427808793946977  1.0000
  C   C6        1.0  0.7285381079794888  0.8249143218334751  0.13791388614392017  1.0000
  C   C7        1.0  0.8908958682927376  0.8258204596367165  0.17687380335998165  1.0000
  C   C8        1.0  0.06474994265156657  0.8673241817005679  0.18235548954123007  1.0000
  C   C9        1.0  0.07287286608285372  0.9061297014619071  0.14783403308327078  1.0000
  C   C10       1.0  0.910548035641298  0.9041781819573058  0.10794320190128547  1.0000
  C   C11       1.0  0.8654667804066559  0.8142449007212422  0.2758302378353719  1.0000
  C   C12       1.0  0.8569173488488886  0.7769138391197857  0.3109448096550124  1.0000
  C   C13       1.0  0.865997789662721  0.7088813964345279  0.28399524504909823  1.0000
  C   C14       1.0  0.8825303653626972  0.6788948703171018  0.22068807197868526  1.0000
  C   C15       1.0  0.8898282333276126  0.7166804160100639  0.18533437871064956  1.0000
  C   C16       1.0  0.8818734704591337  0.7845064398350703  0.21285972513543777  1.0000
  C   C17       1.0  0.7022837033445055  0.6607763279299022  0.3526203532257668  1.0000
  C   C18       1.0  0.7165132522219082  0.6260070589500872  0.38955626971219465  1.0000
  C   C19       1.0  0.8957109605235869  0.6009176156906549  0.39884060934036114  1.0000
  C   C20       1.0  0.06485754519568591  0.6103632861719249  0.3688617476489924  1.0000
  C   C21       1.0  0.047507732252434216  0.6428624440433455  0.3294319641000598  1.0000
  C   C22       1.0  0.8703724876192639  0.669855559293076  0.3219601570426036  1.0000
  C   C23       1.0  0.9540118961912681  0.6487469032140397  0.6594415350066071  1.0000
  C   C24       1.0  0.8527634414548401  0.8572774498868018  0.841275043583714  1.0000
  C   C25       1.0  0.6783877489496248  0.7942770782498841  0.7426225349691365  1.0000
  C   C26       1.0  0.6914163843508803  0.8478040551324854  0.7971144748254773  1.0000
  C   C27       1.0  0.9977063231902505  0.8128403439838862  0.8276419988534868  1.0000
  C   C28       1.0  0.9892269268922576  0.7573915471283784  0.7723351498213444  1.0000
  C   C29       1.0  0.8225869497317148  0.7476783575157955  0.7291133187439129  1.0000
  C   C30       1.0  0.8056055020126749  0.691738643023463  0.6743440821046889  1.0000
  C   C31       1.0  0.12799820996750097  0.6596947656456679  0.7004436748226154  1.0000
  C   C32       1.0  0.1366390297439324  0.7115859679667197  0.7571296490520965  1.0000
  C   C33       1.0  0.34567704899925633  0.3609490904996946  0.33791437183158723  1.0000
  C   C34       1.0  0.45311964467290267  0.14978320509473525  0.158938031755909  1.0000
  C   C35       1.0  0.632101038938863  0.21643342112346892  0.2546676813701083  1.0000
  C   C36       1.0  0.6260994406270796  0.16489528149083552  0.1994386929287941  1.0000
  C   C37       1.0  0.2886003444824823  0.18826359678820387  0.17432052698733003  1.0000
  C   C38       1.0  0.31094468823706467  0.2498589646469824  0.22596258453286566  1.0000
  C   C39       1.0  0.4802054195741263  0.2612766910917941  0.269006781689491  1.0000
  C   C40       1.0  0.4900924638341237  0.3166317595347438  0.3240701875421195  1.0000
  C   C41       1.0  0.18981333441838896  0.3539547983517651  0.2930950193241415  1.0000
  C   C42       1.0  0.17566013597019747  0.29994494702631164  0.23764779003583666  1.0000
  C   C43       1.0  0.22776242929605667  0.09324362716437663  0.85803981044144  1.0000
  C   C44       1.0  0.22401267083316867  0.13271296256911572  0.8241973474608315  1.0000
  C   C45       1.0  0.39999174522544917  0.16746050394010584  0.8193551861651612  1.0000
  C   C46       1.0  0.5811149447078136  0.16200819731994187  0.8476409106961569  1.0000
  C   C47       1.0  0.5852848260439387  0.1246919274748635  0.8824960462930918  1.0000
  C   C48       1.0  0.4075366460455427  0.09165687070176183  0.8907121820337734  1.0000
  C   C49       1.0  0.5307865066698695  0.1941142092777001  0.7349314956285865  1.0000
  C   C50       1.0  0.5334261664284341  0.23062090138429175  0.6989989216558286  1.0000
  C   C51       1.0  0.40794349069551566  0.281739756355897  0.7085006777701606  1.0000
  C   C52       1.0  0.2744258823873338  0.2927315215379949  0.754930636075521  1.0000
  C   C53       1.0  0.2675197218191342  0.25588203873069665  0.7904354753157675  1.0000
  C   C54       1.0  0.39828857422489244  0.20643124616200487  0.7814210259281396  1.0000
  C   C55       1.0  0.22784962992771804  0.32615761958483364  0.6414428602986675  1.0000
  C   C56       1.0  0.22182027749462208  0.3639923650403745  0.6070435619328904  1.0000
  C   C57       1.0  0.3987274641046595  0.3981696437162086  0.6020621060688781  1.0000
  C   C58       1.0  0.577428847134783  0.39657622650601354  0.6334794097979781  1.0000
  C   C59       1.0  0.5807446908366102  0.3603201103508127  0.6696060496860882  1.0000
  C   C60       1.0  0.406819497802175  0.32236240082088596  0.6721085146405982  1.0000
  C   C61       1.0  0.40841286401254706  0.0615073855204074  0.9358024301118563  1.0000
  C   C62       1.0  0.44518660838419777  0.0927450097090912  0.10070358500222198  1.0000
  C   C63       1.0  0.9121700875249272  0.9402628962212205  0.06693337281651421  1.0000
  C   C64       1.0  0.8752184476022008  0.9107987117028672  0.903427797724696  1.0000
  Br  Br1       1.0  0.35172606558814584  0.7191204850881051  0.8141395623470942  1.0000
  Br  Br2       1.0  0.49072494190809135  0.9074729770414651  0.8078940365199544  1.0000
  Br  Br3       1.0  0.010377147306790829  0.41993132803952465  0.3064190674248266  1.0000
  Br  Br4       1.0  0.8496483601112813  0.22741362671622775  0.312737697957175  1.0000
  Br  Br5       1.0  0.9857456387568675  0.29809776872330923  0.17586968094604316  1.0000
  Br  Br6       1.0  0.7039135772993814  0.20490298565744075  0.632754594596932  1.0000
  Br  Br7       1.0  0.3134318389904962  0.9624608737702972  0.16198751897771752  1.0000
  Br  Br8       1.0  0.9194253916009245  0.6741211167541367  0.10045114397936321  1.0000
  O   O1        1.0  0.5672162518823141  0.45396295580059143  0.5493075318225635  1.0000
  O   O2        1.0  0.20258624456631938  0.43166116297337714  0.42619982127177986  1.0000
  O   O3        1.0  0.07150091873887021  0.5526213998270323  0.4566031650212992  1.0000
  O   O4        1.0  0.22744937907826568  0.4476685550439257  0.5451434756263255  1.0000
  O   O5        1.0  0.09122503456111268  0.5654026772598257  0.5784804960982797  1.0000
  O   O6        1.0  0.5401495000117505  0.432052069716953  0.42638069379533766  1.0000
  O   O7        1.0  0.4042053314115178  0.5397955935077476  0.5108598991034725  1.0000
  O   O8        1.0  0.7561289470961085  0.5725687096296783  0.5744206444501145  1.0000
  O   O9        1.0  0.7320376409252276  0.5516775692841946  0.4570468536756778  1.0000
  O   O10       1.0  0.8867170683904108  0.460491261647313  0.4901613941615253  1.0000
  O   O11       1.0  0.26958475594316406  0.07038143378461112  0.0733474081321432  1.0000
  O   O12       1.0  0.5825390354071373  0.0537392645488879  0.9574926794739227  1.0000
  O   O13       1.0  0.716512164494233  0.932343504625443  0.9287405676546213  1.0000
  O   O14       1.0  0.6064864890901731  0.06926925185852181  0.0794989881397896  1.0000
  O   O15       1.0  0.7426852108279219  0.9532138636296992  0.050404704398338926  1.0000
  O   O16       1.0  0.24404411390463568  0.04758332987775302  0.9540214834178186  1.0000
  O   O17       1.0  0.40433027346809064  0.960769831403681  0.991335225001876  1.0000
  O   O18       1.0  0.0798074570828647  0.9536725083232586  0.04947276884957584  1.0000
  O   O19       1.0  0.053485498556995026  0.9290751713782799  0.9275675672025088  1.0000
  O   O20       1.0  0.9223750649335469  0.04090056177115292  0.011492535873323101  1.0000
  O   O21       1.0  0.246836313989256  0.5902938670146443  0.3778612262371794  1.0000
  O   O22       1.0  0.2782797349501677  0.619975073206547  0.686125842503202  1.0000
  O   O23       1.0  0.1113442177525101  0.1686663967228839  0.14247530669641148  1.0000
  O   O24       1.0  0.0639182637069595  0.05421752721809272  0.8567153235573173  1.0000
  O   O25       1.0  0.04339445703399041  0.13175126180870936  0.7940243954038664  1.0000
  O   O26       1.0  0.7652470889690406  0.12138330372392403  0.9094310217114341  1.0000
  O   O27       1.0  0.2203047257502888  0.8678054215226682  0.22079150832316696  1.0000
  O   O28       1.0  0.7562154309071333  0.36448057115720195  0.7027317272372713  1.0000
  O   O29       1.0  0.8464497053843087  0.8044749349251461  0.37293426872115276  1.0000
  O   O30       1.0  0.8919412877423412  0.6131322620774284  0.19221839221557246  1.0000
  O   O31       1.0  0.5287106418824763  0.6863863427672501  0.34482388756780574  1.0000
