data_image0
_chemical_formula_structural       CdH20C8N14
_chemical_formula_sum              "Cd1 H20 C8 N14"
_cell_length_a       7.157583525413017
_cell_length_b       8.036965709802953
_cell_length_c       8.245486726582277
_cell_angle_alpha    61.46102254495143
_cell_angle_beta     65.78169859359087
_cell_angle_gamma    74.51482004586708

_space_group_name_H-M_alt    "P 1"
_space_group_IT_number       1

loop_
  _space_group_symop_operation_xyz
  'x, y, z'

loop_
  _atom_site_type_symbol
  _atom_site_label
  _atom_site_symmetry_multiplicity
  _atom_site_fract_x
  _atom_site_fract_y
  _atom_site_fract_z
  _atom_site_occupancy
  Cd  Cd1       1.0  0.9999978613746949  0.5000020608746992  0.5000001651317659  1.0000
  H   H1        1.0  0.5217946913536553  0.34008993147668315  0.42214217908137636  1.0000
  H   H2        1.0  0.4782035045345481  0.6599066924058192  0.5778606769190802  1.0000
  H   H3        1.0  0.6438748855105346  0.45494942281290196  0.16537069826701872  1.0000
  H   H4        1.0  0.35612350341217086  0.5450457359842459  0.8346291456061792  1.0000
  H   H5        1.0  0.31130470504824354  0.6327180927469626  0.149024396111038  1.0000
  H   H6        1.0  0.6887010512051717  0.36727992570742163  0.850972749902155  1.0000
  H   H7        1.0  0.3196419497747059  0.08037971530394829  0.5621863970634492  1.0000
  H   H8        1.0  0.6803532013367573  0.9196168935690565  0.43781630982766023  1.0000
  H   H9        1.0  0.3917660580677876  0.666809496200379  0.28903038069694287  1.0000
  H   H10       1.0  0.6082381286446363  0.333188550761669  0.710969722390871  1.0000
  H   H11       1.0  0.29713924672301323  0.9915619553229861  0.41156241720202047  1.0000
  H   H12       1.0  0.7028525867090283  0.008437482281450998  0.5884388889239601  1.0000
  H   H13       1.0  0.37319576630943635  0.327258140468686  0.12922616743348672  1.0000
  H   H14       1.0  0.6268021943981664  0.6727412983448244  0.870773011607753  1.0000
  H   H15       1.0  0.9790622922740654  0.11027289014951691  0.5999743977360552  1.0000
  H   H16       1.0  0.020930508310421217  0.8897322496440195  0.40002508595888747  1.0000
  H   H17       1.0  0.0154094723024372  0.22109312904808584  0.3623519599072011  1.0000
  H   H18       1.0  0.9845866459614784  0.7789091820140254  0.6376489245528705  1.0000
  H   H19       1.0  0.5752447523943334  0.1706455465122048  0.2053773266563609  1.0000
  H   H20       1.0  0.42475216571661895  0.8293482477320637  0.7946285254227944  1.0000
  C   C1        1.0  0.7379976416001172  0.8807409958144703  0.01885446906342012  1.0000
  C   C2        1.0  0.26200846055614585  0.119268469930752  0.9811432018140209  1.0000
  C   C3        1.0  0.4965207837681974  0.4051964261410959  0.2806291459017558  1.0000
  C   C4        1.0  0.5034807863825819  0.5947973257950848  0.7193714729086765  1.0000
  C   C5        1.0  0.4340388240112035  0.25659206499251747  0.25194084160478514  1.0000
  C   C6        1.0  0.5659579953705034  0.743403122312287  0.7480619593430334  1.0000
  C   C7        1.0  0.28149409294715605  0.12169552890205888  0.4311555041729918  1.0000
  C   C8        1.0  0.718499408755129  0.8783024871341777  0.5688458960097053  1.0000
  N   N1        1.0  0.9354215841093136  0.8661566463941168  0.9019561288174316  1.0000
  N   N2        1.0  0.0645836263387096  0.1338470595421413  0.09803851388419102  1.0000
  N   N3        1.0  0.035082969016606604  0.7390324679023691  0.022875752213316607  1.0000
  N   N4        1.0  0.9649202625363742  0.2609755321529477  0.9771199700792438  1.0000
  N   N5        1.0  0.9003963067923737  0.6793194336546337  0.20706520169747464  1.0000
  N   N6        1.0  0.0996071788022519  0.3206857370647214  0.792932984902592  1.0000
  N   N7        1.0  0.713536910230772  0.7651416550932524  0.20943507004972137  1.0000
  N   N8        1.0  0.2864653918918663  0.23486061396303626  0.7905600493704482  1.0000
  N   N9        1.0  0.5914738695446786  0.005598274782869302  0.9390099460421341  1.0000
  N   N10       1.0  0.40852814081421224  0.994406852419317  0.060985134373964967  1.0000
  N   N11       1.0  0.3374833600792044  0.5664333714208071  0.2802773235307328  1.0000
  N   N12       1.0  0.6625238902709967  0.43356467614578514  0.7197217160147105  1.0000
  N   N13       1.0  0.06565827694758038  0.20620546078400537  0.46899291686639794  1.0000
  N   N14       1.0  0.9343378601773865  0.7937968358731378  0.5310067549419559  1.0000
