data_image0
_chemical_formula_structural       Al4H33C68O40F15
_chemical_formula_sum              "Al4 H33 C68 O40 F15"
_cell_length_a       6.702146857229831
_cell_length_b       20.10022194957403
_cell_length_c       24.09956465481025
_cell_angle_alpha    89.56533932587548
_cell_angle_beta     94.8489163504507
_cell_angle_gamma    90.98090332511394

_space_group_name_H-M_alt    "P 1"
_space_group_IT_number       1

loop_
  _space_group_symop_operation_xyz
  'x, y, z'

loop_
  _atom_site_type_symbol
  _atom_site_label
  _atom_site_symmetry_multiplicity
  _atom_site_fract_x
  _atom_site_fract_y
  _atom_site_fract_z
  _atom_site_occupancy
  Al  Al1       1.0  0.1313925964363705  0.5014856743960081  0.4997540462726919  1.0000
  Al  Al2       1.0  0.6307846745870691  0.4953773759209811  0.49712335129911633  1.0000
  Al  Al3       1.0  0.7225391883526341  0.9997380151540511  0.0003053125161543019  1.0000
  Al  Al4       1.0  0.2245046124473831  0.0006416721726765003  0.0023866638535637017  1.0000
  H   H1        1.0  0.7354751534146403  0.7146552210950077  0.5121895626231777  1.0000
  H   H2        1.0  0.6533824304125773  0.8690345930769681  0.6556980573591034  1.0000
  H   H3        1.0  0.6721662649092225  0.8161179206568864  0.5674936071093769  1.0000
  H   H4        1.0  0.21551437534636617  0.33220017322250345  0.7501982356303573  1.0000
  H   H5        1.0  0.9895230516729965  0.1398474060134092  0.7331774495063855  1.0000
  H   H6        1.0  0.6251841425169502  0.24780064461956647  0.7958002280079911  1.0000
  H   H7        1.0  0.36732127368991735  0.7974517622369675  0.3432430466154202  1.0000
  H   H8        1.0  0.5346658260953063  0.3642513602281525  0.35715328417717984  1.0000
  H   H9        1.0  0.9410105646180256  0.1784986168530196  0.29022969164304874  1.0000
  H   H10       1.0  0.2903095294336778  0.16388887095526172  0.8229899034341273  1.0000
  H   H11       1.0  0.10461978000953559  0.29816001161200495  0.8542382564946608  1.0000
  H   H12       1.0  0.204677215057707  0.23077421062650674  0.6711312902807833  1.0000
  H   H13       1.0  0.573255665901982  0.15988421550389384  0.7385452920249946  1.0000
  H   H14       1.0  0.02809193400514691  0.5982979283314905  0.6967635807491988  1.0000
  H   H15       1.0  0.900981875869995  0.1590932295463361  0.634899667275434  1.0000
  H   H16       1.0  0.6911952874082201  0.6371928637538532  0.3149447614776619  1.0000
  H   H17       1.0  0.04658832738097369  0.6795540089326054  0.2689071049807197  1.0000
  H   H18       1.0  0.44029852199740543  0.6248802598302918  0.18477023143705654  1.0000
  H   H19       1.0  0.3143677549138317  0.7176427145005277  0.10880133424831942  1.0000
  H   H20       1.0  0.031194280058954894  0.7197640670510524  0.18544915778589646  1.0000
  H   H21       1.0  0.014541464749655104  0.8024699615167918  0.296518067367721  1.0000
  H   H22       1.0  0.8551815181780923  0.3619380592092583  0.15417371627628282  1.0000
  H   H23       1.0  0.8852573398357535  0.29726620694587785  0.061702096885923714  1.0000
  H   H24       1.0  0.7586653078104106  0.16137529321089522  0.018509752969329402  1.0000
  H   H25       1.0  0.3651279665135902  0.10625282126976293  0.20150440683600124  1.0000
  H   H26       1.0  0.7866487452185352  0.3901693988581414  0.2685649095996823  1.0000
  H   H27       1.0  0.1182083626086126  0.14773019512206537  0.16708043312191734  1.0000
  H   H28       1.0  0.9175757177779217  0.6683914331245333  0.9853820501282514  1.0000
  H   H29       1.0  0.897885348905298  0.9063319451354847  0.8010440512101908  1.0000
  H   H30       1.0  0.4094959540477845  0.5104359060482154  0.570962541414417  1.0000
  H   H31       1.0  0.8727412576616371  0.4534790763743998  0.4377749324762661  1.0000
  H   H32       1.0  0.4451998602916801  0.9628225068533287  0.9355262135826764  1.0000
  H   H33       1.0  0.9903269908758074  0.989716904121849  0.07355711971837312  1.0000
  C   C1        1.0  0.36129878769893514  0.5735682819816506  0.4199117646044784  1.0000
  C   C2        1.0  0.3536686314220745  0.3960430341871444  0.4462206616892175  1.0000
  C   C3        1.0  0.902991222247742  0.4262612151043259  0.5792256941043519  1.0000
  C   C4        1.0  0.896092742181942  0.6009294142608399  0.5495322145615803  1.0000
  C   C5        1.0  0.9376509595210435  0.835939228042456  0.9154628551904481  1.0000
  C   C6        1.0  0.8768400149863069  0.6627114953118323  0.5830638136647366  1.0000
  C   C7        1.0  0.9079948494920627  0.7150445985495041  0.9163735764774046  1.0000
  C   C8        1.0  0.9228667742513961  0.7756093606571783  0.9433232860342144  1.0000
  C   C9        1.0  0.9311963085445213  0.8373651434114324  0.8574094744332826  1.0000
  C   C10       1.0  0.890778942324303  0.7776274889104259  0.8261856743982037  1.0000
  C   C11       1.0  0.8925844201564175  0.7158187421371167  0.8572744164254615  1.0000
  C   C12       1.0  0.8541996941470272  0.7753022971191685  0.7658465558170848  1.0000
  C   C13       1.0  0.8757896172064575  0.7148255060656511  0.7354516866725123  1.0000
  C   C14       1.0  0.880600597733462  0.6564586125050983  0.7691684112824717  1.0000
  C   C15       1.0  0.8799770429116549  0.6562250680205466  0.8260139514131668  1.0000
  C   C16       1.0  0.7703513181632006  0.8285028426526184  0.7327476589814452  1.0000
  C   C17       1.0  0.7292474639045706  0.8271803560927182  0.6766461747923387  1.0000
  C   C18       1.0  0.7803313901048055  0.7712109948605673  0.6457549898766146  1.0000
  C   C19       1.0  0.8649277686422818  0.7142029018362167  0.6748213918108803  1.0000
  C   C20       1.0  0.7397306470540316  0.7720851012261392  0.5873323758217097  1.0000
  C   C21       1.0  0.7785587542054058  0.7169512625013043  0.5567840540259966  1.0000
  C   C22       1.0  0.9302469466294878  0.6619444895749568  0.6404835882526357  1.0000
  C   C23       1.0  0.7805061266837395  0.26683160923516885  0.801192691675624  1.0000
  C   C24       1.0  0.15013374761568335  0.2394639842384336  0.7909572789584018  1.0000
  C   C25       1.0  0.1552760149587797  0.2834794711736208  0.7362819024126778  1.0000
  C   C26       1.0  0.9174806087403127  0.3796318549794436  0.6251641243889381  1.0000
  C   C27       1.0  0.9305248519215824  0.21049462642626793  0.7956810967866801  1.0000
  C   C28       1.0  0.8118449499562886  0.3208695196191088  0.7565075566093498  1.0000
  C   C29       1.0  0.9358192468170472  0.293737777054865  0.7096709928770082  1.0000
  C   C30       1.0  0.8485451027217007  0.2244754920619273  0.6907155690156871  1.0000
  C   C31       1.0  0.8652473183934787  0.17301032630231822  0.7398594812325641  1.0000
  C   C32       1.0  0.9296393529776309  0.3402791958740821  0.6635291834352728  1.0000
  C   C33       1.0  0.9322200372610608  0.16412227292696002  0.8418102658512795  1.0000
  C   C34       1.0  0.9501964683852007  0.12430521686978584  0.8799338545168283  1.0000
  C   C35       1.0  0.6274484176730154  0.7256381605120552  0.2896015326493924  1.0000
  C   C36       1.0  0.3095021345949006  0.6774026342337011  0.2364943653485199  1.0000
  C   C37       1.0  0.3130867062557954  0.7318896732439413  0.1876520167752744  1.0000
  C   C38       1.0  0.4928871295638969  0.8780499868994912  0.1255683481865688  1.0000
  C   C39       1.0  0.40007092467025984  0.7095174956974121  0.29321732377277954  1.0000
  C   C40       1.0  0.6521750665122423  0.7672169209885739  0.23473888522809724  1.0000
  C   C41       1.0  0.44787976536779434  0.79370340127241  0.20904874471359852  1.0000
  C   C42       1.0  0.3455433362684203  0.8275757182764281  0.2573531680551326  1.0000
  C   C43       1.0  0.29827368921413466  0.7767062658846557  0.3039945552636212  1.0000
  C   C44       1.0  0.47559431182434514  0.839778176964167  0.1640156153796113  1.0000
  C   C45       1.0  0.3768220942811311  0.6628967613809069  0.33832028316626156  1.0000
  C   C46       1.0  0.3633672024330535  0.6224138705154092  0.3754714771433497  1.0000
  C   C47       1.0  0.5274679659355924  0.15865080629099992  0.09233762753511601  1.0000
  C   C48       1.0  0.31358592233542737  0.33611226797987115  0.4108428731343352  1.0000
  C   C49       1.0  0.6899469858888023  0.26602594930550083  0.10970370366194263  1.0000
  C   C50       1.0  0.6564405328902723  0.2106501095687889  0.0763133416184161  1.0000
  C   C51       1.0  0.4375628954735759  0.16460500020672703  0.1424606493202418  1.0000
  C   C52       1.0  0.4568477987885443  0.2224879545814176  0.17577249726841873  1.0000
  C   C53       1.0  0.6004695681825325  0.27183468908317826  0.1603113704246368  1.0000
  C   C54       1.0  0.3551282225399318  0.2317211128709431  0.2260895791064925  1.0000
  C   C55       1.0  0.43443166767734437  0.2787505852213883  0.26730699865061786  1.0000
  C   C56       1.0  0.5952073342331872  0.3214867080991511  0.25248655809781445  1.0000
  C   C57       1.0  0.6626336764671734  0.3214944367976075  0.1996801894465818  1.0000
  C   C58       1.0  0.1634924806506177  0.20051717907350763  0.23464987689435904  1.0000
  C   C59       1.0  0.0831218048880871  0.2039249158273719  0.28532344048564084  1.0000
  C   C60       1.0  0.1735988767217549  0.2435382537852605  0.3285972513724076  1.0000
  C   C61       1.0  0.34542644000148925  0.28463860292195164  0.3198971832067485  1.0000
  C   C62       1.0  0.08752354520225229  0.24684305066195836  0.3800963807384434  1.0000
  C   C63       1.0  0.15252571091742337  0.29233082421851725  0.4201625418660484  1.0000
  C   C64       1.0  0.4110186978421737  0.3301243227804634  0.3625556325373368  1.0000
  C   C65       1.0  0.503195934992533  0.0989847893030671  0.057192006198441406  1.0000
  C   C66       1.0  0.4859732908416561  0.9245442528427007  0.0796372759846875  1.0000
  C   C67       1.0  0.9497363987623757  0.8999336392706708  0.9472763340226751  1.0000
  C   C68       1.0  0.9647166072178447  0.07708947661920011  0.9252831826479877  1.0000
  O   O1        1.0  0.5331917140715845  0.4167147678791495  0.4574365131836872  1.0000
  O   O2        1.0  0.19426721575411676  0.5598103648978923  0.4386575157822676  1.0000
  O   O3        1.0  0.0659676124200246  0.5798698286873218  0.5390907057103506  1.0000
  O   O4        1.0  0.1961332381315017  0.4244591392207866  0.4594734560058527  1.0000
  O   O5        1.0  0.0679066855883335  0.4473688049639507  0.5626890212802493  1.0000
  O   O6        1.0  0.5315357290539353  0.5494165030547936  0.43477136623069873  1.0000
  O   O7        1.0  0.393526740487573  0.5064267765937203  0.5307944987896037  1.0000
  O   O8        1.0  0.7265250573831707  0.4417559306097941  0.5603535652426288  1.0000
  O   O9        1.0  0.7270800107301127  0.574674502781626  0.5338900254177119  1.0000
  O   O10       1.0  0.872694250807825  0.48855174682054786  0.4652645401895512  1.0000
  O   O11       1.0  0.3099955554691504  0.9355967551134444  0.057690223988032606  1.0000
  O   O12       1.0  0.6585408102055439  0.0831129798614896  0.0320391610584849  1.0000
  O   O13       1.0  0.8011064315807275  0.05019953795670771  0.9377530001229886  1.0000
  O   O14       1.0  0.6499290117987967  0.9502629311102735  0.0658523281582504  1.0000
  O   O15       1.0  0.7847110471879545  0.9185954119591244  0.9639090053180297  1.0000
  O   O16       1.0  0.3369442757852141  0.06791032289216052  0.0518491465412438  1.0000
  O   O17       1.0  0.46209758386822125  0.9917452173203218  0.9676916211779628  1.0000
  O   O18       1.0  0.1186069634297269  0.9292108946448041  0.9544028621142006  1.0000
  O   O19       1.0  0.13917710285934956  0.06664089685195052  0.9484554553923347  1.0000
  O   O20       1.0  0.9818711740719192  0.005619417002634499  0.0353044169944354  1.0000
  O   O21       1.0  0.2864536100666797  0.18757820726654023  0.7872305433882262  1.0000
  O   O22       1.0  0.21712736118711717  0.27656551819566744  0.8388354910580205  1.0000
  O   O23       1.0  0.2816249715581235  0.2599160474996082  0.697754457158311  1.0000
  O   O24       1.0  0.6932349654202737  0.13239936128822902  0.7416501947498871  1.0000
  O   O25       1.0  0.04945805570995531  0.6107011353560381  0.6584967937701336  1.0000
  O   O26       1.0  0.9476269283231529  0.20399974295947493  0.6450855224285945  1.0000
  O   O27       1.0  0.7493830457321876  0.6723777983552922  0.2925540157134776  1.0000
  O   O28       1.0  0.10998694790961848  0.6555500883097239  0.2396005479506229  1.0000
  O   O29       1.0  0.4240290970509547  0.6231755637107457  0.2248787881227088  1.0000
  O   O30       1.0  0.39504713336195607  0.7014923669693264  0.1415648591721776  1.0000
  O   O31       1.0  0.12314920335904839  0.7538639140612275  0.17152238638545475  1.0000
  O   O32       1.0  0.0933362435442646  0.7634430458112934  0.30762853843038585  1.0000
  O   O33       1.0  0.8047288059159354  0.3693748731262403  0.19088094727835167  1.0000
  O   O34       1.0  0.8239927621013263  0.31438106419125955  0.09413055315302193  1.0000
  O   O35       1.0  0.7596039356005306  0.20884856688908124  0.029961941123019607  1.0000
  O   O36       1.0  0.3404673887913461  0.10795305472461081  0.1608901654039343  1.0000
  O   O37       1.0  0.6854201738320852  0.366667150550292  0.2889063402623506  1.0000
  O   O38       1.0  0.03997330066402329  0.17171326754456837  0.19316091831717594  1.0000
  O   O39       1.0  0.9095403507116231  0.6568183952423468  0.9459590983980493  1.0000
  O   O40       1.0  0.9801496546712654  0.8978676677636775  0.8357375872643971  1.0000
  F   F1        1.0  0.8653695703148543  0.5965893022143406  0.8514975070547453  1.0000
  F   F2        1.0  0.9168388209339113  0.37443391464064757  0.7809252639567321  1.0000
  F   F3        1.0  0.8066892896556722  0.2952979552453031  0.8545342322059784  1.0000
  F   F4        1.0  0.6460844947065425  0.2310505223908663  0.6731382712075487  1.0000
  F   F5        1.0  0.6310189257965177  0.3448952023731167  0.7356159129902198  1.0000
  F   F6        1.0  0.7349475924989616  0.7281780165323115  0.19671411004947  1.0000
  F   F7        1.0  0.4714044790158168  0.8769132402153164  0.2807883284899546  1.0000
  F   F8        1.0  0.6859039894460395  0.7690581554241619  0.3347534141034672  1.0000
  F   F9        1.0  0.7827579927725097  0.820167015128739  0.24488982435875076  1.0000
  F   F10       1.0  0.1752488136680554  0.8598287840363813  0.2375965285619657  1.0000
  F   F11       1.0  0.062088726762887306  0.2938320480286834  0.4682374261535429  1.0000
  F   F12       1.0  0.931868596091128  0.20503269636306234  0.38936157974214325  1.0000
  F   F13       1.0  0.932605651034251  0.7743146372763904  0.00039961707408759837  1.0000
  F   F14       1.0  0.8597334363227773  0.5947307712561241  0.7451253219832594  1.0000
  F   F15       1.0  0.7017146318936794  0.8839558625292341  0.758913846631856  1.0000
