data_image0
_chemical_formula_structural       Zn4H24C28N20Cl4
_chemical_formula_sum              "Zn4 H24 C28 N20 Cl4"
_cell_length_a       8.774406534527282
_cell_length_b       9.155686857030528
_cell_length_c       11.98923448796849
_cell_angle_alpha    89.9999536503961
_cell_angle_beta     94.17454609214458
_cell_angle_gamma    90.00029597085515

_space_group_name_H-M_alt    "P 1"
_space_group_IT_number       1

loop_
  _space_group_symop_operation_xyz
  'x, y, z'

loop_
  _atom_site_type_symbol
  _atom_site_label
  _atom_site_symmetry_multiplicity
  _atom_site_fract_x
  _atom_site_fract_y
  _atom_site_fract_z
  _atom_site_occupancy
  Zn  Zn1       1.0  0.15826009049964543  0.2670319281107113  0.589743074899836  1.0000
  Zn  Zn2       1.0  0.34174151934951874  0.7670340226381428  0.9102557159639559  1.0000
  Zn  Zn3       1.0  0.8417369264431683  0.7329703651018137  0.41025617750091203  1.0000
  Zn  Zn4       1.0  0.6582600684323127  0.23296936280295452  0.08974378413617501  1.0000
  H   H1        1.0  0.030729807970068596  0.6831160818446452  0.7699507639202068  1.0000
  H   H2        1.0  0.46927248662044  0.1831208437296965  0.7300539544202636  1.0000
  H   H3        1.0  0.9692706299235  0.31688293472201684  0.23005284427866002  1.0000
  H   H4        1.0  0.5307268157433428  0.8168825417057876  0.2699454218300872  1.0000
  H   H5        1.0  0.9866315146366987  0.55709738477249  0.6617136612472976  1.0000
  H   H6        1.0  0.5133690677320998  0.05709976584306279  0.8382895181360439  1.0000
  H   H7        1.0  0.0133666407146009  0.44290490844149843  0.33828815509208  1.0000
  H   H8        1.0  0.4866325186162115  0.9429036195975866  0.161710815968668  1.0000
  H   H9        1.0  0.1512977927886823  0.33684846729241974  0.8905311774629824  1.0000
  H   H10       1.0  0.3486996074473936  0.836855286697329  0.609474014840835  1.0000
  H   H11       1.0  0.8487083572194151  0.6631516415051664  0.10947357436474188  1.0000
  H   H12       1.0  0.6512951212161725  0.1631491909433862  0.3905267817189326  1.0000
  H   H13       1.0  0.9939595493874053  0.2002091750680393  0.01937626790458322  1.0000
  H   H14       1.0  0.5060292616186146  0.7002106186600797  0.4806291090339485  1.0000
  H   H15       1.0  0.0060431724965326  0.79979202593848  0.9806282981482896  1.0000
  H   H16       1.0  0.4939608976336272  0.2997905823178186  0.5193706058222105  1.0000
  H   H17       1.0  0.74356580852794  0.5826775382770252  0.7835920360876614  1.0000
  H   H18       1.0  0.7564417694971011  0.08267579619244  0.7164098384475395  1.0000
  H   H19       1.0  0.2564426340657846  0.4173225705284196  0.21640866956693122  1.0000
  H   H20       1.0  0.24355753285793466  0.9173243125910062  0.2835895378033442  1.0000
  H   H21       1.0  0.6050857645879758  0.4369938976113873  0.9153160151718964  1.0000
  H   H22       1.0  0.8949122791015539  0.9369889587197164  0.5846842899125093  1.0000
  H   H23       1.0  0.3949203911570934  0.5630073034053427  0.08468540063731923  1.0000
  H   H24       1.0  0.1050813125666465  0.06300787339856129  0.41531310870529137  1.0000
  C   C1        1.0  0.20863926264749466  0.53623624467361  0.737509167787941  1.0000
  C   C2        1.0  0.2913611109168315  0.036236811293186115  0.7624922007791426  1.0000
  C   C3        1.0  0.7913600425833209  0.46376714076277636  0.2624885404532407  1.0000
  C   C4        1.0  0.7086381871464056  0.963766574140948  0.23750967748494387  1.0000
  C   C5        1.0  0.04401333348999259  0.5678500621588894  0.7461628118300253  1.0000
  C   C6        1.0  0.45598948995637306  0.06785473262608828  0.7538411722321854  1.0000
  C   C7        1.0  0.9559893926944912  0.4321511388489726  0.2538392522091044  1.0000
  C   C8        1.0  0.5440086682648726  0.9321486528061413  0.2461589760978526  1.0000
  C   C9        1.0  0.030251300377543092  0.3630548286580222  0.8922631140201035  1.0000
  C   C10       1.0  0.46974738675262967  0.8630600669026408  0.6077396296007507  1.0000
  C   C11       1.0  0.9697548524946665  0.6369441879231132  0.10773996979862939  1.0000
  C   C12       1.0  0.530248488917593  0.13694331852487807  0.39225872687033814  1.0000
  C   C13       1.0  0.9614490528528419  0.47340826502303923  0.8254480944589558  1.0000
  C   C14       1.0  0.5385537532116088  0.9734134739080247  0.6745541143904461  1.0000
  C   C15       1.0  0.0385548174654318  0.5265896593360397  0.17455319750101947  1.0000
  C   C16       1.0  0.4614444064431495  0.026589911524659702  0.325445199935011  1.0000
  C   C17       1.0  0.9435089574593363  0.2855227336545951  0.9648845298624379  1.0000
  C   C18       1.0  0.5564848424119618  0.7855270884393519  0.5351198091435522  1.0000
  C   C19       1.0  0.056494908564225496  0.7144773751378253  0.0351192641109179  1.0000
  C   C20       1.0  0.4435098891157168  0.21447629698491263  0.46487931940723126  1.0000
  C   C21       1.0  0.8053875429884129  0.49929014756233403  0.8333347518873353  1.0000
  C   C22       1.0  0.6946131158051044  0.9992917713916469  0.6666673246249246  1.0000
  C   C23       1.0  0.194619759763313  0.5007099612411989  0.16666422383320884  1.0000
  C   C24       1.0  0.3053804730048101  0.0007083373777732002  0.3333317420015049  1.0000
  C   C25       1.0  0.7263030315992863  0.41813160944979444  0.9073235344533046  1.0000
  C   C26       1.0  0.7736949114168752  0.9181315208360415  0.5926767768161838  1.0000
  C   C27       1.0  0.2736985533009388  0.5818663149036781  0.0926776336568906  1.0000
  C   C28       1.0  0.22630096424460075  0.08186858793943941  0.4073215796554451  1.0000
  N   N1        1.0  0.26344149144470214  0.4332654412331891  0.6717264366580409  1.0000
  N   N2        1.0  0.23655986160719067  0.9332660085583131  0.8282730717695089  1.0000
  N   N3        1.0  0.736560100637675  0.5667379442092583  0.3282705614283401  1.0000
  N   N4        1.0  0.7634394393259925  0.0667384690940693  0.1717271384852381  1.0000
  N   N5        1.0  0.4182860909763022  0.4411669194183359  0.6843940046258155  1.0000
  N   N6        1.0  0.0817141629671596  0.9411634542811815  0.8156046052816349  1.0000
  N   N7        1.0  0.5817155011089882  0.55883755824145  0.31560299346038795  1.0000
  N   N8        1.0  0.9182839966846786  0.05883883893415742  0.1843947090439997  1.0000
  N   N9        1.0  0.793625052179074  0.3132461098427797  0.9730392325837799  1.0000
  N   N10       1.0  0.7063689028395927  0.8132479413901238  0.5269609273078544  1.0000
  N   N11       1.0  0.20637996084823132  0.6867518145191127  0.026962121301082203  1.0000
  N   N12       1.0  0.29362240341929885  0.1867521673745856  0.47303634745963313  1.0000
  N   N13       1.0  0.3275786977568345  0.6062673037475507  0.7902753877952337  1.0000
  N   N14       1.0  0.1724243379147694  0.10626733581171521  0.7097244136459224  1.0000
  N   N15       1.0  0.6724240341675339  0.3937360816968011  0.2097233402252101  1.0000
  N   N16       1.0  0.8275749644519266  0.8937371418411147  0.2902749626042436  1.0000
  N   N17       1.0  0.4563430871845284  0.5452050473272436  0.7549753548010402  1.0000
  N   N18       1.0  0.043658481258411506  0.04520330968292541  0.745023570736258  1.0000
  N   N19       1.0  0.5436585034614225  0.45479724589741016  0.2450224772901066  1.0000
  N   N20       1.0  0.9563396783934268  0.9547989835324131  0.25497574358937675  1.0000
  Cl  Cl1       1.0  0.9171851397138013  0.29249780369418954  0.5242010915958133  1.0000
  Cl  Cl2       1.0  0.5828178490902759  0.7924996339341989  0.9757979024901787  1.0000
  Cl  Cl3       1.0  0.08281187579258639  0.7075033973005419  0.4757989948096935  1.0000
  Cl  Cl4       1.0  0.4171848885652452  0.20750265929460457  0.02419748951211889  1.0000
