data_image0
_chemical_formula_structural       Cd4H28C32N4O24
_chemical_formula_sum              "Cd4 H28 C32 N4 O24"
_cell_length_a       6.131819746776245
_cell_length_b       7.977325741045745
_cell_length_c       18.95830384717544
_cell_angle_alpha    90.00038571213854
_cell_angle_beta     98.94645057871499
_cell_angle_gamma    89.99993444214344

_space_group_name_H-M_alt    "P 1"
_space_group_IT_number       1

loop_
  _space_group_symop_operation_xyz
  'x, y, z'

loop_
  _atom_site_type_symbol
  _atom_site_label
  _atom_site_symmetry_multiplicity
  _atom_site_fract_x
  _atom_site_fract_y
  _atom_site_fract_z
  _atom_site_occupancy
  Cd  Cd1       1.0  0.1853220583892394  0.158944737042809  0.7031604855540863  1.0000
  Cd  Cd2       1.0  0.3146663379101824  0.6589488251958572  0.7968379941876973  1.0000
  Cd  Cd3       1.0  0.8146802085673954  0.8410620496861297  0.296838813542699  1.0000
  Cd  Cd4       1.0  0.6853309752292133  0.3410554544442377  0.20316316537931553  1.0000
  H   H1        1.0  0.7512619898927255  0.034400975996305795  0.6378246780078667  1.0000
  H   H2        1.0  0.7487315533951956  0.5344024010639856  0.8621732386581369  1.0000
  H   H3        1.0  0.2487386258787652  0.9656108249485981  0.3621750654339379  1.0000
  H   H4        1.0  0.25127401540567007  0.46560563921773485  0.13782622668490055  1.0000
  H   H5        1.0  0.8959308631689282  0.8792206595308372  0.6744172857124084  1.0000
  H   H6        1.0  0.6040626442558548  0.379223604544208  0.8255810843552707  1.0000
  H   H7        1.0  0.10406479904791868  0.12079114142686359  0.3255837907430674  1.0000
  H   H8        1.0  0.39594292401962145  0.6207831821929801  0.17441943590624476  1.0000
  H   H9        1.0  0.14436188057980098  0.41803981302418686  0.4772905525246072  1.0000
  H   H10       1.0  0.3556408604185534  0.918030730732063  0.02270957807663619  1.0000
  H   H11       1.0  0.8556288304480332  0.581951931061809  0.5227071097748704  1.0000
  H   H12       1.0  0.6443779128709933  0.08194847787797951  0.9772963542646874  1.0000
  H   H13       1.0  0.7335652911805537  0.11657667091532177  0.5152208903324149  1.0000
  H   H14       1.0  0.7664232904681824  0.6165913118562615  0.9847775381993458  1.0000
  H   H15       1.0  0.26643202196002136  0.8834050447721539  0.4847802692025096  1.0000
  H   H16       1.0  0.2335707234547399  0.3834029393186499  0.015218180507666499  1.0000
  H   H17       1.0  0.8182033836010446  0.20167062084946244  0.3963021277111948  1.0000
  H   H18       1.0  0.6818012113723525  0.7016830378198903  0.10369859478176825  1.0000
  H   H19       1.0  0.18178402321719736  0.7983349123565728  0.6037001155045587  1.0000
  H   H20       1.0  0.3182060099271098  0.2983237488836749  0.8962977889209681  1.0000
  H   H21       1.0  0.31209048650016763  0.631300539861442  0.3335112293376524  1.0000
  H   H22       1.0  0.1879188871765649  0.1312946127110308  0.1664905279509981  1.0000
  H   H23       1.0  0.687903525582918  0.36870750042498207  0.6664881816098569  1.0000
  H   H24       1.0  0.8120800776734994  0.8687033991517906  0.8335091323489576  1.0000
  H   H25       1.0  0.1127998838088047  0.6092799304899543  0.3921509864490033  1.0000
  H   H26       1.0  0.3872061911188566  0.1092741472273815  0.10784895957610269  1.0000
  H   H27       1.0  0.8871875232722316  0.3907243491589582  0.607850729304843  1.0000
  H   H28       1.0  0.6127977272856526  0.8907276252814141  0.8921493677155393  1.0000
  C   C1        1.0  0.2943283053560108  0.36684702836095784  0.4617283077961501  1.0000
  C   C2        1.0  0.20567279060855978  0.8668458481680259  0.038270539152989586  1.0000
  C   C3        1.0  0.7056591059287098  0.6331572512208579  0.5382649685956764  1.0000
  C   C4        1.0  0.7943443317580472  0.13314840307716475  0.9617353100874834  1.0000
  C   C5        1.0  0.4278960406491521  0.25781328113046686  0.505167406272683  1.0000
  C   C6        1.0  0.07209234502951031  0.7578144656287407  0.9948318821624152  1.0000
  C   C7        1.0  0.572086418920243  0.7421872377760294  0.49482351090657756  1.0000
  C   C8        1.0  0.927923125626954  0.24217602497033394  0.005175466330854292  1.0000
  C   C9        1.0  0.6229808975657889  0.20059708754675398  0.48116963811763463  1.0000
  C   C10       1.0  0.8770088381697647  0.7006104885359007  0.0188324430633742  1.0000
  C   C11       1.0  0.37702302451714326  0.7994009242445513  0.5188213047268845  1.0000
  C   C12       1.0  0.1229835190504858  0.2993925376018182  0.9811747966566596  1.0000
  C   C13       1.0  0.6721031803494384  0.24863144083218455  0.4158520875901316  1.0000
  C   C14       1.0  0.8278931545679528  0.7486409099406686  0.0841494077904912  1.0000
  C   C15       1.0  0.327890835149276  0.7513740922938793  0.5841404663721689  1.0000
  C   C16       1.0  0.1721058071289505  0.2513646232900157  0.9158565820416765  1.0000
  C   C17       1.0  0.5301645469975823  0.3588861341625318  0.3701279613605521  1.0000
  C   C18       1.0  0.9698350790017826  0.8588849221950735  0.12987243149485284  1.0000
  C   C19       1.0  0.4698327664042806  0.6411231596850653  0.629872670753464  1.0000
  C   C20       1.0  0.0301622357141937  0.14111559676108945  0.8701255633060538  1.0000
  C   C21       1.0  0.3654414263542378  0.21135218182455873  0.5754070172769373  1.0000
  C   C22       1.0  0.13455191616993997  0.711359715190639  0.9245939707529869  1.0000
  C   C23       1.0  0.634549281520833  0.7886395623117578  0.4245969745440589  1.0000
  C   C24       1.0  0.8654635600035901  0.28863578953205854  0.07540230108476459  1.0000
  C   C25       1.0  0.20670306569582658  0.5416917911296864  0.3563472389963421  1.0000
  C   C26       1.0  0.2933063173690584  0.041684153598708897  0.1436542633925839  1.0000
  C   C27       1.0  0.7933256118121716  0.458302460135961  0.6436618294004217  1.0000
  C   C28       1.0  0.7066827429994262  0.9583063369302423  0.8563427883227487  1.0000
  C   C29       1.0  0.042526548171153394  0.469475455462593  0.29618977063355345  1.0000
  C   C30       1.0  0.45747618848920973  0.9694691624533218  0.20380839644282384  1.0000
  C   C31       1.0  0.9574559082452794  0.5305288241529951  0.703807476072569  1.0000
  C   C32       1.0  0.5425260774168307  0.0305313565277814  0.7961930124855525  1.0000
  N   N1        1.0  0.3449866903393612  0.4180265603269717  0.3983073585202418  1.0000
  N   N2        1.0  0.155012749078665  0.9180201659196925  0.10169207834252349  1.0000
  N   N3        1.0  0.6550221808322476  0.5819626766523738  0.6016912181202797  1.0000
  N   N4        1.0  0.8449812619545511  0.0819678175367429  0.898309442416966  1.0000
  O   O1        1.0  0.4941220913026853  0.12277015617098637  0.6192821089637163  1.0000
  O   O2        1.0  0.005876214056854698  0.622773345569314  0.880717294069633  1.0000
  O   O3        1.0  0.5058851281583898  0.877222841479785  0.3807179669402884  1.0000
  O   O4        1.0  0.9941128457857785  0.37722466628556367  0.11928081257664756  1.0000
  O   O5        1.0  0.9033580723370775  0.9870410469196997  0.6488455048744155  1.0000
  O   O6        1.0  0.596633773657551  0.4870469122696475  0.8511515063961567  1.0000
  O   O7        1.0  0.09664089251239721  0.0129682469194279  0.3511541554415912  1.0000
  O   O8        1.0  0.40337179514331467  0.5129611280120726  0.14884795894688094  1.0000
  O   O9        1.0  0.1802176938224918  0.26639839314903213  0.5896239889982338  1.0000
  O   O10       1.0  0.31976739068876  0.7664005215239982  0.9103719928538252  1.0000
  O   O11       1.0  0.8197581589052092  0.7336083935726945  0.41037292522250357  1.0000
  O   O12       1.0  0.6802695424808434  0.2335949832774346  0.08963538131540359  1.0000
  O   O13       1.0  0.5536962303693613  0.41163514832015835  0.3094581422510601  1.0000
  O   O14       1.0  0.9463116449770652  0.9116349220300249  0.19054228880444404  1.0000
  O   O15       1.0  0.44629777777349483  0.5883591029470239  0.6905491805787347  1.0000
  O   O16       1.0  0.0536823699965225  0.08836434333980489  0.8094513200691934  1.0000
  O   O17       1.0  0.9156817198538079  0.5749925919163059  0.2593751187674371  1.0000
  O   O18       1.0  0.5843228883927836  0.07497665377437099  0.24062524334217972  1.0000
  O   O19       1.0  0.08430899143551329  0.42502296967102643  0.7406220161057886  1.0000
  O   O20       1.0  0.41568102843534394  0.9250251187595852  0.759376248710218  1.0000
  O   O21       1.0  0.027810614609997196  0.3131961816608708  0.28474565395102047  1.0000
  O   O22       1.0  0.472203693564559  0.8131925646738906  0.21525528773997135  1.0000
  O   O23       1.0  0.9721883494521393  0.6867968160028468  0.7152555887221792  1.0000
  O   O24       1.0  0.5277952715482357  0.18680544718473874  0.7847438450998607  1.0000
