data_image0
_chemical_formula_structural       Zn6H42C108O24
_chemical_formula_sum              "Zn6 H42 C108 O24"
_cell_length_a       16.610221396241442
_cell_length_b       16.82840990995206
_cell_length_c       16.689495694338458
_cell_angle_alpha    68.48140662696316
_cell_angle_beta     68.16344004549549
_cell_angle_gamma    68.50154246040061

_space_group_name_H-M_alt    "P 1"
_space_group_IT_number       1

loop_
  _space_group_symop_operation_xyz
  'x, y, z'

loop_
  _atom_site_type_symbol
  _atom_site_label
  _atom_site_symmetry_multiplicity
  _atom_site_fract_x
  _atom_site_fract_y
  _atom_site_fract_z
  _atom_site_occupancy
  Zn  Zn1       1.0  0.987471271972311  0.5689492359538232  0.9819558657401544  1.0000
  Zn  Zn2       1.0  0.9769115245243822  0.42559896709062855  0.9650525146063844  1.0000
  Zn  Zn3       1.0  0.5834673048539896  0.9437869789542288  0.060310920971446094  1.0000
  Zn  Zn4       1.0  0.42613117818807206  0.9587066738569799  0.04037607155326129  1.0000
  Zn  Zn5       1.0  0.0287030404018438  0.021782342694827168  0.5754608873445051  1.0000
  Zn  Zn6       1.0  0.019398616188212304  0.009989637216747784  0.42539707815912203  1.0000
  H   H1        1.0  0.8843926897258568  0.8224163392823411  0.3251504093664366  1.0000
  H   H2        1.0  0.7557087742602844  0.1422002146282892  0.3267222734346121  1.0000
  H   H3        1.0  0.6600563155927758  0.1653406674928703  0.045377024197783604  1.0000
  H   H4        1.0  0.2377234292710853  0.7166644791755558  0.1243472760511466  1.0000
  H   H5        1.0  0.9399412211534681  0.8264957064338316  0.4393614166026723  1.0000
  H   H6        1.0  0.09537260282150578  0.21127076985789728  0.4812524361935147  1.0000
  H   H7        1.0  0.7602494963168878  0.3942649140784554  0.0469988267776245  1.0000
  H   H8        1.0  0.1467839027704798  0.5042955130122451  0.0760948708488911  1.0000
  H   H9        1.0  0.5184000685547474  0.8929547480583936  0.8494170036180291  1.0000
  H   H10       1.0  0.5663722759049962  0.06542807786440356  0.2268611899555637  1.0000
  H   H11       1.0  0.8907034921494698  0.5928381310260633  0.22115039080728852  1.0000
  H   H12       1.0  0.14899490053927178  0.2165674074177346  0.5973270117840883  1.0000
  H   H13       1.0  0.10615991041950679  0.44456751382475085  0.7262363226968489  1.0000
  H   H14       1.0  0.2656097700381324  0.9098842486062108  0.6086636764992194  1.0000
  H   H15       1.0  0.7795552917308581  0.11016070696904723  0.4729731040628451  1.0000
  H   H16       1.0  0.5213718093733135  0.15980970017458418  0.0341174641427386  1.0000
  H   H17       1.0  0.38651738460888646  0.7368509968082577  0.098694143766572  1.0000
  H   H18       1.0  0.974949938111038  0.24325457346106563  0.1960261447323361  1.0000
  H   H19       1.0  0.8963012318837255  0.22406312091667496  0.30182282397658616  1.0000
  H   H20       1.0  0.8702947502994078  0.32304301776965616  0.2161359106655922  1.0000
  H   H21       1.0  0.9193448475499578  0.745595855959621  0.8042943303256607  1.0000
  H   H22       1.0  0.014831954512175146  0.7869329031520989  0.7602287017094866  1.0000
  H   H23       1.0  0.7487244094403707  0.25160164601432905  0.054121372492815595  1.0000
  H   H24       1.0  0.9234557079547938  0.8412076510150398  0.7119847763355338  1.0000
  H   H25       1.0  0.2058280124227991  0.13345448758072817  0.11457937368029292  1.0000
  H   H26       1.0  0.11760726426934548  0.23199818686428125  0.095378940132882  1.0000
  H   H27       1.0  0.1864155446124585  0.1805423194657862  0.0080489751264565  1.0000
  H   H28       1.0  0.7763846558735561  0.7122113708100385  0.9038473344237374  1.0000
  H   H29       1.0  0.6786700992906987  0.7980078295782106  0.9306804273899446  1.0000
  H   H30       1.0  0.7515242602598846  0.7455942955831174  0.0010778855063478005  1.0000
  H   H31       1.0  0.29851380474852346  0.0642591823956593  0.2045752470628415  1.0000
  H   H32       1.0  0.2497210831413312  0.9747003502320764  0.2684420246654113  1.0000
  H   H33       1.0  0.2020470315632465  0.07640819545411401  0.29727380059807734  1.0000
  H   H34       1.0  0.1494603656922848  0.6312043907654328  0.1154827117247521  1.0000
  H   H35       1.0  0.872342350986365  0.9549876191347905  0.7640653767672063  1.0000
  H   H36       1.0  0.7929459704640677  0.030139414738201434  0.8248620709288018  1.0000
  H   H37       1.0  0.7892424949942337  0.9185463537391597  0.8626152444048074  1.0000
  H   H38       1.0  0.396110941426926  0.8517905854600871  0.8418849584479985  1.0000
  H   H39       1.0  0.6775131299948143  0.12572477194059664  0.2355265667529167  1.0000
  H   H40       1.0  0.8653986445594126  0.7352447988642009  0.24457836250567766  1.0000
  H   H41       1.0  0.15325734332910912  0.30192367754033705  0.6878351597586416  1.0000
  H   H42       1.0  0.3025478066642435  0.8568557155143988  0.7531607054572333  1.0000
  C   C1        1.0  0.9579801940148513  0.46459689836582635  0.29368025444338736  1.0000
  C   C2        1.0  0.4668174003525252  0.010706708212218417  0.3408425799965684  1.0000
  C   C3        1.0  0.4571159662638775  0.960022331295491  0.5826520227610459  1.0000
  C   C4        1.0  0.4101722164704142  0.5339162866029595  0.0785945471548359  1.0000
  C   C5        1.0  0.49396614619300994  0.3605947667884165  0.0591787876393752  1.0000
  C   C6        1.0  0.9233163486704115  0.2757845837630127  0.24671603213972298  1.0000
  C   C7        1.0  0.9630944417488437  0.7766441675188317  0.7420656095660191  1.0000
  C   C8        1.0  0.18612600331074702  0.19640115267649347  0.0663264728362023  1.0000
  C   C9        1.0  0.7214999345709358  0.7344564355668415  0.9590504779577174  1.0000
  C   C10       1.0  0.26584088806529843  0.03062890958271683  0.2721867098804651  1.0000
  C   C11       1.0  0.8023528442441616  0.9725801623371523  0.8027096951092928  1.0000
  C   C12       1.0  0.653696789021147  0.5165424456273654  0.04329259718241469  1.0000
  C   C13       1.0  0.2603292646871935  0.391739227858295  0.0495530229919723  1.0000
  C   C14       1.0  0.0039957517550704  0.4685611218302198  0.4160665227120006  1.0000
  C   C15       1.0  0.017348893281315694  0.5683551030152357  0.5147544844520553  1.0000
  C   C16       1.0  0.4013684481813371  0.3979648268582494  0.06206334434314441  1.0000
  C   C17       1.0  0.5044659194316523  0.498908377157832  0.06786979172572669  1.0000
  C   C18       1.0  0.48324983182421727  0.9919796832494612  0.4878423621601372  1.0000
  C   C19       1.0  0.5828574713957124  0.9974864722799595  0.5917286793368888  1.0000
  C   C20       1.0  0.13466197675023037  0.39252936586936454  0.9967663892791165  1.0000
  C   C21       1.0  0.04373063284081267  0.5729982557558628  0.6489352413221071  1.0000
  C   C22       1.0  0.8096053857219302  0.5422026661276501  0.9911574866078398  1.0000
  C   C23       1.0  0.46508428687305764  0.974467662057549  0.20678233956574132  1.0000
  C   C24       1.0  0.6094083264182827  0.9705448425271614  0.8869821718357898  1.0000
  C   C25       1.0  0.007494270994470821  0.17900225734515374  0.3965931515187719  1.0000
  C   C26       1.0  0.01580989194162901  0.8525577663742109  0.5443983817275964  1.0000
  C   C27       1.0  0.8589129313604573  0.03708729583848212  0.6028349754989506  1.0000
  C   C28       1.0  0.1939715899227109  0.9910509244097839  0.4692464130123639  1.0000
  C   C29       1.0  0.5344817138895763  0.7890701111833491  0.05673637276868249  1.0000
  C   C30       1.0  0.3849831656984506  0.1191106117971897  0.031434796704481  1.0000
  C   C31       1.0  0.019285905642206582  0.5811995659237182  0.8057352196056585  1.0000
  C   C32       1.0  0.39539374828360246  0.2615518588374073  0.04239456279679389  1.0000
  C   C33       1.0  0.9505364494243053  0.45885299855657974  0.148118801927815  1.0000
  C   C34       1.0  0.9944434732209259  0.41879200039528547  0.3687812379473669  1.0000
  C   C35       1.0  0.019616935694671187  0.618015314537807  0.566444080611383  1.0000
  C   C36       1.0  0.3519988635918523  0.34988142092411306  0.0524298107918497  1.0000
  C   C37       1.0  0.5579773290064194  0.5524192109399878  0.0593669450338012  1.0000
  C   C38       1.0  0.43266095368251456  0.9908560593027713  0.43631715986491315  1.0000
  C   C39       1.0  0.6328795463031511  0.9998414757513102  0.6436070829220737  1.0000
  C   C40       1.0  0.9534337713666116  0.41461690860417366  0.24318184431704282  1.0000
  C   C41       1.0  0.024148085508734634  0.6254611180732965  0.70893294364663  1.0000
  C   C42       1.0  0.34227190587107975  0.21163926227716692  0.039938085424004996  1.0000
  C   C43       1.0  0.5157193376309407  0.6419660351654956  0.0654135935727496  1.0000
  C   C44       1.0  0.5726502317640793  0.6973410409612553  0.044595390668718  1.0000
  C   C45       1.0  0.2909811997671525  0.9866833570467364  0.4265326823647655  1.0000
  C   C46       1.0  0.7668635146621982  0.02410020243029708  0.6520410014067863  1.0000
  C   C47       1.0  0.00393704347549573  0.7610529370390466  0.5865404665854256  1.0000
  C   C48       1.0  0.9974904296468241  0.27647691070694674  0.355396875080551  1.0000
  C   C49       1.0  0.6541133581763106  0.9756954929226114  0.7900745277566159  1.0000
  C   C50       1.0  0.4183832771978472  0.9989151010641353  0.2926325319844949  1.0000
  C   C51       1.0  0.7086115417238689  0.5758059195913744  0.015435878973526903  1.0000
  C   C52       1.0  0.21441664083042866  0.344103829429116  0.03292317495535  1.0000
  C   C53       1.0  0.9623006728703201  0.7547270237774626  0.45982436707781454  1.0000
  C   C54       1.0  0.3485780901355752  0.9689170296563177  0.4805645662481197  1.0000
  C   C55       1.0  0.06850993633868536  0.2828029021405882  0.46314071984139094  1.0000
  C   C56       1.0  0.6893016149060075  0.42406201171799296  0.051552108278130504  1.0000
  C   C57       1.0  0.21836639351851517  0.47552383111217705  0.0693629644002485  1.0000
  C   C58       1.0  0.5352951785715092  0.9244981166948846  0.7781350444349188  1.0000
  C   C59       1.0  0.5435249055332674  0.04472993853600829  0.29951225844175877  1.0000
  C   C60       1.0  0.9243193470974019  0.5582513840677662  0.2738822065778379  1.0000
  C   C61       1.0  0.08132524434865468  0.47961891305077115  0.6673445256888044  1.0000
  C   C62       1.0  0.32636278197858803  0.9325505223989123  0.5747620244412701  1.0000
  C   C63       1.0  0.7261346225071674  0.07697081552399972  0.506363213510653  1.0000
  C   C64       1.0  0.48758383697584395  0.22622224337537483  0.04142503457871529  1.0000
  C   C65       1.0  0.7092477626045977  0.03547022927342157  0.5999850530210722  1.0000
  C   C66       1.0  0.41978522687074354  0.6709900241570779  0.08870359024918172  1.0000
  C   C67       1.0  0.9609706136140872  0.3221235488812295  0.2811620123420511  1.0000
  C   C68       1.0  0.0014610518846751733  0.71899522008912  0.6783378796480053  1.0000
  C   C69       1.0  0.24992079278158735  0.25119872761311507  0.0436078767974521  1.0000
  C   C70       1.0  0.6674423110711558  0.6670462616279308  0.010159051107116603  1.0000
  C   C71       1.0  0.3255668947497837  0.002127589889418894  0.33265058557627475  1.0000
  C   C72       1.0  0.7400417050771395  0.9931325646539618  0.7468774279203314  1.0000
  C   C73       1.0  0.0854733726590169  0.43038869774548527  0.6137166314876339  1.0000
  C   C74       1.0  0.9317810516263589  0.6073873227162064  0.3202771590554931  1.0000
  C   C75       1.0  0.3674607896826813  0.6204563427959898  0.09302492299583782  1.0000
  C   C76       1.0  0.997025977960291  0.712854872117738  0.5355517296253325  1.0000
  C   C77       1.0  0.5363100300227828  0.27238992016010133  0.0503575013313409  1.0000
  C   C78       1.0  0.6792120481951612  0.07344355858180057  0.45457944383648646  1.0000
  C   C79       1.0  0.3799826038532855  0.9251600755635392  0.6256650277518218  1.0000
  C   C80       1.0  0.0783083977203987  0.33063719199650166  0.5100982773013882  1.0000
  C   C81       1.0  0.9513105130839818  0.7069112224989236  0.41423189944858047  1.0000
  C   C82       1.0  0.5871136208810626  0.056704013603557236  0.34937337054824974  1.0000
  C   C83       1.0  0.4858378865453118  0.9219229917144741  0.7284529006305364  1.0000
  C   C84       1.0  0.26501795590042576  0.5211854085870796  0.0829184504391876  1.0000
  C   C85       1.0  0.6381979876069508  0.3716726056145061  0.0580746894376603  1.0000
  C   C86       1.0  0.12304085219463452  0.33564919810845584  0.6320753142959531  1.0000
  C   C87       1.0  0.021805446965494524  0.3238012474339911  0.3958239491250168  1.0000
  C   C88       1.0  0.8984852511750174  0.7024431920612813  0.29830552663221965  1.0000
  C   C89       1.0  0.27100044632719283  0.6525514318255715  0.1091801070669263  1.0000
  C   C90       1.0  0.6292904377382766  0.23343910112379973  0.0505516426429722  1.0000
  C   C91       1.0  0.7018410970461841  0.10886428089260393  0.35862832418479945  1.0000
  C   C92       1.0  0.36003506035414284  0.8852088414848965  0.7208601935296741  1.0000
  C   C93       1.0  0.12049032099880456  0.2883279224953342  0.5821830023806669  1.0000
  C   C94       1.0  0.9087215847886936  0.7502190438000371  0.3426212767843992  1.0000
  C   C95       1.0  0.6589746857879034  0.09954897907172013  0.30827598223863356  1.0000
  C   C96       1.0  0.4114324877603791  0.882475532146415  0.7697699694624874  1.0000
  C   C97       1.0  0.222268689530857  0.605376829009863  0.10418849600357308  1.0000
  C   C98       1.0  0.6061889358957582  0.966907811975915  0.739105319461011  1.0000
  C   C99       1.0  0.6778531397621633  0.28063063506250074  0.0554490302519497  1.0000
  C   C100      1.0  0.04320497882405049  0.4250871208198247  0.4887814025061772  1.0000
  C   C101      1.0  0.981993650247439  0.6120543716310464  0.4393778197811073  1.0000
  C   C102      1.0  0.3595677934731042  0.48463240377621014  0.0744222905486964  1.0000
  C   C103      1.0  0.5448112093037023  0.4101463722222149  0.06197188272350469  1.0000
  C   C104      1.0  0.5599640261904284  0.025894726192063896  0.4452314887423726  1.0000
  C   C105      1.0  0.5079937032696336  0.9606059450054473  0.6337052751979185  1.0000
  C   C106      1.0  0.04834444020761447  0.47435930431133483  0.5386980178604617  1.0000
  C   C107      1.0  0.9738412150123706  0.5627293782285462  0.3917746310170216  1.0000
  C   C108      1.0  0.6073263945924053  0.03138900857552313  0.49697153751893813  1.0000
  O   O1        1.0  0.11081494972599872  0.4769015627314134  0.9781630036551477  1.0000
  O   O2        1.0  0.46811573137137685  0.08293079532388956  0.025858381278112606  1.0000
  O   O3        1.0  0.00848274021520012  0.5031823717002055  0.837758728238981  1.0000
  O   O4        1.0  0.966074781391647  0.5364648181101046  0.112177548185727  1.0000
  O   O5        1.0  0.023311655756899075  0.6244253545395466  0.853492699451742  1.0000
  O   O6        1.0  0.9410637535711502  0.4176198519487924  0.10319999718010561  1.0000
  O   O7        1.0  0.5828588899196557  0.8184153265305766  0.07732762075613658  1.0000
  O   O8        1.0  0.3371361562913364  0.07347500175558246  0.029664118090337907  1.0000
  O   O9        1.0  0.903832761338428  0.04966977444492928  0.6439988472389118  1.0000
  O   O10       1.0  0.15116117839876608  0.976759569064356  0.4291540710462556  1.0000
  O   O11       1.0  0.016394405029899396  0.12936336726619396  0.3479943997079006  1.0000
  O   O12       1.0  0.847984752277739  0.4677055882225858  0.9702904415973209  1.0000
  O   O13       1.0  0.03133071832340308  0.8900364341433825  0.5890660789443274  1.0000
  O   O14       1.0  0.42577938890790534  0.9455746965286308  0.17505273237254929  1.0000
  O   O15       1.0  0.6529507288556432  0.9707279303456955  0.9375344633882889  1.0000
  O   O16       1.0  0.09522087198743634  0.349367729125163  0.9794224105420284  1.0000
  O   O17       1.0  0.8536957249704499  0.5887015868367913  0.9940180080543826  1.0000
  O   O18       1.0  0.5492392854126606  0.9757637837344432  0.16940945457561443  1.0000
  O   O19       1.0  0.5275646793580933  0.9687568544840273  0.9176162751147103  1.0000
  O   O20       1.0  0.006707520392325301  0.14724236052342823  0.4785281489781141  1.0000
  O   O21       1.0  0.015427983027663612  0.8883739770410695  0.461072901198996  1.0000
  O   O22       1.0  0.8921705752440371  0.031438894822883826  0.5222843690808858  1.0000
  O   O23       1.0  0.1558447281476276  0.011075101420438169  0.5455152731272221  1.0000
  O   O24       1.0  0.45531529139018545  0.8339806894551459  0.046825324224173  1.0000
