data_image0
_chemical_formula_structural       Cu2H24C36S4I2N12
_chemical_formula_sum              "Cu2 H24 C36 S4 I2 N12"
_cell_length_a       8.316165790498761
_cell_length_b       10.705202082826377
_cell_length_c       11.881542172308905
_cell_angle_alpha    99.05409020663522
_cell_angle_beta     107.50840836983171
_cell_angle_gamma    96.78884324532892

_space_group_name_H-M_alt    "P 1"
_space_group_IT_number       1

loop_
  _space_group_symop_operation_xyz
  'x, y, z'

loop_
  _atom_site_type_symbol
  _atom_site_label
  _atom_site_symmetry_multiplicity
  _atom_site_fract_x
  _atom_site_fract_y
  _atom_site_fract_z
  _atom_site_occupancy
  Cu  Cu1       1.0  0.38707393020881414  0.9253285216665719  0.9011770171524206  1.0000
  Cu  Cu2       1.0  0.6129218343630498  0.0746736845300049  0.09882524232050827  1.0000
  H   H1        1.0  0.27206751109896743  0.7086574322544268  0.0007253062949459375  1.0000
  H   H2        1.0  0.727929276943577  0.29133809442524244  0.9992796364191107  1.0000
  H   H3        1.0  0.4936477180001121  0.5079458199344276  0.6908578280142095  1.0000
  H   H4        1.0  0.5063461652490133  0.4920592150604008  0.3091402062281006  1.0000
  H   H5        1.0  0.49520732798468  0.18542547380639726  0.6145342341483442  1.0000
  H   H6        1.0  0.5047972764980599  0.8145767518407538  0.38546568985302093  1.0000
  H   H7        1.0  0.3640078437912209  0.3660754190004383  0.8022280895121838  1.0000
  H   H8        1.0  0.6359969754607705  0.6339277525002203  0.19777032403121814  1.0000
  H   H9        1.0  0.5736865555417127  0.33130076388360413  0.48738854144522753  1.0000
  H   H10       1.0  0.4263149041905692  0.668704319832955  0.5126111023077939  1.0000
  H   H11       1.0  0.5117008208648245  0.7443562531763491  0.7452066906008028  1.0000
  H   H12       1.0  0.4882865337429791  0.2556478028418141  0.2547923554873464  1.0000
  H   H13       1.0  0.06946250105859521  0.15621776398462126  0.008083521666854708  1.0000
  H   H14       1.0  0.9305439605118269  0.8437758761240062  0.9919198468028868  1.0000
  H   H15       1.0  0.19050181909224054  0.26190172322623084  0.8710368563830926  1.0000
  H   H16       1.0  0.8095080259607318  0.738095776363359  0.12896774793291144  1.0000
  H   H17       1.0  0.9007582628786821  0.1556879087977663  0.5562665808981465  1.0000
  H   H18       1.0  0.09924317329907247  0.8443113807870619  0.44372806885855454  1.0000
  H   H19       1.0  0.7970369213181103  0.004934178561761401  0.6749812747567105  1.0000
  H   H20       1.0  0.20296158378960177  0.9950689747723237  0.32501832546821424  1.0000
  H   H21       1.0  0.4121585650998725  0.09329187310991931  0.7331373235352814  1.0000
  H   H22       1.0  0.5878420125453019  0.9067036031477046  0.26685999746599987  1.0000
  H   H23       1.0  0.008853948446301378  0.9046767236734968  0.8117881168641078  1.0000
  H   H24       1.0  0.9911451997442172  0.09532933452575072  0.18821453580827094  1.0000
  C   C1        1.0  0.30657073436908894  0.5267555724324423  0.9106736281884196  1.0000
  C   C2        1.0  0.6934264834841671  0.47324183099766515  0.08932660831609952  1.0000
  C   C3        1.0  0.14320046886302154  0.4530087243951614  0.1473972432838409  1.0000
  C   C4        1.0  0.8567992743485109  0.5469887027538151  0.8526043723710615  1.0000
  C   C5        1.0  0.31913746319951036  0.6605265700029506  0.9323533766428014  1.0000
  C   C6        1.0  0.680856609767183  0.3394736989748638  0.06764742226018682  1.0000
  C   C7        1.0  0.23033513658307217  0.4527703439864725  0.9825370605280168  1.0000
  C   C8        1.0  0.7696643922675295  0.5472261148741141  0.017463537644403088  1.0000
  C   C9        1.0  0.1750604631499897  0.3587181556871357  0.4347691851074983  1.0000
  C   C10       1.0  0.8249437122025612  0.641282155818118  0.5652312318693403  1.0000
  C   C11       1.0  0.4395264662603965  0.5472653113889622  0.7587568194664412  1.0000
  C   C12       1.0  0.5604672023555821  0.4527387702740668  0.2412418825870049  1.0000
  C   C13       1.0  0.23001414116250632  0.21913046419327742  0.5636893864570354  1.0000
  C   C14       1.0  0.7699881282239432  0.7808669418048169  0.4363085524673735  1.0000
  C   C15       1.0  0.3998515091265207  0.2339632487885197  0.5624960464334166  1.0000
  C   C16       1.0  0.6001518328812381  0.7660389537817524  0.43750192402253424  1.0000
  C   C17       1.0  0.36768449730043073  0.46945764078569846  0.8209372975466137  1.0000
  C   C18       1.0  0.6323133645883701  0.5305426151615222  0.17906009287766267  1.0000
  C   C19       1.0  0.4436073369416391  0.315053991929176  0.49148444486906573  1.0000
  C   C20       1.0  0.5563974820381362  0.6849491945280662  0.5085156539679687  1.0000
  C   C21       1.0  0.44965115094497327  0.6795865603759453  0.7879645059140329  1.0000
  C   C22       1.0  0.5503399920405131  0.3204175125247914  0.21203450228265547  1.0000
  C   C23       1.0  0.11080940430456822  0.26008756814272266  0.02745525554259843  1.0000
  C   C24       1.0  0.8891972964062659  0.7399127670813999  0.9725465405846164  1.0000
  C   C25       1.0  0.17929258084718921  0.319018372742562  0.9516094373487859  1.0000
  C   C26       1.0  0.8207094737700091  0.6809780874020248  0.048390012033579004  1.0000
  C   C27       1.0  0.1639986913225471  0.13447864377672403  0.6329171369878067  1.0000
  C   C28       1.0  0.836000838208584  0.8655177776924039  0.36707924795054236  1.0000
  C   C29       1.0  0.9882620855159703  0.10987187041279613  0.6181800222151709  1.0000
  C   C30       1.0  0.01173387013451334  0.890125494983849  0.38181657545030845  1.0000
  C   C31       1.0  0.9316599710023185  0.026792663397238004  0.6825950808051714  1.0000
  C   C32       1.0  0.06833662800318051  0.9732075919079861  0.317402884014136  1.0000
  C   C33       1.0  0.27366029338998044  0.07592389767420121  0.7143350035445337  1.0000
  C   C34       1.0  0.7263415709652324  0.9240773584005669  0.2856650517644043  1.0000
  C   C35       1.0  0.04951824821191758  0.971040303385699  0.7606847823320066  1.0000
  C   C36       1.0  0.9504802567596826  0.02896285742667711  0.23931566053972375  1.0000
  S   S1        1.0  0.13125126014259084  0.5549368325433904  0.2777144741511819  1.0000
  S   S2        1.0  0.8687455288526922  0.44505864178823634  0.7222845700351783  1.0000
  S   S3        1.0  0.012190763693155313  0.43555651160494346  0.35539323185639654  1.0000
  S   S4        1.0  0.9878068594635538  0.5644370267919074  0.644603202969968  1.0000
  I   I1        1.0  0.30736941874165785  0.9747264109495436  0.10245635208624296  1.0000
  I   I2        1.0  0.6926313727200296  0.025270063509630302  0.8975453569847716  1.0000
  N   N1        1.0  0.20952808410839913  0.5203507196513257  0.0816409473662603  1.0000
  N   N2        1.0  0.7904699673618651  0.47964477775717285  0.9183600503655143  1.0000
  N   N3        1.0  0.09330376555320902  0.326322957625088  0.1278474535593332  1.0000
  N   N4        1.0  0.9067022912581849  0.6736745176036295  0.8721563460013186  1.0000
  N   N5        1.0  0.3888497432791668  0.7360177023240554  0.8728416847463051  1.0000
  N   N6        1.0  0.611144973314751  0.26398544160574744  0.12715879601688582  1.0000
  N   N7        1.0  0.1176340209260545  0.2829966821089016  0.49907030178998474  1.0000
  N   N8        1.0  0.8823686773183684  0.717002652987681  0.500928829452576  1.0000
  N   N9        1.0  0.33218651818386047  0.37813512368622787  0.4259138213030909  1.0000
  N   N10       1.0  0.6678142977850926  0.6218670925566343  0.5740869832365476  1.0000
  N   N11       1.0  0.2193839585705747  0.9963142644234824  0.7780161839663933  1.0000
  N   N12       1.0  0.7806155942428675  0.0036879661339668003  0.2219868802618947  1.0000
