data_image0
_chemical_formula_structural       Ag4H24C28N16
_chemical_formula_sum              "Ag4 H24 C28 N16"
_cell_length_a       5.214483552003939
_cell_length_b       12.322835596699282
_cell_length_c       13.079068839168853
_cell_angle_alpha    109.37053882961008
_cell_angle_beta     89.99987515188211
_cell_angle_gamma    89.99998046719365

_space_group_name_H-M_alt    "P 1"
_space_group_IT_number       1

loop_
  _space_group_symop_operation_xyz
  'x, y, z'

loop_
  _atom_site_type_symbol
  _atom_site_label
  _atom_site_symmetry_multiplicity
  _atom_site_fract_x
  _atom_site_fract_y
  _atom_site_fract_z
  _atom_site_occupancy
  Ag  Ag1       1.0  0.9756663671661058  0.5523411017858706  0.8866897568891899  1.0000
  Ag  Ag2       1.0  0.47569242562571645  0.4476512790520956  0.6133069275903367  1.0000
  Ag  Ag3       1.0  0.0243183091631209  0.4476546280112927  0.11331295379210356  1.0000
  Ag  Ag4       1.0  0.5243325231648583  0.552342725832922  0.38668989312574803  1.0000
  H   H1        1.0  0.4238671382651162  0.34301416014764635  0.7778867753884738  1.0000
  H   H2        1.0  0.9238744900148745  0.6569859884563484  0.7221123765515428  1.0000
  H   H3        1.0  0.5761309622194517  0.6569841470039535  0.22211291608588368  1.0000
  H   H4        1.0  0.0761255282102198  0.34301489669743285  0.2778850605035359  1.0000
  H   H5        1.0  0.7586823455633078  0.2447204989270091  0.906262156321759  1.0000
  H   H6        1.0  0.25868140677960133  0.7552788737353922  0.5937384270003463  1.0000
  H   H7        1.0  0.241317672658802  0.7552778075792543  0.09373677036989382  1.0000
  H   H8        1.0  0.7413128582380325  0.24472287161386663  0.40625927829389497  1.0000
  H   H9        1.0  0.0804272670792301  0.9822207238598606  0.7902576247956073  1.0000
  H   H10       1.0  0.5804275459820545  0.0177804593600612  0.7097444432858495  1.0000
  H   H11       1.0  0.9195689156678029  0.017777583937075295  0.20974283146146888  1.0000
  H   H12       1.0  0.41956671902833886  0.9822204283745889  0.29025605289909606  1.0000
  H   H13       1.0  0.9057267009831875  0.0529544515509386  0.9092521538133056  1.0000
  H   H14       1.0  0.4057217837560358  0.9470457087462165  0.5907500759347286  1.0000
  H   H15       1.0  0.0942790704348866  0.9470438581781548  0.09075059678401222  1.0000
  H   H16       1.0  0.5942724812595159  0.052956037247895396  0.4092483941412368  1.0000
  H   H17       1.0  0.3473937372189226  0.2015556281626516  0.04474458583626269  1.0000
  H   H18       1.0  0.8473920318492103  0.7984450029140145  0.4552574718790296  1.0000
  H   H19       1.0  0.6526101164761827  0.7984426776977995  0.9552535760716905  1.0000
  H   H20       1.0  0.15260415089229443  0.20155932559625708  0.5447440972497262  1.0000
  H   H21       1.0  0.31323450720305596  0.8442856946589785  0.844826071976442  1.0000
  H   H22       1.0  0.8132253798457612  0.1557170894493254  0.6551732337904212  1.0000
  H   H23       1.0  0.6867712642243404  0.1557134720398636  0.15517312294844737  1.0000
  H   H24       1.0  0.1867708028957438  0.8442872390609464  0.3448283353383345  1.0000
  C   C1        1.0  0.35936370325741507  0.5777373004877545  0.8901449921690697  1.0000
  C   C2        1.0  0.8593891203986032  0.4222620267617287  0.6098616057461896  1.0000
  C   C3        1.0  0.6406248085258923  0.4222618739536729  0.10986338014540559  1.0000
  C   C4        1.0  0.1406377461020867  0.5777388648338543  0.390143479112325  1.0000
  C   C5        1.0  0.2859128618334807  0.29381497359375425  0.8069181466862927  1.0000
  C   C6        1.0  0.7859164952440947  0.7061835232629435  0.6930798460194438  1.0000
  C   C7        1.0  0.7140852386521815  0.7061824733638175  0.1930812765518722  1.0000
  C   C8        1.0  0.21407968751216794  0.2938173612469511  0.30691682625587896  1.0000
  C   C9        1.0  0.9484807118211265  0.24798384742824447  0.8734095329261818  1.0000
  C   C10       1.0  0.4484834324465936  0.7520154286212345  0.6265893254414222  1.0000
  C   C11       1.0  0.0515173886676976  0.752012738690453  0.12658885729405248  1.0000
  C   C12       1.0  0.5515127503085822  0.24798631608268806  0.3734076150701071  1.0000
  C   C13       1.0  0.0925360201892502  0.0506421418317942  0.8694048064499283  1.0000
  C   C14       1.0  0.5925340384944774  0.9493581751132959  0.6305969809310595  1.0000
  C   C15       1.0  0.9074639980318722  0.9493553051252944  0.13059461678724912  1.0000
  C   C16       1.0  0.4074602265158234  0.050644432364549595  0.36940328694456065  1.0000
  C   C17       1.0  0.3061965082194291  0.02597807992388821  0.9365638151844209  1.0000
  C   C18       1.0  0.8061910360384699  0.9740229892647034  0.563437255698652  1.0000
  C   C19       1.0  0.6938073454715123  0.9740202272262691  0.0634358762869808  1.0000
  C   C20       1.0  0.19380322897273322  0.02598219750552029  0.43656228732211844  1.0000
  C   C21       1.0  0.4128480580025026  0.11285608457009738  0.02450926093531789  1.0000
  C   C22       1.0  0.9128480866044979  0.8871445116984943  0.47549043505153304  1.0000
  C   C23       1.0  0.5871596311708486  0.8871413591608003  0.9754863383892809  1.0000
  C   C24       1.0  0.08714809613700679  0.11285981681177759  0.5245111340772226  1.0000
  C   C25       1.0  0.3953018648874078  0.9130071222904871  0.9128002015071743  1.0000
  C   C26       1.0  0.8952912467664118  0.08699475847297582  0.5871964571943025  1.0000
  C   C27       1.0  0.604707742019322  0.08699032208478027  0.08719616259816118  1.0000
  C   C28       1.0  0.10470493597608767  0.9130104295864712  0.41280461538892865  1.0000
  N   N1        1.0  0.583907506926451  0.5768472993244912  0.8923293128045202  1.0000
  N   N2        1.0  0.08393553413358751  0.42315216497679853  0.6076760391161216  1.0000
  N   N3        1.0  0.41607908712764186  0.42315187318286007  0.10767676516577036  1.0000
  N   N4        1.0  0.9160970855713941  0.5768487272621884  0.39232981052115423  1.0000
  N   N5        1.0  0.04766287939654751  0.3333155658781379  0.8442146569643612  1.0000
  N   N6        1.0  0.5476648308230238  0.6666839127636947  0.6557861435916124  1.0000
  N   N7        1.0  0.95233522108812  0.666681021530266  0.15578526281932165  1.0000
  N   N8        1.0  0.4523294341946098  0.3333178325855641  0.3442115617026288  1.0000
  N   N9        1.0  0.3384415869568542  0.18951602786517432  0.8106285945042018  1.0000
  N   N10       1.0  0.8384432362106083  0.8104833040942907  0.6893711419261733  1.0000
  N   N11       1.0  0.661556513526719  0.8104814197372506  0.1893715935156877  1.0000
  N   N12       1.0  0.1615529465403966  0.1895184418993381  0.31062732814881133  1.0000
  N   N13       1.0  0.1199768944323338  0.16145268410387806  0.8533843747812638  1.0000
  N   N14       1.0  0.6199768353116253  0.8385467582202394  0.646616351331616  1.0000
  N   N15       1.0  0.8800231237867067  0.8385447634980708  0.14661581323763775  1.0000
  N   N16       1.0  0.3800193474414684  0.16145498712853615  0.35338135396163745  1.0000
