data_image0
_chemical_formula_structural       U4H20C16N4O24
_chemical_formula_sum              "U4 H20 C16 N4 O24"
_cell_length_a       6.861040144003398
_cell_length_b       10.175512138000684
_cell_length_c       10.942302940005066
_cell_angle_alpha    89.99996345477015
_cell_angle_beta     90.00010807875618
_cell_angle_gamma    89.99997926744155

_space_group_name_H-M_alt    "P 1"
_space_group_IT_number       1

loop_
  _space_group_symop_operation_xyz
  'x, y, z'

loop_
  _atom_site_type_symbol
  _atom_site_label
  _atom_site_symmetry_multiplicity
  _atom_site_fract_x
  _atom_site_fract_y
  _atom_site_fract_z
  _atom_site_occupancy
  U   U1        1.0  0.8366728721559157  0.7499992340790487  0.7596401992114963  1.0000
  U   U2        1.0  0.33666861653102137  0.2499998980586399  0.7403598213342308  1.0000
  U   U3        1.0  0.1633268284714973  0.2500000907709889  0.24035893543138095  1.0000
  U   U4        1.0  0.6633237965716177  0.7499994267922929  0.2596393133041701  1.0000
  H   H1        1.0  0.2668245213530085  0.6054946300579689  0.4901171039814757  1.0000
  H   H2        1.0  0.7668268649240844  0.10549533036413553  0.009883185189373504  1.0000
  H   H3        1.0  0.2668259012256868  0.8945051447241499  0.49011793221189504  1.0000
  H   H4        1.0  0.7668267872907463  0.3945048622792982  0.0098830995347825  1.0000
  H   H5        1.0  0.7331780942882773  0.39450469479077566  0.5098847723164044  1.0000
  H   H6        1.0  0.23317429320087513  0.8945069427418488  0.9901113800315073  1.0000
  H   H7        1.0  0.7331781719216083  0.10549516287561998  0.509884857970988  1.0000
  H   H8        1.0  0.2331743708339431  0.6054934798209289  0.9901105518028502  1.0000
  H   H9        1.0  0.33762740638091066  0.6414996368726166  0.6414152692474318  1.0000
  H   H10       1.0  0.8376249295898361  0.14149911509545632  0.8585839028993407  1.0000
  H   H11       1.0  0.3376273480903079  0.8585009995612084  0.6414152049341129  1.0000
  H   H12       1.0  0.8376248712992335  0.3585004777840481  0.8585838385860216  1.0000
  H   H13       1.0  0.6623737517551546  0.3585006707278211  0.3585866070492543  1.0000
  H   H14       1.0  0.1623733135273255  0.8585002097560164  0.141411576205023  1.0000
  H   H15       1.0  0.6623738100457571  0.14149930803923644  0.35858667136257344  1.0000
  H   H16       1.0  0.1623733718176652  0.6414998298189405  0.14141164051805083  1.0000
  H   H17       1.0  0.003954744106501099  0.7500004048585042  0.5074322676631057  1.0000
  H   H18       1.0  0.5039541127673813  0.24999979112093484  0.9925682584692342  1.0000
  H   H19       1.0  0.9960478715318714  0.24999990274238124  0.49256778086567016  1.0000
  H   H20       1.0  0.49604558785844693  0.750000516480938  0.007429962288945502  1.0000
  C   C1        1.0  0.09471090567139127  0.5151158590718838  0.6317572272741573  1.0000
  C   C2        1.0  0.5946997118112306  0.015124175431005  0.8682408077952675  1.0000
  C   C3        1.0  0.09471077948271038  0.9848848431949907  0.6317570880473724  1.0000
  C   C4        1.0  0.5946995856272962  0.4848754700267932  0.8682406685737263  1.0000
  C   C5        1.0  0.9053004549964428  0.48487560376490546  0.36824099349379225  1.0000
  C   C6        1.0  0.40529124378011266  0.984883994184699  0.13175558518640432  1.0000
  C   C7        1.0  0.90530058118037  0.015124309169117103  0.3682411327153404  1.0000
  C   C8        1.0  0.40528991246331003  0.5151169755648014  0.13175572441171113  1.0000
  C   C9        1.0  0.2100621167313363  0.629070814567065  0.5813958364307936  1.0000
  C   C10       1.0  0.7100641862394212  0.1290722170978853  0.9186031865418017  1.0000
  C   C11       1.0  0.21006059425747742  0.87092891140081  0.5813948508653155  1.0000
  C   C12       1.0  0.7100626637690012  0.37092736567644385  0.9186040287460103  1.0000
  C   C13       1.0  0.7899404989075692  0.37092752753078884  0.41860421209856474  1.0000
  C   C14       1.0  0.2899384293989584  0.8709280905030072  0.08139686198697402  1.0000
  C   C15       1.0  0.7899405638730315  0.129072378952408  0.4186033698934679  1.0000
  C   C16       1.0  0.28993849436469077  0.6290719591731035  0.08139601978216862  1.0000
  N   N1        1.0  0.09220969382074169  0.7500013508431778  0.5832298942768547  1.0000
  N   N2        1.0  0.5922117580201486  0.24999980637802113  0.9167698262757469  1.0000
  N   N3        1.0  0.9077900068061454  0.24999993950989827  0.41676924036543994  1.0000
  N   N4        1.0  0.4077864851020436  0.7500005012237169  0.08322930836594372  1.0000
  O   O1        1.0  0.6454640900053334  0.7500002791796022  0.6458559902925671  1.0000
  O   O2        1.0  0.145460163845506  0.24999988231024875  0.8541474511461405  1.0000
  O   O3        1.0  0.3545399831419688  0.2500000284201676  0.3541467998903088  1.0000
  O   O4        1.0  0.8545351642723348  0.7499994425390711  0.14585533903166953  1.0000
  O   O5        1.0  0.04896883420138921  0.7500002791700595  0.857697684663613  1.0000
  O   O6        1.0  0.5489642736660868  0.24999990583889803  0.642302896705985  1.0000
  O   O7        1.0  0.9510352389432696  0.2500000284303355  0.1423032777504574  1.0000
  O   O8        1.0  0.4510339694574271  0.7500004017625203  0.35769715182010503  1.0000
  O   O9        1.0  0.9364361236965807  0.5391941322498256  0.6876783232822421  1.0000
  O   O10       1.0  0.43644227898012383  0.039194746834567716  0.8123283418403417  1.0000
  O   O11       1.0  0.936436010443444  0.9608073092396412  0.6876781983275324  1.0000
  O   O12       1.0  0.43644216572752004  0.4608059583213447  0.8123282168862147  1.0000
  O   O13       1.0  0.06355920442655362  0.46080519259823666  0.31232812243317915  1.0000
  O   O14       1.0  0.5635588791596504  0.9608065435164478  0.18767627610926502  1.0000
  O   O15       1.0  0.0635593176786315  0.039195946614498205  0.31232824738672355  1.0000
  O   O16       1.0  0.5635604499187962  0.539194349277665  0.18767731494898504  1.0000
  O   O17       1.0  0.16215258419557446  0.3993143136535269  0.6166873491546881  1.0000
  O   O18       1.0  0.6621601129239564  0.899312582038441  0.8833141964969471  1.0000
  O   O19       1.0  0.16215266441279405  0.10068560988022311  0.6166874376601329  1.0000
  O   O20       1.0  0.6621616506450748  0.6006878092710367  0.883314285002129  1.0000
  O   O21       1.0  0.8378412864128179  0.6006869766999474  0.38331269936843176  1.0000
  O   O22       1.0  0.33784541772485704  0.1006857600590578  0.11668585203420183  1.0000
  O   O23       1.0  0.8378426637010747  0.8993137149700346  0.3833126108644579  1.0000
  O   O24       1.0  0.3378453375079005  0.39931348108083853  0.11668576352904131  1.0000
