data_image0
_chemical_formula_structural       Cu4P4H20C28O20
_chemical_formula_sum              "Cu4 P4 H20 C28 O20"
_cell_length_a       5.2227423448518
_cell_length_b       8.120101779395553
_cell_length_c       19.404944771650015
_cell_angle_alpha    102.12091528536018
_cell_angle_beta     96.87652824474227
_cell_angle_gamma    89.99275455231245

_space_group_name_H-M_alt    "P 1"
_space_group_IT_number       1

loop_
  _space_group_symop_operation_xyz
  'x, y, z'

loop_
  _atom_site_type_symbol
  _atom_site_label
  _atom_site_symmetry_multiplicity
  _atom_site_fract_x
  _atom_site_fract_y
  _atom_site_fract_z
  _atom_site_occupancy
  Cu  Cu1       1.0  0.24996076076378415  0.06211850512977431  0.9999450302122739  1.0000
  Cu  Cu2       1.0  0.7500809678254825  0.9378713082027373  5.6772664102294855e-05  1.0000
  Cu  Cu3       1.0  0.250016656291109  0.43423441737628116  0.9999740303936803  1.0000
  Cu  Cu4       1.0  0.7500107213719218  0.5657515243266289  2.1963963611383584e-05  1.0000
  P   P1        1.0  0.21078347653000412  0.7939342382397854  0.09254966353352498  1.0000
  P   P2        1.0  0.2895164915313444  0.7011157201191124  0.9074372741780792  1.0000
  P   P3        1.0  0.7892332031842882  0.2060504231474667  0.9074521743057885  1.0000
  P   P4        1.0  0.71050758192348  0.2988790346279017  0.0925614808710478  1.0000
  H   H1        1.0  0.8362817873376541  0.9808069336573481  0.1707136500663964  1.0000
  H   H2        1.0  0.6639330663296263  0.8096376071754391  0.8292856022372063  1.0000
  H   H3        1.0  0.16374229524057432  0.0192067008875156  0.8292831443729868  1.0000
  H   H4        1.0  0.3361017916516857  0.1903508793667825  0.1707087147087165  1.0000
  H   H5        1.0  0.7832615469829066  0.0509396409898315  0.2995312299151252  1.0000
  H   H6        1.0  0.7160864655103224  0.750907899725469  0.7004122178673384  1.0000
  H   H7        1.0  0.21671031828847728  0.9490913632385937  0.7004613012448074  1.0000
  H   H8        1.0  0.28392505683726915  0.24906788407668048  0.2995815118076095  1.0000
  H   H9        1.0  0.46918295168033813  0.7826308692339551  0.3467382633433402  1.0000
  H   H10       1.0  0.030882626025061193  0.4347257837096805  0.6532636276524642  1.0000
  H   H11       1.0  0.5307939275676646  0.21739774305380166  0.6532758286859561  1.0000
  H   H12       1.0  0.9691227952501648  0.5652802315942437  0.3467377670826082  1.0000
  H   H13       1.0  0.52398915890668  0.7092412868132526  0.21808511812131567  1.0000
  H   H14       1.0  0.9764842332461683  0.4902443437125896  0.7819932149312762  1.0000
  H   H15       1.0  0.47601829627488  0.29076228784386876  0.7819305480718768  1.0000
  H   H16       1.0  0.023532981916382298  0.5097592172982672  0.21801028558540736  1.0000
  H   H17       1.0  0.18747517026093158  0.922257990883473  0.5005051050844073  1.0000
  H   H18       1.0  0.31241161164653153  0.42141201992390614  0.49944213450364566  1.0000
  H   H19       1.0  0.8124827346113224  0.07775285778019739  0.4994992853927939  1.0000
  H   H20       1.0  0.6875623861013196  0.5786076734107296  0.5005530651740031  1.0000
  C   C1        1.0  0.18445520481282074  0.8416819130066597  0.18629197066950098  1.0000
  C   C2        1.0  0.3160671220738251  0.6545302058050666  0.8137126348247037  1.0000
  C   C3        1.0  0.8155522061526596  0.15830775150384818  0.8137116492026522  1.0000
  C   C4        1.0  0.6839454187580144  0.3454682717066574  0.18628567812530147  1.0000
  C   C5        1.0  0.9756731403548069  0.9384438581443315  0.20925606019891765  1.0000
  C   C6        1.0  0.5246168049777112  0.7284771821707635  0.7907504863105003  1.0000
  C   C7        1.0  0.0243088982016602  0.06155574579729971  0.7907437486536324  1.0000
  C   C8        1.0  0.47540297009272325  0.2715125032383625  0.20924566923417126  1.0000
  C   C9        1.0  0.9454982938266382  0.9776484043145572  0.2809512431753872  1.0000
  C   C10       1.0  0.5543941786720411  0.6958567591733242  0.7190390266578318  1.0000
  C   C11       1.0  0.0544720731168056  0.02234736537460689  0.7190479761195476  1.0000
  C   C12       1.0  0.4456117680008447  0.3041315915495204  0.2809546477327274  1.0000
  C   C13       1.0  0.1218988995502173  0.9203967923448175  0.3304350153746326  1.0000
  C   C14       1.0  0.37786728120635626  0.5890217129168391  0.6695752527726242  1.0000
  C   C15       1.0  0.8780567376516898  0.07961529307789308  0.6695668550484797  1.0000
  C   C16       1.0  0.6221370350068655  0.4109691571979468  0.33042015330855884  1.0000
  C   C17       1.0  0.33166570216453556  0.8249046360808592  0.30773641732639584  1.0000
  C   C18       1.0  0.1685161889601616  0.5159954425797294  0.6922909131794128  1.0000
  C   C19       1.0  0.6683157190892645  0.17509878404688098  0.6922719630237069  1.0000
  C   C20       1.0  0.8314906485954194  0.4840004934828101  0.3077080847940934  1.0000
  C   C21       1.0  0.36279434788772846  0.785235957548103  0.23576672833875278  1.0000
  C   C22       1.0  0.1376525270486511  0.5483867641760156  0.7642722230925969  1.0000
  C   C23       1.0  0.6371951157057723  0.21477128721960523  0.764243708732252  1.0000
  C   C24       1.0  0.8623563526094741  0.4516079266307428  0.2357277420976658  1.0000
  C   C25       1.0  0.0738157465368801  0.9590595614007356  0.4060774149765294  1.0000
  C   C26       1.0  0.4257395468711707  0.5522770961419212  0.5939287201311814  1.0000
  C   C27       1.0  0.9261378523586502  0.040951252160184005  0.5939237841519613  1.0000
  C   C28       1.0  0.5742494266979107  0.44773761840109216  0.40606430841225455  1.0000
  O   O1        1.0  0.35327676003961267  0.9438599682465068  0.07534689269277099  1.0000
  O   O2        1.0  0.14684150706769833  0.8682860434796994  0.9244830795101535  1.0000
  O   O3        1.0  0.6467343234880687  0.056125931616286096  0.924655962705515  1.0000
  O   O4        1.0  0.8531944954683296  0.1317163311090042  0.0755176328569505  1.0000
  O   O5        1.0  0.3548078737488254  0.6286407519218146  0.07484527092551468  1.0000
  O   O6        1.0  0.14520083970518977  0.5538440729946076  0.9252338905061278  1.0000
  O   O7        1.0  0.6451989789914094  0.37134511567047207  0.9251549107365021  1.0000
  O   O8        1.0  0.8548325343988238  0.446149455721617  0.07476289743318179  1.0000
  O   O9        1.0  0.9252690430785435  0.7780344950695409  0.0543101582307912  1.0000
  O   O10       1.0  0.5749575968795354  0.7235708282520932  0.9457228518730432  1.0000
  O   O11       1.0  0.07474918431382348  0.22195267832865545  0.9456888384611943  1.0000
  O   O12       1.0  0.4250771502159552  0.2764163954829754  0.05427083661528088  1.0000
  O   O13       1.0  0.23931415738917386  0.8947384996832495  0.4493010331323787  1.0000
  O   O14       1.0  0.26051507086021536  0.4445425082694925  0.5506143006889346  1.0000
  O   O15       1.0  0.7606475552391601  0.10527865846745497  0.5507024444073352  1.0000
  O   O16       1.0  0.7394957962230819  0.5554622628944017  0.44938504126228196  1.0000
  O   O17       1.0  0.8848099359944115  0.04412762167731189  0.4246288139413466  1.0000
  O   O18       1.0  0.6143317826924601  0.6192203485638073  0.5754386755046923  1.0000
  O   O19       1.0  0.11513134115785563  0.9558617123179404  0.5753692085724254  1.0000
  O   O20       1.0  0.3856443057740506  0.38081572217024723  0.4245559375472538  1.0000
