data_image0
_chemical_formula_structural       Cd2H28C32N4O12
_chemical_formula_sum              "Cd2 H28 C32 N4 O12"
_cell_length_a       7.979001352471829
_cell_length_b       10.302982270225293
_cell_length_c       11.969732774456302
_cell_angle_alpha    89.44503714937595
_cell_angle_beta     102.65026724694053
_cell_angle_gamma    107.17598508888999

_space_group_name_H-M_alt    "P 1"
_space_group_IT_number       1

loop_
  _space_group_symop_operation_xyz
  'x, y, z'

loop_
  _atom_site_type_symbol
  _atom_site_label
  _atom_site_symmetry_multiplicity
  _atom_site_fract_x
  _atom_site_fract_y
  _atom_site_fract_z
  _atom_site_occupancy
  Cd  Cd1       1.0  0.21524446356288252  0.11747332971376782  0.4815869527341334  1.0000
  Cd  Cd2       1.0  0.7847568291720464  0.8825220079282446  0.5184112402831857  1.0000
  H   H1        1.0  0.5642291451808176  0.18517215296505193  0.4385938345166664  1.0000
  H   H2        1.0  0.4357712144944799  0.8148210891988941  0.5614067116052084  1.0000
  H   H3        1.0  0.4625598511790088  0.2968220045682913  0.4029956655971035  1.0000
  H   H4        1.0  0.5374434098510719  0.7031713912014084  0.5969995094142178  1.0000
  H   H5        1.0  0.7728501922240267  0.3535751078918282  0.822175324299245  1.0000
  H   H6        1.0  0.22715712352668047  0.6464285027867903  0.1778188518393549  1.0000
  H   H7        1.0  0.26120898949010746  0.9405214537573983  0.6923373513968158  1.0000
  H   H8        1.0  0.738780209718449  0.059489895522858695  0.3076663632963843  1.0000
  H   H9        1.0  0.8334895361400286  0.32439273675043273  0.22494054469822095  1.0000
  H   H10       1.0  0.16650782824546434  0.6756003114260026  0.7750670289419048  1.0000
  H   H11       1.0  0.4816869908804264  0.9381461556964157  0.8743072773586392  1.0000
  H   H12       1.0  0.5183032476840809  0.06185806962837862  0.1256974447385133  1.0000
  H   H13       1.0  0.6872238585031383  0.5024659117076594  0.1595594242235876  1.0000
  H   H14       1.0  0.3127739448079865  0.4975312607174658  0.8404457146607883  1.0000
  H   H15       1.0  0.5372656129000078  0.33852655383802965  0.641436876513538  1.0000
  H   H16       1.0  0.4627426317898936  0.661482238923753  0.3585532742151116  1.0000
  H   H17       1.0  0.8164899446757518  0.7369510369189385  0.2548005723005531  1.0000
  H   H18       1.0  0.1835167604973975  0.26305231127827977  0.7452043704880965  1.0000
  H   H19       1.0  0.23718217866039734  0.6113948116545558  0.47515803257922323  1.0000
  H   H20       1.0  0.7628210516202714  0.38860250645506517  0.5248429897148412  1.0000
  H   H21       1.0  0.1763656871196631  0.17076829360377133  0.0864369831083991  1.0000
  H   H22       1.0  0.8236262524662977  0.8292260038327444  0.9135588238442054  1.0000
  H   H23       1.0  0.9971058780537092  0.14757506431954684  0.1588418731290702  1.0000
  H   H24       1.0  0.002890171461252954  0.8524232950065738  0.8411554513577642  1.0000
  H   H25       1.0  0.8471216463734947  0.0366148457758939  0.8070888736713756  1.0000
  H   H26       1.0  0.15286930906488996  0.9633804225967781  0.192908442284228  1.0000
  H   H27       1.0  0.08182028683000199  0.10107111531664968  0.8683194894911425  1.0000
  H   H28       1.0  0.9181712055894592  0.8989252310813639  0.13167540760641563  1.0000
  C   C1        1.0  0.77591881841564  0.15420155884471853  0.9756719713249639  1.0000
  C   C2        1.0  0.22409033270492518  0.8458101651299472  0.024323345887275086  1.0000
  C   C3        1.0  0.6614273188018275  0.26043181411542093  0.7965390702190049  1.0000
  C   C4        1.0  0.3385729263362762  0.7395768206922427  0.2034547707835657  1.0000
  C   C5        1.0  0.6472540762425326  0.14603359065905153  0.8618906210165278  1.0000
  C   C6        1.0  0.35274453761381597  0.8539709541468739  0.1381037851759004  1.0000
  C   C7        1.0  0.1299525232542109  0.3500411377330224  0.3980766505822331  1.0000
  C   C8        1.0  0.8700459661813725  0.6499510000798951  0.6019269294433442  1.0000
  C   C9        1.0  0.3770304063449784  0.029553150610446697  0.7240331044262974  1.0000
  C   C10       1.0  0.6229686239284575  0.970453267573888  0.2759680589039277  1.0000
  C   C11       1.0  0.8887647601426494  0.42652646873378325  0.2658355436139814  1.0000
  C   C12       1.0  0.11123487056111252  0.5734687012463978  0.7341690618759388  1.0000
  C   C13       1.0  0.5014352038221547  0.029027730172394708  0.8253359489781004  1.0000
  C   C14       1.0  0.4985675282040702  0.9709747033129476  0.17466331935936102  1.0000
  C   C15       1.0  0.807863813465282  0.5271879129269834  0.2289385054583876  1.0000
  C   C16       1.0  0.1921364174051519  0.47281229780021766  0.7710678720485262  1.0000
  C   C17       1.0  0.5319100867195985  0.2525194038099485  0.6959404781091508  1.0000
  C   C18       1.0  0.4680844762729066  0.7474881284331405  0.3040549291186849  1.0000
  C   C19       1.0  0.04413492788510345  0.45758003338308834  0.3547043244438584  1.0000
  C   C20       1.0  0.9558687025945645  0.5424152155741525  0.6452984359091047  1.0000
  C   C21       1.0  0.8802332913428897  0.6581789941682957  0.2809684722329422  1.0000
  C   C22       1.0  0.11976960604481228  0.34182126921027844  0.7190366751826716  1.0000
  C   C23       1.0  0.11936201510350491  0.8326245713199472  0.4202523582844507  1.0000
  C   C24       1.0  0.8806490900445496  0.1673767867019436  0.5797524774261333  1.0000
  C   C25       1.0  0.11779574352969747  0.5895615307008272  0.4054528142842031  1.0000
  C   C26       1.0  0.8822062943948481  0.41043582165573866  0.594546338443962  1.0000
  C   C27       1.0  0.037277378602823284  0.6906490663208588  0.3689268688573009  1.0000
  C   C28       1.0  0.9627275502656262  0.3093532179070735  0.6310794514273539  1.0000
  C   C29       1.0  0.04133589595699048  0.10492324780920369  0.0909183036114172  1.0000
  C   C30       1.0  0.9586576790311554  0.8950720530239595  0.9090786104567316  1.0000
  C   C31       1.0  0.9516167267185835  0.0393925780204754  0.8841712939619627  1.0000
  C   C32       1.0  0.04837649915850749  0.9606017255508447  0.115824726148837  1.0000
  N   N1        1.0  0.39393378751843505  0.1388700359789325  0.6599534972254446  1.0000
  N   N2        1.0  0.60606267017274  0.8611363699357927  0.34004723978839024  1.0000
  N   N3        1.0  0.9156988215976724  0.10291038140636741  0.9813783901604439  1.0000
  N   N4        1.0  0.08429391014541202  0.8970859509355764  0.018617548299154393  1.0000
  O   O1        1.0  0.2794209193778129  0.8732135414360869  0.47891576912806505  1.0000
  O   O2        1.0  0.7205902327377417  0.1267878367766855  0.5210882383786739  1.0000
  O   O3        1.0  0.7466989194540119  0.20699360018304708  0.05957067425524093  1.0000
  O   O4        1.0  0.2533205137547155  0.7930243460802728  0.9404230036117623  1.0000
  O   O5        1.0  0.28411558263373843  0.3841820392738313  0.4658635483119866  1.0000
  O   O6        1.0  0.715884350213578  0.6158141077773178  0.5341427793391347  1.0000
  O   O7        1.0  0.03887267053279691  0.22552963799527254  0.3653062176222548  1.0000
  O   O8        1.0  0.9611158735643671  0.7744665346061126  0.6346948787897021  1.0000
  O   O9        1.0  0.021447603252084876  0.9142879698552381  0.39873239765710616  1.0000
  O   O10       1.0  0.9785513292295674  0.08570520560127193  0.6012704199181229  1.0000
  O   O11       1.0  0.45484603304027627  0.20150733473123245  0.3885136236985005  1.0000
  O   O12       1.0  0.5451527382003363  0.7984849242269476  0.6114849871039851  1.0000
