data_image0
_chemical_formula_structural       Sm2H56C48N6O22
_chemical_formula_sum              "Sm2 H56 C48 N6 O22"
_cell_length_a       9.76348557408189
_cell_length_b       10.831261903005926
_cell_length_c       13.0739
_cell_angle_alpha    101.39221634923682
_cell_angle_beta     93.09027535540801
_cell_angle_gamma    104.58290121403363

_space_group_name_H-M_alt    "P 1"
_space_group_IT_number       1

loop_
  _space_group_symop_operation_xyz
  'x, y, z'

loop_
  _atom_site_type_symbol
  _atom_site_label
  _atom_site_symmetry_multiplicity
  _atom_site_fract_x
  _atom_site_fract_y
  _atom_site_fract_z
  _atom_site_occupancy
  Sm  Sm1       1.0  0.2385100255297203  0.014727480696059598  0.9979628561299876  1.0000
  Sm  Sm2       1.0  0.7614925137334153  0.9852748129392025  0.002036015179200473  1.0000
  H   H1        1.0  0.7242134319287814  0.0075020701534427  0.7330999066355446  1.0000
  H   H2        1.0  0.2757968582186052  0.992502178673419  0.26690036155069663  1.0000
  H   H3        1.0  0.7931889408220059  0.07256693608155729  0.5629989339173208  1.0000
  H   H4        1.0  0.20682043963876143  0.9274412231284898  0.4370019375477768  1.0000
  H   H5        1.0  0.6409743981141602  0.1871665810916099  0.4774132668301689  1.0000
  H   H6        1.0  0.35903087948282314  0.8128415781184372  0.5225889692228806  1.0000
  H   H7        1.0  0.8649132982187381  0.26822002629513964  0.7872066208477264  1.0000
  H   H8        1.0  0.13508542361693532  0.7317832449359185  0.21279149186818813  1.0000
  H   H9        1.0  0.10146614384867549  0.6665560981053459  0.7989597676942496  1.0000
  H   H10       1.0  0.8985284751232214  0.3334471731257196  0.20104353402314254  1.0000
  H   H11       1.0  0.3000166162839477  0.6602066133976834  0.0887104415672297  1.0000
  H   H12       1.0  0.6999913369952324  0.339796657833375  0.911293396976916  1.0000
  H   H13       1.0  0.4287807664917693  0.6198524364542521  0.006987996865170509  1.0000
  H   H14       1.0  0.5712168669763145  0.38014008122302556  0.9930106069517423  1.0000
  H   H15       1.0  0.8940483908322603  0.47382015375283254  0.7167091691568857  1.0000
  H   H16       1.0  0.1059503310034131  0.5261831174782258  0.2832912382071484  1.0000
  H   H17       1.0  0.3763641065685377  0.5416584589597164  0.219278120510829  1.0000
  H   H18       1.0  0.6236418486564261  0.4583379691007536  0.7807229879996315  1.0000
  H   H19       1.0  0.5245287401086856  0.6611773660250435  0.19218356342898352  1.0000
  H   H20       1.0  0.4754753330913886  0.33881612924803756  0.8078154596210184  1.0000
  H   H21       1.0  0.4999844205935489  0.49311593961269296  0.13551375590066783  1.0000
  H   H22       1.0  0.5000165754586803  0.5068775556603882  0.8644859081489431  1.0000
  H   H23       1.0  0.8704293166723572  0.3183951306247366  0.49748891933612077  1.0000
  H   H24       1.0  0.1295671216727854  0.6816003198399371  0.502511646058153  1.0000
  H   H25       1.0  0.8482938110319437  0.17180659591428338  0.31604285834497864  1.0000
  H   H26       1.0  0.15170439330877633  0.8281878769545941  0.6839568532884286  1.0000
  H   H27       1.0  0.4578128340971546  0.33392717266250566  0.45639422017222137  1.0000
  H   H28       1.0  0.5421866280181504  0.6660751209727565  0.5436075867846953  1.0000
  H   H29       1.0  0.4692571695781352  0.47215433051312766  0.3995750463643547  1.0000
  H   H30       1.0  0.5307479919895215  0.5278499183137271  0.600428074880881  1.0000
  H   H31       1.0  0.11440062078917632  0.4476587126039888  0.5801529101038484  1.0000
  H   H32       1.0  0.8855941675897157  0.5523416258396735  0.41984685897640633  1.0000
  H   H33       1.0  0.5684779975594553  0.22956197806114884  0.3021238937703856  1.0000
  H   H34       1.0  0.43150630160134534  0.7704305396161288  0.6978779976332918  1.0000
  H   H35       1.0  0.6814309767645526  0.3829887953782388  0.3723951109486877  1.0000
  H   H36       1.0  0.3185681372627869  0.617001767107446  0.6276017027577511  1.0000
  H   H37       1.0  0.5864374748108716  0.3712908840600164  0.24959655065697461  1.0000
  H   H38       1.0  0.4135570815093815  0.6287016336172684  0.7504026941595472  1.0000
  H   H39       1.0  0.2580394833247439  0.2968166585766667  0.6807408287144768  1.0000
  H   H40       1.0  0.7419610578841828  0.703178791888007  0.3192591369745585  1.0000
  H   H41       1.0  0.2652809300978021  0.1888128524153529  0.5609727605619241  1.0000
  H   H42       1.0  0.7347153388403456  0.8111855308367167  0.43902521840784914  1.0000
  H   H43       1.0  0.0560251284284092  0.021104338086068698  0.5951789301455507  1.0000
  H   H44       1.0  0.9439739322212545  0.9788930675702047  0.4048212958885459  1.0000
  H   H45       1.0  0.0122514873135273  0.17331111584731929  0.6114194329948219  1.0000
  H   H46       1.0  0.9877485990520825  0.8266862898089541  0.38858236409905095  1.0000
  H   H47       1.0  0.058255314054626695  0.1154853468029984  0.7233859663289692  1.0000
  H   H48       1.0  0.9417468237428751  0.8845120588532749  0.2766143835882247  1.0000
  H   H49       1.0  0.4271824413699151  0.8397156866039808  0.9194679825777501  1.0000
  H   H50       1.0  0.5728198124569062  0.1602856294354851  0.0805284226164318  1.0000
  H   H51       1.0  0.2848537176398196  0.731521249262066  0.9306024717750605  1.0000
  H   H52       1.0  0.7151461993187952  0.26847908918159646  0.0693982686597252  1.0000
  H   H53       1.0  0.3499370114269098  0.2533312422924183  0.1547405805529039  1.0000
  H   H54       1.0  0.6500604526341789  0.7466642081722554  0.8452577314876208  1.0000
  H   H55       1.0  0.322654822213444  0.2949103467706706  0.049314964910387  1.0000
  H   H56       1.0  0.6773417321610253  0.7050890140771954  0.9506854801743998  1.0000
  C   C1        1.0  0.5030805464248758  0.0430015063642628  0.8345460723133018  1.0000
  C   C2        1.0  0.4969334451206535  0.9569978544836032  0.1654527801275947  1.0000
  C   C3        1.0  0.5361211715879789  0.0746404167690002  0.7302726822530161  1.0000
  C   C4        1.0  0.4638850156956238  0.9253638320578544  0.26972512610765165  1.0000
  C   C5        1.0  0.4510627061748025  0.1286985316080376  0.6690846625433551  1.0000
  C   C6        1.0  0.5489427942068515  0.871299851644032  0.330913688075718  1.0000
  C   C7        1.0  0.659887667139408  0.053269195030097194  0.6897125791021494  1.0000
  C   C8        1.0  0.3401215972920326  0.9467350537967646  0.3102868829070289  1.0000
  C   C9        1.0  0.6987583407163029  0.0904090369898753  0.5967822080472658  1.0000
  C   C10       1.0  0.3012504688718209  0.9095971670285792  0.4032175556013372  1.0000
  C   C11       1.0  0.6133595240623889  0.1523895881754669  0.5486186419462699  1.0000
  C   C12       1.0  0.38664666322122077  0.8476146606513877  0.4513814610625175  1.0000
  C   C13       1.0  0.16440721103057854  0.4619912445976766  0.9371599358303586  1.0000
  C   C14       1.0  0.8355863822253723  0.5380120266333819  0.06284255970996358  1.0000
  C   C15       1.0  0.0294592844609056  0.22345689230297686  0.9356456304547296  1.0000
  C   C16       1.0  0.9705283239063718  0.7765434461406855  0.06435308468225291  1.0000
  C   C17       1.0  0.05152791573059551  0.348035835218468  0.8970086778165511  1.0000
  C   C18       1.0  0.9484705206687636  0.6519664584167939  0.10299155808058198  1.0000
  C   C19       1.0  0.9537484538401344  0.3541898007665409  0.8176814288798584  1.0000
  C   C20       1.0  0.046246905411393924  0.6458124928687212  0.18231791825147786  1.0000
  C   C21       1.0  0.08354562942162151  0.5736717885550675  0.8233180408176397  1.0000
  C   C22       1.0  0.9164497298299067  0.4263305050801947  0.17668513072722192  1.0000
  C   C23       1.0  0.3598258697707024  0.5875184554371771  0.0655833348885508  1.0000
  C   C24       1.0  0.6401752423108605  0.41247895021908926  0.9344192683823921  1.0000
  C   C25       1.0  0.9694593364904093  0.4674872881737357  0.7787062215106176  1.0000
  C   C26       1.0  0.030538359629325378  0.5325159830573226  0.2212933796763465  1.0000
  C   C27       1.0  0.4444148325592963  0.568798473502305  0.1586544617267691  1.0000
  C   C28       1.0  0.5555874746451934  0.4311959993665723  0.8413469448495123  1.0000
  C   C29       1.0  0.051798738285654594  0.13509591850979769  0.19864867979855927  1.0000
  C   C30       1.0  0.9481875589293621  0.8649034423380684  0.8013498225771585  1.0000
  C   C31       1.0  0.07208644296024151  0.22259074242599294  0.3063539450554131  1.0000
  C   C32       1.0  0.9279124482824272  0.7774095960176695  0.6936475189677155  1.0000
  C   C33       1.0  0.2054915663869039  0.3004298526458768  0.3611638064963075  1.0000
  C   C34       1.0  0.7945065845761404  0.6995714633935888  0.6388354930512322  1.0000
  C   C35       1.0  0.9632279558480263  0.31106022935274774  0.4565532660346535  1.0000
  C   C36       1.0  0.03676774221749213  0.6889361987077293  0.5434436051186325  1.0000
  C   C37       1.0  0.9512570241257592  0.2306695941002275  0.3572583781100391  1.0000
  C   C38       1.0  0.0487389593760739  0.7693278115560459  0.6427424889236661  1.0000
  C   C39       1.0  0.4609044095108672  0.3669249412263865  0.382054799116773  1.0000
  C   C40       1.0  0.5390945977611281  0.6330793076004682  0.6179473094795682  1.0000
  C   C41       1.0  0.0990622373263079  0.3832204855823562  0.5023379724468882  1.0000
  C   C42       1.0  0.9009344864551494  0.616775942478121  0.4976581751180477  1.0000
  C   C43       1.0  0.5805510128676872  0.3353006947586222  0.32241514306805646  1.0000
  C   C44       1.0  0.41944599635009183  0.6646967108976511  0.6775857652600126  1.0000
  C   C45       1.0  0.23502632002063706  0.19307028211541416  0.6408077138762354  1.0000
  C   C46       1.0  0.7649730260653486  0.8069281011366555  0.35919191874205586  1.0000
  C   C47       1.0  0.081395265820781  0.12105275487230219  0.6430297348205869  1.0000
  C   C48       1.0  0.9186040802651974  0.8789456283797675  0.35697142756311  1.0000
  N   N1        1.0  0.4921815328707453  0.17148301170516328  0.5835866293291403  1.0000
  N   N2        1.0  0.5078229417949629  0.8285153715469064  0.4164124448782687  1.0000
  N   N3        1.0  0.17843084868876252  0.5710733389241298  0.9009148523490185  1.0000
  N   N4        1.0  0.8215653668717094  0.4289318874985284  0.09908883359652522  1.0000
  N   N5        1.0  0.21735062171676836  0.378951324732725  0.4559422272364912  1.0000
  N   N6        1.0  0.78264650353033  0.6210499913067409  0.5440570310166777  1.0000
  O   O1        1.0  0.9262365580173365  0.09799029240294739  0.1517069954546031  1.0000
  O   O2        1.0  0.07376438465722399  0.9020100460407148  0.848295316039959  1.0000
  O   O3        1.0  0.5787781968223554  0.9784580374401199  0.8721922457903803  1.0000
  O   O4        1.0  0.42122217497957587  0.021540345811949597  0.1278028388260424  1.0000
  O   O5        1.0  0.9012000363154441  0.164825584321143  0.9413628771469933  1.0000
  O   O6        1.0  0.09880130782475054  0.8351796421015081  0.05863489620874423  1.0000
  O   O7        1.0  0.40533218395999165  0.0812274572555651  0.8804193625423979  1.0000
  O   O8        1.0  0.5946764562211371  0.9187816795502854  0.1195846986260491  1.0000
  O   O9        1.0  0.3260631630788779  0.825582584153068  0.9289089074380643  1.0000
  O   O10       1.0  0.6739371553453708  0.1744226422695832  0.0710857650924837  1.0000
  O   O11       1.0  0.38205344349022136  0.25108374955294005  0.084484260122494  1.0000
  O   O12       1.0  0.61794225457529  0.7489126785075368  0.9155133759134914  1.0000
  O   O13       1.0  0.1379363249265069  0.1848574998168644  0.956767499296227  1.0000
  O   O14       1.0  0.8620678643028867  0.815139905839409  0.043229873678875215  1.0000
  O   O15       1.0  0.15917210689258346  0.10438670170891129  0.1622222742881192  1.0000
  O   O16       1.0  0.8408328226164413  0.8956097263515588  0.8377764982798652  1.0000
  O   O17       1.0  0.3221726373886966  0.13383579752624536  0.6984386017789249  1.0000
  O   O18       1.0  0.6778296698158002  0.866158675342632  0.3015574506184251  1.0000
  O   O19       1.0  0.2580336781390571  0.4623676189798899  0.0174508103574738  1.0000
  O   O20       1.0  0.7419572928123728  0.5376336970595759  0.9825535543084386  1.0000
  O   O21       1.0  0.32692809042719523  0.2976544581755078  0.3165053255173191  1.0000
  O   O22       1.0  0.6730688654129082  0.7023497906513468  0.6834967004902881  1.0000
