data_image0
_chemical_formula_structural       V8P4H36C48N8O30
_chemical_formula_sum              "V8 P4 H36 C48 N8 O30"
_cell_length_a       9.826589293073939
_cell_length_b       10.046770492355888
_cell_length_c       14.911809367048935
_cell_angle_alpha    103.0152990525966
_cell_angle_beta     89.99974827735716
_cell_angle_gamma    90.00040945481508

_space_group_name_H-M_alt    "P 1"
_space_group_IT_number       1

loop_
  _space_group_symop_operation_xyz
  'x, y, z'

loop_
  _atom_site_type_symbol
  _atom_site_label
  _atom_site_symmetry_multiplicity
  _atom_site_fract_x
  _atom_site_fract_y
  _atom_site_fract_z
  _atom_site_occupancy
  V   V1        1.0  0.4179330442134699  0.21859515112511474  0.9568011403468546  1.0000
  V   V2        1.0  0.5820689771860968  0.21859720162206037  0.456801977474754  1.0000
  V   V3        1.0  0.5820703566601324  0.7814038955130727  0.04319819020905411  1.0000
  V   V4        1.0  0.417931370737641  0.7813998069618082  0.5431977211492623  1.0000
  V   V5        1.0  0.32330309998374673  0.3246219290691244  0.7544509284985992  1.0000
  V   V6        1.0  0.6766979858506091  0.32462456701927783  0.2544488987797564  1.0000
  V   V7        1.0  0.6766952126349892  0.6753730465723964  0.2455498095687716  1.0000
  V   V8        1.0  0.3233074502933135  0.6753704188625635  0.745553182033234  1.0000
  P   P1        1.0  0.5258257710938068  0.9048693028671269  0.861025498745761  1.0000
  P   P2        1.0  0.4741777797676577  0.9048686222349006  0.36102691069610426  1.0000
  P   P3        1.0  0.4741776297820195  0.09512973866235094  0.1389731604339275  1.0000
  P   P4        1.0  0.5258266387466649  0.09512838125331773  0.638972116547798  1.0000
  H   H1        1.0  0.5833873387797225  0.883325265654591  0.7192748283933241  1.0000
  H   H2        1.0  0.416618020385151  0.8833272902070565  0.21927814836821824  1.0000
  H   H3        1.0  0.41662013268445725  0.11667377588796063  0.2807238307824704  1.0000
  H   H4        1.0  0.5833813098956426  0.11667176663549132  0.7807225249440323  1.0000
  H   H5        1.0  0.4569199029562583  0.4896659004081983  0.09646483155344752  1.0000
  H   H6        1.0  0.5430813953847249  0.4896758605416381  0.5964613945519376  1.0000
  H   H7        1.0  0.5430824802638767  0.5103311030734831  0.9035341956924084  1.0000
  H   H8        1.0  0.4569087761030772  0.5103251832288439  0.40353219694172543  1.0000
  H   H9        1.0  0.3126676874626639  0.6625717446222199  0.2006324972828111  1.0000
  H   H10       1.0  0.6873341652588963  0.6625846541342285  0.7006264016512134  1.0000
  H   H11       1.0  0.6873336781017869  0.3374232208116795  0.7993668980292057  1.0000
  H   H12       1.0  0.3126560062546914  0.33742250376980826  0.2993660856468878  1.0000
  H   H13       1.0  0.05809705434654691  0.6311405628648789  0.19884646064429753  1.0000
  H   H14       1.0  0.9419045830807777  0.6311510622697939  0.698844641557713  1.0000
  H   H15       1.0  0.9419063465076366  0.3688544127929917  0.801154277418199  1.0000
  H   H16       1.0  0.05808253547598242  0.36885613138546364  0.3011525453768442  1.0000
  H   H17       1.0  0.8580253831474564  0.48944385539716256  0.1322878862744972  1.0000
  H   H18       1.0  0.1419766920257004  0.48945027860899176  0.632293122784219  1.0000
  H   H19       1.0  0.1419780177086594  0.5105531736313795  0.8677144978514663  1.0000
  H   H20       1.0  0.8580185676702856  0.510554943441214  0.36771316009855337  1.0000
  H   H21       1.0  0.7637603392420473  0.28308447191687247  0.026879586080134712  1.0000
  H   H22       1.0  0.23624094804007714  0.28308944730250835  0.5268829958836392  1.0000
  H   H23       1.0  0.23624000867501857  0.7169125519931403  0.9731221266725427  1.0000
  H   H24       1.0  0.7637573646060717  0.716915754322635  0.4731206014913312  1.0000
  H   H25       1.0  0.8072314754473667  0.058703074607663615  0.9118445278001985  1.0000
  H   H26       1.0  0.1927696903591922  0.05870976511567963  0.4118458297917016  1.0000
  H   H27       1.0  0.1927678548496559  0.9412990316385863  0.08815458634994408  1.0000
  H   H28       1.0  0.8072296399798375  0.9413015046678339  0.5881506210007786  1.0000
  H   H29       1.0  0.9787714647561572  0.9007867058070647  0.8168634914236962  1.0000
  H   H30       1.0  0.0212292985609466  0.9008004261052849  0.3168609643782291  1.0000
  H   H31       1.0  0.021228883153284504  0.09920930674376653  0.183139412425902  1.0000
  H   H32       1.0  0.9787720670700397  0.09921084879348294  0.6831361577885177  1.0000
  H   H33       1.0  0.2240682755078893  0.9623563964158707  0.8310544958560372  1.0000
  H   H34       1.0  0.7759338557491305  0.9623668075518171  0.33105132342888066  1.0000
  H   H35       1.0  0.775931054740454  0.03763656161927292  0.1689492957804219  1.0000
  H   H36       1.0  0.2240675098299931  0.037634297559222304  0.6689503245686694  1.0000
  C   C1        1.0  0.3468969421474172  0.47815730106420085  0.09768241559928012  1.0000
  C   C2        1.0  0.6531032472226812  0.47816696171752704  0.597680630231004  1.0000
  C   C3        1.0  0.6531054410739757  0.5218386706234315  0.9023151172386221  1.0000
  C   C4        1.0  0.34688794191606587  0.5218381887975596  0.4023162533886193  1.0000
  C   C5        1.0  0.2647912945684893  0.5746902745594087  0.1557796170639278  1.0000
  C   C6        1.0  0.7352092046972417  0.5746984092796057  0.6557760282898784  1.0000
  C   C7        1.0  0.7352110886612097  0.42530979365212584  0.8442198651484745  1.0000
  C   C8        1.0  0.26477893150912735  0.4253067207908075  0.3442181698277977  1.0000
  C   C9        1.0  0.12524332478079  0.5575125183264621  0.15503906477993473  1.0000
  C   C10       1.0  0.8747590905508178  0.5575205432412816  0.6550370710563839  1.0000
  C   C11       1.0  0.8747580407932177  0.44248551183729046  0.8449607854986283  1.0000
  C   C12       1.0  0.12523413388404242  0.44248666065101366  0.34496145862475913  1.0000
  C   C13       1.0  0.06783661439612841  0.44172753844354434  0.09570024560348142  1.0000
  C   C14       1.0  0.932163324872448  0.44173800082085546  0.5957018020638856  1.0000
  C   C15       1.0  0.9321637335244192  0.5582684485637018  0.9042993013650219  1.0000
  C   C16       1.0  0.06783193483272501  0.5582651423150937  0.4042994778743322  1.0000
  C   C17       1.0  0.924796136882627  0.41519846691135615  0.08928680200540381  1.0000
  C   C18       1.0  0.0752056887164159  0.41520341407510153  0.589288657933956  1.0000
  C   C19       1.0  0.07520522868471602  0.5847995785785475  0.9107150624018132  1.0000
  C   C20       1.0  0.9247895709830589  0.5848007710723382  0.410715459164642  1.0000
  C   C21       1.0  0.8732500566800782  0.3011036601409032  0.031601146554542915  1.0000
  C   C22       1.0  0.12675132933440383  0.3011109969082782  0.5316052211435931  1.0000
  C   C23       1.0  0.126753344183669  0.6988943802468203  0.9684000464745068  1.0000
  C   C24       1.0  0.8732459656646584  0.6988942047135969  0.46839837623235786  1.0000
  C   C25       1.0  0.9617625183888593  0.20424866522994028  0.9751633287165191  1.0000
  C   C26       1.0  0.03824029437930681  0.20425743800219465  0.4751667245588322  1.0000
  C   C27       1.0  0.03823782953709551  0.7957483382452114  0.02483569853128393  1.0000
  C   C28       1.0  0.9617600535762919  0.7957497863478552  0.5248344906203499  1.0000
  C   C29       1.0  0.9155722962655304  0.08297262477476862  0.9152614845388527  1.0000
  C   C30       1.0  0.08442800451835811  0.08298167893308063  0.4152627777389313  1.0000
  C   C31       1.0  0.0844280516677642  0.9170274485389531  0.08473866905171698  1.0000
  C   C32       1.0  0.9155713258108165  0.9170285845999616  0.5847355355266899  1.0000
  C   C33       1.0  0.009329487717607799  0.9958114913343582  0.8634006072503624  1.0000
  C   C34       1.0  0.9906716517610122  0.9958243290427906  0.36340053184908794  1.0000
  C   C35       1.0  0.9906688249020945  0.0041845109925092005  0.1366009538487489  1.0000
  C   C36       1.0  0.0093297138655259  0.004186956073418501  0.6365979330700924  1.0000
  C   C37       1.0  0.14857163937296042  0.029701607207727007  0.8710833387183784  1.0000
  C   C38       1.0  0.8514306066099239  0.029713545336598216  0.3710828587745779  1.0000
  C   C39       1.0  0.8514307438296883  0.970293378664309  0.12891874209753243  1.0000
  C   C40       1.0  0.14856770604193772  0.970290614277055  0.6289179014400049  1.0000
  C   C41       1.0  0.1041425443913084  0.22867441777214031  0.978865059930051  1.0000
  C   C42       1.0  0.895856349630819  0.22868155895776  0.47886709345189615  1.0000
  C   C43       1.0  0.895858821179516  0.7713225908149968  0.021134638692991793  1.0000
  C   C44       1.0  0.10413789242281983  0.7713215943923546  0.5211355292397286  1.0000
  C   C45       1.0  0.1574575903264375  0.3482120881432424  0.03949483212032592  1.0000
  C   C46       1.0  0.8425461187991773  0.34821789362082006  0.5394966250751736  1.0000
  C   C47       1.0  0.8425447928959217  0.6517849102297222  0.9605035237493098  1.0000
  C   C48       1.0  0.1574501585432344  0.6517842432679262  0.4605065173352045  1.0000
  N   N1        1.0  0.2950964597824139  0.3674347437709501  0.040768979309262904  1.0000
  N   N2        1.0  0.704903309199736  0.3674406764199461  0.540769844933287  1.0000
  N   N3        1.0  0.704904905799225  0.6325642977519836  0.9592296798723794  1.0000
  N   N4        1.0  0.2950929681506054  0.6325604133485997  0.4592297889404832  1.0000
  N   N5        1.0  0.1952340306471498  0.14243435434559615  0.9274569276484144  1.0000
  N   N6        1.0  0.8047686538173623  0.14244191663340194  0.427457273255385  1.0000
  N   N7        1.0  0.8047652996250533  0.857562664452431  0.07254411372901617  1.0000
  N   N8        1.0  0.19523169411118604  0.8575602253771423  0.5725465405273056  1.0000
  O   O1        1.0  0.555473292345731  0.29761429721362737  0.9957217254497907  1.0000
  O   O2        1.0  0.4445300580090504  0.2976113880842278  0.4957235622801193  1.0000
  O   O3        1.0  0.4445280732489535  0.7023867721363931  0.0042752229142309466  1.0000
  O   O4        1.0  0.5554723252079015  0.7023845938208384  0.5042753133102167  1.0000
  O   O5        1.0  0.3941777284615142  0.29893869820977415  0.8526893553886126  1.0000
  O   O6        1.0  0.6058225158455528  0.2989419126614124  0.35268895589813104  1.0000
  O   O7        1.0  0.6058236371137582  0.7010583001599217  0.1473090004819966  1.0000
  O   O8        1.0  0.39417884972779405  0.701053032337619  0.6473077539090113  1.0000
  O   O9        1.0  0.4806839302843073  0.05254840722328421  0.862835952578429  1.0000
  O   O10       1.0  0.5193215887857008  0.05254598364719241  0.3628383174613461  1.0000
  O   O11       1.0  0.5193215058866586  0.9474516609980627  0.1371635296310529  1.0000
  O   O12       1.0  0.4806797767743092  0.9474489920041406  0.6371624206031044  1.0000
  O   O13       1.0  0.6269790112684248  0.8638925125682493  0.7756021268287087  1.0000
  O   O14       1.0  0.37302583135894457  0.8638911872529605  0.27560440399762604  1.0000
  O   O15       1.0  0.3730294778479646  0.1361096039248579  0.2243983300650925  1.0000
  O   O16       1.0  0.626971463627669  0.13610786958305002  0.7243962693165713  1.0000
  O   O17       1.0  0.6030363585727018  0.8917365361318945  0.9464251088621937  1.0000
  O   O18       1.0  0.3969634742558767  0.8917363912905005  0.44642816318547324  1.0000
  O   O19       1.0  0.3969660246547662  0.10826353718835696  0.05357504472642921  1.0000
  O   O20       1.0  0.6030368736653388  0.10826268088147374  0.5535745242544509  1.0000
  O   O21       1.0  0.401188134869102  0.806116731630077  0.8413453749021471  1.0000
  O   O22       1.0  0.5988158511987081  0.8061138073610582  0.3413487785427947  1.0000
  O   O23       1.0  0.5988183189568802  0.19388228947433114  0.1586505987697535  1.0000
  O   O24       1.0  0.40118246142669994  0.1938811529543188  0.658649945395922  1.0000
  O   O25       1.0  0.35367644372441026  0.4999967771957544  0.7500014306167772  1.0000
  O   O26       1.0  0.6463249218435224  0.49999715133537165  0.2499957989110655  1.0000
  O   O27       1.0  0.1626429534115559  0.29026450753575267  0.7561554758179055  1.0000
  O   O28       1.0  0.8373599079833483  0.29026614461675854  0.256154177659937  1.0000
  O   O29       1.0  0.8373614650906803  0.7097314948107185  0.24384608527535082  1.0000
  O   O30       1.0  0.16264247522664024  0.7097319110938544  0.7438490294987403  1.0000
