data_image0
_chemical_formula_structural       Mg2H44Pt2C36N8Cl4O14
_chemical_formula_sum              "Mg2 H44 Pt2 C36 N8 Cl4 O14"
_cell_length_a       9.15175904664573
_cell_length_b       11.93485031072947
_cell_length_c       13.673
_cell_angle_alpha    68.93567104134196
_cell_angle_beta     80.28417949883485
_cell_angle_gamma    68.90591579831924

_space_group_name_H-M_alt    "P 1"
_space_group_IT_number       1

loop_
  _space_group_symop_operation_xyz
  'x, y, z'

loop_
  _atom_site_type_symbol
  _atom_site_label
  _atom_site_symmetry_multiplicity
  _atom_site_fract_x
  _atom_site_fract_y
  _atom_site_fract_z
  _atom_site_occupancy
  Mg  Mg1       1.0  0.7547234618553915  0.0170698526504296  0.05948611243344713  1.0000
  Mg  Mg2       1.0  0.24527752267606223  0.9829308649157725  0.9405142826057968  1.0000
  H   H1        1.0  0.5970607000689654  0.8899444639394362  0.008836913769108891  1.0000
  H   H2        1.0  0.40294513589091  0.11005245547298162  0.9911626621085858  1.0000
  H   H3        1.0  0.6307698804321973  0.9959319453234983  0.9090289784434448  1.0000
  H   H4        1.0  0.3692307226821542  0.0040697217811498  0.09097043041639101  1.0000
  H   H5        1.0  0.4909329022564466  0.4599260381924068  0.6822236582927914  1.0000
  H   H6        1.0  0.5090665566065911  0.5400784775275795  0.3177837625546899  1.0000
  H   H7        1.0  0.6232469429573372  0.2584729109485266  0.8240370052851134  1.0000
  H   H8        1.0  0.37675369582165535  0.7415259075407832  0.17596914417783438  1.0000
  H   H9        1.0  0.03986609647004971  0.3662065935354732  0.753690306505554  1.0000
  H   H10       1.0  0.9601423380802814  0.6337893763384983  0.24630634826370107  1.0000
  H   H11       1.0  0.4062811683026624  0.6199023765603044  0.5525382299761361  1.0000
  H   H12       1.0  0.5937183618896569  0.3800964419290054  0.4474636564994157  1.0000
  H   H13       1.0  0.34896913089522735  0.7842978668576137  0.37711730191078624  1.0000
  H   H14       1.0  0.6510296364628801  0.2157028507085883  0.622883343574351  1.0000
  H   H15       1.0  0.8106250236231318  0.8116189365750871  0.3607041412294904  1.0000
  H   H16       1.0  0.18937710515963593  0.1883789323757838  0.6392933614008456  1.0000
  H   H17       1.0  0.921371126162214  0.9904986863333607  0.2582831961678805  1.0000
  H   H18       1.0  0.0786201911770235  0.0095067789250791  0.7417124131665531  1.0000
  H   H19       1.0  0.9434869292883619  0.2878725203251093  0.0745422872363832  1.0000
  H   H20       1.0  0.05652628536110874  0.7121253486257615  0.925445186743829  1.0000
  H   H21       1.0  0.14061275484272778  0.24252636228015237  0.10963018365493576  1.0000
  H   H22       1.0  0.8594005311360249  0.7574658094400277  0.8903627264792107  1.0000
  H   H23       1.0  0.9830318717322157  0.3319538931594863  0.1782718173755171  1.0000
  H   H24       1.0  0.016981688669723365  0.6680458748682697  0.8217164844964985  1.0000
  H   H25       1.0  0.2245608960158734  0.05932241443710501  0.2807822430941158  1.0000
  H   H26       1.0  0.7754415785193557  0.9406773535906512  0.7192124305860829  1.0000
  H   H27       1.0  0.07578064188477636  0.9974436105301266  0.3579521886412421  1.0000
  H   H28       1.0  0.9242177440562358  0.0025580565745287  0.642042351085756  1.0000
  H   H29       1.0  0.0724050525407236  0.1511228418939226  0.35011191150519494  1.0000
  H   H30       1.0  0.9275944063223136  0.8488816738260709  0.6498801506060801  1.0000
  H   H31       1.0  0.5411850172366286  0.2658441779077165  0.12312222210964309  1.0000
  H   H32       1.0  0.45880529850985124  0.7341527415047011  0.8768864205731716  1.0000
  H   H33       1.0  0.3543415390942499  0.3225477653097286  0.8885547476372648  1.0000
  H   H34       1.0  0.6456576096809672  0.6774520027180344  0.1114468840272735  1.0000
  H   H35       1.0  0.28627026419011503  0.48980896263818613  0.8662578304328931  1.0000
  H   H36       1.0  0.7137285031679924  0.510191754928016  0.1337442777890202  1.0000
  H   H37       1.0  0.1694374822376474  0.3948541684625226  0.944023489308357  1.0000
  H   H38       1.0  0.8305597951166844  0.6051474986421256  0.05597702658869959  1.0000
  H   H39       1.0  0.18449045269105116  0.4766236717718613  0.09942353295866012  1.0000
  H   H40       1.0  0.815498062963826  0.5233694494867649  0.9005821164267048  1.0000
  H   H41       1.0  0.3049018247837266  0.5638397276095972  0.013997440475712592  1.0000
  H   H42       1.0  0.6950851652027411  0.4361571918028205  0.9860130406127112  1.0000
  H   H43       1.0  0.37766414112771685  0.4450230322765947  0.1348885598329019  1.0000
  H   H44       1.0  0.6223228845233918  0.5549710385204847  0.8651191540695606  1.0000
  Pt  Pt1       1.0  0.9533922081769147  0.61634160738641  0.5686049552178359  1.0000
  Pt  Pt2       1.0  0.046608049184968095  0.3836581606413461  0.4313958198553678  1.0000
  C   C1        1.0  0.6974300142036469  0.5168954963594034  0.6417853985458278  1.0000
  C   C2        1.0  0.3025731518365049  0.48310806982213716  0.35821458775993154  1.0000
  C   C3        1.0  0.6113728721860454  0.43742292655183235  0.7011963392668435  1.0000
  C   C4        1.0  0.3886299481016451  0.5625787405528158  0.29880940146261276  1.0000
  C   C5        1.0  0.6830060687547005  0.3268871560096471  0.7801363314401115  1.0000
  C   C6        1.0  0.3169956072816832  0.6731173597103394  0.21986498801435053  1.0000
  C   C7        1.0  0.8397579172652812  0.2988254463040079  0.7989687065370674  1.0000
  C   C8        1.0  0.1602475372774919  0.7011724226468559  0.20103354000316634  1.0000
  C   C9        1.0  0.9181556306193528  0.3842763101699376  0.7407415132566584  1.0000
  C   C10       1.0  0.0818468082512354  0.6157263064731566  0.25925446487271836  1.0000
  C   C11       1.0  0.9274183873532422  0.1729660243142703  0.8751615612249423  1.0000
  C   C12       1.0  0.07257418123122518  0.827028046482809  0.12484479519441287  1.0000
  C   C13       1.0  0.6422206298070209  0.6240585063400772  0.5478970926388769  1.0000
  C   C14       1.0  0.3577807718061692  0.3759384130723404  0.4521051782357616  1.0000
  C   C15       1.0  0.4945857666968294  0.6628367069514738  0.5083574801884935  1.0000
  C   C16       1.0  0.5054207607679828  0.3371640106147353  0.49164009463085984  1.0000
  C   C17       1.0  0.46185756313952453  0.7550824679396372  0.4107060836198001  1.0000
  C   C18       1.0  0.5381420027174286  0.24491350193433456  0.589298155248521  1.0000
  C   C19       1.0  0.576704632397785  0.8081740110916442  0.3544969535797051  1.0000
  C   C20       1.0  0.4232934077907585  0.19182575693611176  0.645504071939385  1.0000
  C   C21       1.0  0.7190566997701636  0.7708429070725203  0.4002833051330228  1.0000
  C   C22       1.0  0.2809421032525847  0.2291549618783435  0.5997182300080935  1.0000
  C   C23       1.0  0.5508717991578038  0.8992717800981468  0.24385899514365406  1.0000
  C   C24       1.0  0.4491320940519188  0.10073273562183971  0.7561428052333098  1.0000
  C   C25       1.0  0.9158168077429922  0.0824607672983007  0.19732329029076107  1.0000
  C   C26       1.0  0.08417779969161637  0.9175475465754772  0.8026666655085036  1.0000
  C   C27       1.0  0.018158167136540688  0.258856524480862  0.1398472076642605  1.0000
  C   C28       1.0  0.981854701760469  0.7411394453931095  0.8601430952661033  1.0000
  C   C29       1.0  0.0998193990568623  0.0840559918882064  0.3063920098319173  1.0000
  C   C30       1.0  0.9001786054670403  0.9159466247548879  0.6936008123472844  1.0000
  C   C31       1.0  0.4903773741185375  0.2702130042994781  0.053571298249401884  1.0000
  C   C32       1.0  0.5096132160511289  0.7297915114205153  0.9464312734344986  1.0000
  C   C33       1.0  0.2901622767220928  0.39673710320168  0.923620343729695  1.0000
  C   C34       1.0  0.7098335106284708  0.6032655134414142  0.07638223668446638  1.0000
  C   C35       1.0  0.3054645384620756  0.4701060398759651  0.06900574823398391  1.0000
  C   C36       1.0  0.6945235601110653  0.5298908795364526  0.931001682157941  1.0000
  N   N1        1.0  0.8490436113491813  0.49130923338345417  0.6640323304327325  1.0000
  N   N2        1.0  0.1509611160240283  0.5086876860289635  0.33596810203629696  1.0000
  N   N3        1.0  0.751631801776277  0.6811447577359716  0.49481894720283026  1.0000
  N   N4        1.0  0.24836956417227904  0.3188550102917844  0.5051780458054793  1.0000
  N   N5        1.0  0.003888715337772905  0.14068551529139484  0.21513954114018216  1.0000
  N   N6        1.0  0.996115213536591  0.8593161518132535  0.7848529097353064  1.0000
  N   N7        1.0  0.36771224794513563  0.374697366322934  0.016726310819329588  1.0000
  N   N8        1.0  0.6322828479004984  0.6253014521663758  0.9832775392847778  1.0000
  Cl  Cl1       1.0  0.17394033954703764  0.5340356148548651  0.6659101448760651  1.0000
  Cl  Cl2       1.0  0.826057283559763  0.4659679513266753  0.3340933930179729  1.0000
  Cl  Cl3       1.0  0.05674922489800583  0.7663060123757576  0.45191513898421215  1.0000
  Cl  Cl4       1.0  0.9432535953896841  0.23369565472889062  0.5480862135349086  1.0000
  O   O1        1.0  0.852072697404431  0.0963629596916391  0.9195397790231823  1.0000
  O   O2        1.0  0.14793421147748387  0.9036368083361239  0.08045805060718432  1.0000
  O   O3        1.0  0.07092724231194578  0.1527513003294487  0.8840523072911566  1.0000
  O   O4        1.0  0.9290792851528664  0.8472494172367533  0.11595916352761287  1.0000
  O   O5        1.0  0.6454093903191023  0.9614380621821398  0.2046915168869958  1.0000
  O   O6        1.0  0.35458234410187833  0.0385636049225155  0.795308893756399  1.0000
  O   O7        1.0  0.4369581658507046  0.9031734335742884  0.19993221861003002  1.0000
  O   O8        1.0  0.5630372757473907  0.09682728399191383  0.8000666084387618  1.0000
  O   O9        1.0  0.8320610165824647  0.1263968607503898  0.11956059884960275  1.0000
  O   O10       1.0  0.16793546227302866  0.8736095540464959  0.8804363236642628  1.0000
  O   O11       1.0  0.5467779299681225  0.18354863029908594  0.013635998579431409  1.0000
  O   O12       1.0  0.45322859749668243  0.8164520872671163  0.9863601135031389  1.0000
  O   O13       1.0  0.6735965445669764  0.9347085549167602  0.9794391328412431  1.0000
  O   O14       1.0  0.3264062757207142  0.065293112187895  0.020562219677877608  1.0000
