data_image0
_chemical_formula_structural       Zn4H68C100N20O20
_chemical_formula_sum              "Zn4 H68 C100 N20 O20"
_cell_length_a       10.787044186100376
_cell_length_b       14.590983883657218
_cell_length_c       21.90142985672205
_cell_angle_alpha    92.81951831549661
_cell_angle_beta     89.98923166256465
_cell_angle_gamma    111.70961514049213

_space_group_name_H-M_alt    "P 1"
_space_group_IT_number       1

loop_
  _space_group_symop_operation_xyz
  'x, y, z'

loop_
  _atom_site_type_symbol
  _atom_site_label
  _atom_site_symmetry_multiplicity
  _atom_site_fract_x
  _atom_site_fract_y
  _atom_site_fract_z
  _atom_site_occupancy
  Zn  Zn1       1.0  0.6516952129838317  0.5363924853370888  0.8012320940206549  1.0000
  Zn  Zn2       1.0  0.11520668100882153  0.463659017792061  0.6987427573403552  1.0000
  Zn  Zn3       1.0  0.34830441734469997  0.4636073939456083  0.19876758649288456  1.0000
  Zn  Zn4       1.0  0.8847933199845033  0.5363416029192579  0.30125785977677577  1.0000
  H   H1        1.0  0.7912333928547284  0.5809429537477229  0.9343273311554653  1.0000
  H   H2        1.0  0.21014133493461187  0.4188655814139823  0.5657979028243929  1.0000
  H   H3        1.0  0.2087667962687832  0.41905618964156593  0.0656732392542096  1.0000
  H   H4        1.0  0.789856254869818  0.5811357790739536  0.4342031943811905  1.0000
  H   H5        1.0  0.9635701885096144  0.6236917875927689  0.759535726896246  1.0000
  H   H6        1.0  0.3399362341659825  0.3763369174616856  0.7405906709223657  1.0000
  H   H7        1.0  0.03642758883177079  0.3763080942137124  0.2404648669669598  1.0000
  H   H8        1.0  0.6600650627992195  0.6236644406975245  0.2594095128537077  1.0000
  H   H9        1.0  0.1658321566726429  0.6716886348687866  0.8459238041176532  1.0000
  H   H10       1.0  0.4940047494545113  0.32822487712384424  0.6541603204208499  1.0000
  H   H11       1.0  0.8341669166406263  0.3283119843855787  0.154076356404488  1.0000
  H   H12       1.0  0.5059946927438264  0.6717764794808829  0.3458394068001525  1.0000
  H   H13       1.0  0.265029843127657  0.695313436637541  0.9314510113776322  1.0000
  H   H14       1.0  0.5695065617409298  0.30456133960371556  0.5685443382146289  1.0000
  H   H15       1.0  0.7349694121269651  0.3046894000080655  0.0685496758206554  1.0000
  H   H16       1.0  0.4304917732089566  0.6954378035905153  0.4314562322748898  1.0000
  H   H17       1.0  0.36500476652143027  0.7086654719713009  0.035823592331553286  1.0000
  H   H18       1.0  0.6560922895807906  0.29123147977606584  0.4641442932463065  1.0000
  H   H19       1.0  0.6349948649935797  0.2913344100302382  0.9641770014518088  1.0000
  H   H20       1.0  0.3439075312508921  0.7087669276222927  0.5358571670994294  1.0000
  H   H21       1.0  0.21522846616490204  0.6576996376241269  0.12519133006647112  1.0000
  H   H22       1.0  0.5573352098824458  0.3422621037049752  0.3748166141689637  1.0000
  H   H23       1.0  0.7847709834087482  0.34229802698617123  0.8748087370407518  1.0000
  H   H24       1.0  0.44266757237132054  0.6577385172989383  0.6251840028284121  1.0000
  H   H25       1.0  0.08402338644287255  0.6212331314835637  0.1954894671271816  1.0000
  H   H26       1.0  0.4624592088955736  0.37860877028532497  0.3045155873432819  1.0000
  H   H27       1.0  0.9159755067087546  0.3787652744578409  0.8045115366235579  1.0000
  H   H28       1.0  0.5375454257520929  0.6213918468353796  0.695483659669506  1.0000
  H   H29       1.0  0.7574379205412003  0.5318811348076907  0.06805631277204331  1.0000
  H   H30       1.0  0.22588490302877068  0.46845841899379087  0.4320679461274395  1.0000
  H   H31       1.0  0.24256245671251267  0.46811653125956104  0.9319442109301761  1.0000
  H   H32       1.0  0.7741171378954096  0.5315407191528649  0.567930797662747  1.0000
  H   H33       1.0  0.6636366584869507  0.48177747733782894  0.1850455830220952  1.0000
  H   H34       1.0  0.18176468358561243  0.5181626298208357  0.3150423116728334  1.0000
  H   H35       1.0  0.3363635312298074  0.5182216674108845  0.8149554440224948  1.0000
  H   H36       1.0  0.8182349529317464  0.481833554748583  0.6849567954571043  1.0000
  H   H37       1.0  0.6714305759961334  0.190754968431051  0.7987542180933147  1.0000
  H   H38       1.0  0.48042633423932596  0.8091846891521829  0.7011398845701962  1.0000
  H   H39       1.0  0.328569424403945  0.8092456509208433  0.2012459423889013  1.0000
  H   H40       1.0  0.519570145350457  0.1908144511281407  0.2988597727293367  1.0000
  H   H41       1.0  0.5782659972398179  0.025456301857786908  0.8426024091884372  1.0000
  H   H42       1.0  0.5526811682093612  0.9745900981504223  0.6574161212381284  1.0000
  H   H43       1.0  0.4217340031602603  0.9745443174941073  0.1573977512937788  1.0000
  H   H44       1.0  0.44731809264085615  0.0254090424224884  0.3425835359416425  1.0000
  H   H45       1.0  0.26238085234645336  0.10206026128484784  0.9232212424054609  1.0000
  H   H46       1.0  0.16015326420243545  0.8979671184550854  0.5768647043270008  1.0000
  H   H47       1.0  0.7376191474603858  0.8979403567076288  0.07677846144184741  1.0000
  H   H48       1.0  0.8398445119524639  0.1020327606325466  0.4231349762663826  1.0000
  H   H49       1.0  0.3579262756717299  0.2686101010435777  0.8785385739239757  1.0000
  H   H50       1.0  0.08894760361104671  0.7313939354681268  0.6215286120094206  1.0000
  H   H51       1.0  0.6420727970482931  0.731390516851363  0.12146112996325802  1.0000
  H   H52       1.0  0.911047949485159  0.268605206074092  0.3784715019649383  1.0000
  H   H53       1.0  0.5075637480264277  0.9189525050317755  0.9928923801810824  1.0000
  H   H54       1.0  0.588318789001697  0.08112098158254351  0.5070450766173522  1.0000
  H   H55       1.0  0.4924379190103282  0.0810495931966386  0.0071082835636744005  1.0000
  H   H56       1.0  0.4116808395471098  0.91887889362188  0.4929532339914502  1.0000
  H   H57       1.0  0.5925107228637786  0.780790376190467  0.9757145889424451  1.0000
  H   H58       1.0  0.8114501579509439  0.21936368757182126  0.5242627195128479  1.0000
  H   H59       1.0  0.40749150237471815  0.2192109847851214  0.024286508063532598  1.0000
  H   H60       1.0  0.18855039827791847  0.7806361890895559  0.4757360476909441  1.0000
  H   H61       1.0  0.4191787183777721  0.7213709593304074  0.7946342930129547  1.0000
  H   H62       1.0  0.6975065338264914  0.2784782632154901  0.7054024088819446  1.0000
  H   H63       1.0  0.5808199866436681  0.27862892393302724  0.2053667574452405  1.0000
  H   H64       1.0  0.3024942105325651  0.7215201361238572  0.2945963116143915  1.0000
  H   H65       1.0  0.33034737709881773  0.8570531238689298  0.8120365922543159  1.0000
  H   H66       1.0  0.4729290987237816  0.14273412271008826  0.6879464822851844  1.0000
  H   H67       1.0  0.6696500307642522  0.14294601922777161  0.18796397827512124  1.0000
  H   H68       1.0  0.5270720163000675  0.8572650180578805  0.3120531748147428  1.0000
  C   C1        1.0  0.8637061555271048  0.5966495482638479  0.8983474380771952  1.0000
  C   C2        1.0  0.26698447572704254  0.40322503116560443  0.6017720588612221  1.0000
  C   C3        1.0  0.1362929183794038  0.403351072349949  0.1016531790798609  1.0000
  C   C4        1.0  0.7330153359496095  0.5967770641489027  0.3982276916935419  1.0000
  C   C5        1.0  0.9572205043626668  0.6218859469582728  0.8088995396076939  1.0000
  C   C6        1.0  0.3353364748450078  0.3781349486578237  0.6912239231010915  1.0000
  C   C7        1.0  0.042777831180458775  0.37811319759538264  0.1911014875167325  1.0000
  C   C8        1.0  0.6646635255550706  0.6218656706940706  0.3087762373811245  1.0000
  C   C9        1.0  0.05892008322729238  0.6460399871374279  0.8512034571525858  1.0000
  C   C10       1.0  0.41279504965371683  0.3539017248904203  0.6488825228244082  1.0000
  C   C11       1.0  0.9410773240425386  0.3539591545998493  0.1487966567419363  1.0000
  C   C12       1.0  0.5872043925446135  0.6460996317143073  0.3511172043965871  1.0000
  C   C13       1.0  0.06288269752311489  0.6397438085252033  0.9658238876305916  1.0000
  C   C14       1.0  0.4229561265012265  0.36013355381190604  0.5342278982495756  1.0000
  C   C15       1.0  0.9371163763833934  0.36025681208858634  0.0341767295264574  1.0000
  C   C16       1.0  0.5770438738988518  0.6398670655399956  0.4657722622326403  1.0000
  C   C17       1.0  0.20171022184218412  0.674564131592014  0.9709831705210378  1.0000
  C   C18       1.0  0.5269002715629157  0.32527590452438926  0.5290296920880095  1.0000
  C   C19       1.0  0.7982877442226343  0.3254342742518546  0.0290178332696271  1.0000
  C   C20       1.0  0.47310084464741226  0.674723238962429  0.4709708782817472  1.0000
  C   C21       1.0  0.25708132691293173  0.6818132538061974  0.029347270656551003  1.0000
  C   C22       1.0  0.5750202080167882  0.3180571987848069  0.4706390455046047  1.0000
  C   C23       1.0  0.7429179339372851  0.3181858867667131  0.9706523865232198  1.0000
  C   C24       1.0  0.42498127767184724  0.6819426834117905  0.5293615481989207  1.0000
  C   C25       1.0  0.17448224746799215  0.6542735294285862  0.0793325778234433  1.0000
  C   C26       1.0  0.519970936363606  0.3456342215261047  0.4206855015901851  1.0000
  C   C27       1.0  0.8255166450904028  0.34572487515338685  0.9206679692923813  1.0000
  C   C28       1.0  0.48003277297697644  0.6543663995753377  0.5793151153672724  1.0000
  C   C29       1.0  0.036911630430850634  0.6199528471730815  0.0680423893907403  1.0000
  C   C30       1.0  0.41683701750641694  0.38003824370255057  0.4320155153286294  1.0000
  C   C31       1.0  0.9630876316058519  0.38004629611867813  0.9319581810588532  1.0000
  C   C32       1.0  0.5831657635608637  0.6199623745825136  0.567984188398917  1.0000
  C   C33       1.0  0.9822603768177701  0.591621680951967  0.17729323275259654  1.0000
  C   C34       1.0  0.39042283281489903  0.408294823280592  0.3227575863177777  1.0000
  C   C35       1.0  0.017738885812171645  0.4083774636992175  0.8227077943319118  1.0000
  C   C36       1.0  0.6095810628761457  0.5917043164205467  0.6772416140274801  1.0000
  C   C37       1.0  0.8088681008925818  0.5425734318475365  0.11174258277684151  1.0000
  C   C38       1.0  0.26642125820925605  0.4576154386634174  0.3883502740611746  1.0000
  C   C39       1.0  0.19113134868106854  0.45742423276276883  0.8882574843303814  1.0000
  C   C40       1.0  0.7335817109882188  0.5423837022996099  0.6116493829589089  1.0000
  C   C41       1.0  0.7647522688989241  0.5194813708628276  0.1697292109829149  1.0000
  C   C42       1.0  0.24520078966911296  0.4805174168331448  0.3303542756196407  1.0000
  C   C43       1.0  0.23524662425270298  0.4805170350785702  0.8302717927678246  1.0000
  C   C44       1.0  0.7547999535034577  0.5194809797873534  0.6696435316068658  1.0000
  C   C45       1.0  0.5876010293171845  0.3419317099330712  0.813564535819168  1.0000
  C   C46       1.0  0.2453271607703302  0.6580490822210623  0.6863725996596913  1.0000
  C   C47       1.0  0.41240045637145073  0.6580681722635262  0.1864360578843574  1.0000
  C   C48       1.0  0.754670615384569  0.34195079686656993  0.313627080933685  1.0000
  C   C49       1.0  0.5210110724395065  0.24026835461698684  0.8357551302467527  1.0000
  C   C50       1.0  0.28044144289415857  0.7597218169100091  0.6642285077398142  1.0000
  C   C51       1.0  0.47898892855381103  0.7597322660943391  0.164245486870378  1.0000
  C   C52       1.0  0.7195550355091386  0.24027732065146523  0.3357702362898891  1.0000
  C   C53       1.0  0.5810849647976327  0.17065873305635648  0.8256456095662158  1.0000
  C   C54       1.0  0.4102174789019276  0.8293535859698765  0.674316224503734  1.0000
  C   C55       1.0  0.41891410851563643  0.8293418861980085  0.1743545509559254  1.0000
  C   C56       1.0  0.5897793689796773  0.17064629030138434  0.3256825428597381  1.0000
  C   C57       1.0  0.5294165157137841  0.0782261898256706  0.8502089042527102  1.0000
  C   C58       1.0  0.4509880283915423  0.9218369207936876  0.6498326614967311  1.0000
  C   C59       1.0  0.4705834840930549  0.9217744281668059  0.14979079959459798  1.0000
  C   C60       1.0  0.5490090082134956  0.07816147951496083  0.3501665157941929  1.0000
  C   C61       1.0  0.41500143201280093  0.054756598846829305  0.8858366825689927  1.0000
  C   C62       1.0  0.3600300545745655  0.9452827597822093  0.6142369448550511  1.0000
  C   C63       1.0  0.5849985677940382  0.9452440191456477  0.1141630212783156  1.0000
  C   C64       1.0  0.6399677209870944  0.05471711794599799  0.3857622791034174  1.0000
  C   C65       1.0  0.35154143479268646  0.12244103975548633  0.8954403274255186  1.0000
  C   C66       1.0  0.22883093989671746  0.8775823107663074  0.6046546078753039  1.0000
  C   C67       1.0  0.6484585650141527  0.8775595782369905  0.1045593764217898  1.0000
  C   C68       1.0  0.7711668356649497  0.12241756696190009  0.3953446160831575  1.0000
  C   C69       1.0  0.4045782590717125  0.21450844342539446  0.8704896518706349  1.0000
  C   C70       1.0  0.18976028966863376  0.7855118845045653  0.6295844500128638  1.0000
  C   C71       1.0  0.5954217413283731  0.785492175926507  0.12951050861158822  1.0000
  C   C72       1.0  0.8102374858930333  0.2144879932236492  0.37041477394560474  1.0000
  C   C73       1.0  0.41483483477198774  0.8948830322738393  0.9034035790696892  1.0000
  C   C74       1.0  0.5196220286267206  0.10510041593880713  0.5965627187344111  1.0000
  C   C75       1.0  0.5851660933081462  0.1051175885350162  0.09659703800752338  1.0000
  C   C76       1.0  0.48037760051532563  0.8948994606250412  0.4034360485092989  1.0000
  C   C77       1.0  0.4888080810370923  0.8753028957057792  0.9497266284064806  1.0000
  C   C78       1.0  0.6131819514801934  0.12475424806593344  0.5502113982660504  1.0000
  C   C79       1.0  0.5111937735366183  0.12469772384118019  0.05027353199589869  1.0000
  C   C80       1.0  0.3868186047486689  0.8752456285954437  0.44978736893774146  1.0000
  C   C81       1.0  0.5363579055555192  0.7990826558185661  0.9400146219476895  1.0000
  C   C82       1.0  0.7369703299443416  0.2010361664116118  0.5599416062030613  1.0000
  C   C83       1.0  0.4636420954377983  0.20091796489275995  0.0599859951694484  1.0000
  C   C84       1.0  0.26303041500795393  0.7989622342871598  0.4400575709281824  1.0000
  C   C85       1.0  0.5120609698356945  0.7438083348596223  0.8841888399103013  1.0000
  C   C86       1.0  0.767953590304174  0.2562411217080225  0.6158000429987993  1.0000
  C   C87       1.0  0.48793940122917695  0.2561930259209078  0.1158122571755129  1.0000
  C   C88       1.0  0.23204808173493063  0.7437572790882784  0.38419913409252626  1.0000
  C   C89       1.0  0.4383886468567796  0.7651967096659504  0.8379028456926463  1.0000
  C   C90       1.0  0.6729248488605606  0.23474788527033041  0.6621069850618184  1.0000
  C   C91       1.0  0.5616107965280364  0.23480464965762593  0.1620977947981714  1.0000
  C   C92       1.0  0.3270768231785512  0.7652505155259636  0.337892192029507  1.0000
  C   C93       1.0  0.38869245909053535  0.8403283964260171  0.8474915066834187  1.0000
  C   C94       1.0  0.5480494487831606  0.1595918344435958  0.6524955164014585  1.0000
  C   C95       1.0  0.6113075430892678  0.15967222700415112  0.1525100237035417  1.0000
  C   C96       1.0  0.45195129616913493  0.8404065662551689  0.3475036607297853  1.0000
  C   C97       1.0  0.5653064700549423  0.6623038409043289  0.8744227667079727  1.0000
  C   C98       1.0  0.9027996861626308  0.33769600594997956  0.6255686079056986  1.0000
  C   C99       1.0  0.4346964917672197  0.3376989920531275  0.12557655042589033  1.0000
  C   C100      1.0  0.09720198706295956  0.6623023975651634  0.3744314824554564  1.0000
  N   N1        1.0  0.8366291964207235  0.591378015048882  0.8389693859292892  1.0000
  N   N2        1.0  0.2452401029168599  0.40860446540232  0.6611626352753959  1.0000
  N   N3        1.0  0.16336950800747735  0.40862186685512825  0.1610312078939984  1.0000
  N   N4        1.0  0.7547587828594545  0.5913976325335001  0.3388380285891159  1.0000
  N   N5        1.0  0.9986950576866322  0.6292831360221668  0.9079489041087427  1.0000
  N   N6        1.0  0.36924475169666954  0.3705705501183943  0.5921406638279407  1.0000
  N   N7        1.0  0.0013036467415617982  0.37071674588184333  0.09205168971454471  1.0000
  N   N8        1.0  0.6307537634148518  0.629430806388804  0.40785906343298  1.0000
  N   N9        1.0  0.9810070797866857  0.612644078393089  0.012949588983922  1.0000
  N   N10       1.0  0.36825284706704764  0.3873247076312651  0.4871322779329361  1.0000
  N   N11       1.0  0.018991436511321142  0.38735728083295834  0.9870510515468212  1.0000
  N   N12       1.0  0.6317480798266076  0.6126759104587409  0.512867425874454  1.0000
  N   N13       1.0  0.9471365460142496  0.588004527572764  0.1169300159157558  1.0000
  N   N14       1.0  0.3591583576563836  0.41210963841751896  0.3831415455624807  1.0000
  N   N15       1.0  0.05286271602245311  0.41199461571899587  0.8830705545338446  1.0000
  N   N16       1.0  0.640844610947852  0.5878895011860906  0.6168576548226952  1.0000
  N   N17       1.0  0.87373766945192  0.5507974545557488  0.20982984679401542  1.0000
  N   N18       1.0  0.3226785970173155  0.4490524573907423  0.2902151720744257  1.0000
  N   N19       1.0  0.12626251907835248  0.4492016874741156  0.790170266980745  1.0000
  N   N20       1.0  0.6773249286021823  0.5509459422411852  0.7097835483021413  1.0000
  O   O1        1.0  0.7013238587382418  0.3660995344787352  0.7899562716229197  1.0000
  O   O2        1.0  0.33478271567591383  0.6338894583662906  0.7100127918668236  1.0000
  O   O3        1.0  0.29867614225507577  0.6339010862325907  0.2100443454942109  1.0000
  O   O4        1.0  0.665214503463723  0.3661111606930163  0.2899873687351544  1.0000
  O   O5        1.0  0.5263152830502663  0.40285692654933314  0.8220037935965792  1.0000
  O   O6        1.0  0.12306801643691767  0.5970873632940439  0.6778722130221055  1.0000
  O   O7        1.0  0.47368434787150454  0.5971429540927814  0.1779963435518752  1.0000
  O   O8        1.0  0.876929390239674  0.4029117770838084  0.3221274442375019  1.0000
  O   O9        1.0  0.36137970636109895  0.967634263981772  0.9151293553852896  1.0000
  O   O10       1.0  0.3934417081480248  0.032318519450861095  0.5848616560347324  1.0000
  O   O11       1.0  0.6386215911973494  0.03236709553686269  0.0848712850256987  1.0000
  O   O12       1.0  0.6065569939072051  0.9676813570154581  0.4151371112489031  1.0000
  O   O13       1.0  0.5575413784310687  0.627682035716113  0.8179258484826234  1.0000
  O   O14       1.0  0.9297818969893897  0.37218546672483654  0.6820846506541329  1.0000
  O   O15       1.0  0.4424599173476552  0.372319319724248  0.1820734220236204  1.0000
  O   O16       1.0  0.07021829035440419  0.6278136725861785  0.3179145498507978  1.0000
  O   O17       1.0  0.6119577703850895  0.633494018513055  0.9184458681167413  1.0000
  O   O18       1.0  0.9782841776769903  0.36657702934519437  0.5815411786976341  1.0000
  O   O19       1.0  0.3880474156822445  0.36650955470866364  0.08155392890596151  1.0000
  O   O20       1.0  0.021717863840429275  0.633422110160879  0.41845802172746  1.0000
