data_image0
_chemical_formula_structural       Gd4H172C196N8Cl12O40
_chemical_formula_sum              "Gd4 H172 C196 N8 Cl12 O40"
_cell_length_a       12.425865999270139
_cell_length_b       18.294907563673366
_cell_length_c       24.900310900303424
_cell_angle_alpha    89.99922485009063
_cell_angle_beta     90.00109162467663
_cell_angle_gamma    109.84083622079528

_space_group_name_H-M_alt    "P 1"
_space_group_IT_number       1

loop_
  _space_group_symop_operation_xyz
  'x, y, z'

loop_
  _atom_site_type_symbol
  _atom_site_label
  _atom_site_symmetry_multiplicity
  _atom_site_fract_x
  _atom_site_fract_y
  _atom_site_fract_z
  _atom_site_occupancy
  Gd  Gd1       1.0  0.22545764426870823  0.771528814951296  0.786087020946866  1.0000
  Gd  Gd2       1.0  0.7745515399686768  0.22846013683091831  0.28608813436526503  1.0000
  Gd  Gd3       1.0  0.5459070121678664  0.7714286727229406  0.7138745884042523  1.0000
  Gd  Gd4       1.0  0.4541078761182505  0.22857559126455843  0.21387425770208074  1.0000
  H   H1        1.0  0.06916731199546428  0.8926465114493354  0.76130646655583  1.0000
  H   H2        1.0  0.020982750343769403  0.0053177336372769  0.7994547501255059  1.0000
  H   H3        1.0  0.1210653244410125  0.0695041096006577  0.8832598849856625  1.0000
  H   H4        1.0  0.268872517016881  0.020127398064204296  0.9243342164608281  1.0000
  H   H5        1.0  0.30649185714428023  0.9084413821869148  0.8806389590295755  1.0000
  H   H6        1.0  0.07478405182155971  0.5463690610165131  0.8986571020629912  1.0000
  H   H7        1.0  0.07057159424538631  0.8027631764034524  0.9322276775013735  1.0000
  H   H8        1.0  0.9178212378231978  0.7895934249644726  0.0888129878697796  1.0000
  H   H9        1.0  0.9018389533642336  0.651703957835622  0.09652755716253841  1.0000
  H   H10       1.0  0.984812753196245  0.4253345147623264  0.9043009191636104  1.0000
  H   H11       1.0  0.11555553484339497  0.4348928161886931  0.9383179975696339  1.0000
  H   H12       1.0  0.9960647284577463  0.2945767820034462  0.9238845107006741  1.0000
  H   H13       1.0  0.01209088779169316  0.3163257173845934  0.9936603755408486  1.0000
  H   H14       1.0  0.8814330511262584  0.3083364178841776  0.9603609514617872  1.0000
  H   H15       1.0  0.6679884731222927  0.3587556176609469  0.09047576740744742  1.0000
  H   H16       1.0  0.9114254565266648  0.4342966667935144  0.24522642524586766  1.0000
  H   H17       1.0  0.19213269971185554  0.6337914752591376  0.19270700414062966  1.0000
  H   H18       1.0  0.10485921039426667  0.6243830623735961  0.10248286257658631  1.0000
  H   H19       1.0  0.7259715567343792  0.33722678319529825  0.0034410924485755007  1.0000
  H   H20       1.0  0.6032808235646884  0.3666585567342295  0.9971733362404084  1.0000
  H   H21       1.0  0.6601399324218847  0.33168048361660146  0.9068034230665919  1.0000
  H   H22       1.0  0.6827204198924833  0.432893471239595  0.909228298314922  1.0000
  H   H23       1.0  0.8008465393592774  0.39951779432193046  0.9154727234228233  1.0000
  H   H24       1.0  0.40144708397200907  0.8317770719152265  0.907361546635052  1.0000
  H   H25       1.0  0.7134046735719864  0.9830624318762492  0.7951452061882451  1.0000
  H   H26       1.0  0.929287623546003  0.15683178984051688  0.9021120571614534  1.0000
  H   H27       1.0  0.7978360761422324  0.10114389453923422  0.9777842576500365  1.0000
  H   H28       1.0  0.27318813382478174  0.8367963973908135  0.9730729423430236  1.0000
  H   H29       1.0  0.3527376882223052  0.7752393670049217  0.9880951260318938  1.0000
  H   H30       1.0  0.19680683950650746  0.7555402404079885  0.05515352018291251  1.0000
  H   H31       1.0  0.3322324915401397  0.7977099312456701  0.08757925288862373  1.0000
  H   H32       1.0  0.24732658696654397  0.8557882157799952  0.07174944056767882  1.0000
  H   H33       1.0  0.9650208391993687  0.6439577373881349  0.7411286832138374  1.0000
  H   H34       1.0  0.8472673124625842  0.768379640284344  0.6327043602117542  1.0000
  H   H35       1.0  0.9255597419090337  0.8183408772247561  0.6886853115203877  1.0000
  H   H36       1.0  0.034436914653326746  0.8682488384139618  0.6049569691231441  1.0000
  H   H37       1.0  0.10985446646407836  0.8218596653819574  0.645632552708051  1.0000
  H   H38       1.0  0.03351994232239974  0.7737224184804179  0.5877456013503419  1.0000
  H   H39       1.0  0.8417099052605295  0.5834246291538676  0.6844588238320103  1.0000
  H   H40       1.0  0.7508066037332315  0.6328651107643425  0.6604070402174784  1.0000
  H   H41       1.0  0.804258375516099  0.5635694239889801  0.5851246432406684  1.0000
  H   H42       1.0  0.8666140560890556  0.6643274915697432  0.574067950627125  1.0000
  H   H43       1.0  0.9528055701347642  0.6105789609588826  0.5981402149090373  1.0000
  H   H44       1.0  0.9308258431502525  0.10732353393287752  0.261314287425165  1.0000
  H   H45       1.0  0.9789993579816354  0.9946530601594789  0.2994746895705306  1.0000
  H   H46       1.0  0.8789213538880459  0.9304855310613646  0.38328593569204383  1.0000
  H   H47       1.0  0.7311231473826467  0.9798722557438637  0.42434792806123073  1.0000
  H   H48       1.0  0.6935003682602885  0.09154828668405911  0.3806410639688025  1.0000
  H   H49       1.0  0.9252224863725689  0.4536285466582656  0.3986545995900246  1.0000
  H   H50       1.0  0.929440646983622  0.19723522821986714  0.4322365993688494  1.0000
  H   H51       1.0  0.08218247399921813  0.21040929320766827  0.5888265312328116  1.0000
  H   H52       1.0  0.09815580145650668  0.3482963527150034  0.5965366689163859  1.0000
  H   H53       1.0  0.015182479481097631  0.5746641946059583  0.4043034125157804  1.0000
  H   H54       1.0  0.8844400058820057  0.5651055235031209  0.438319621202183  1.0000
  H   H55       1.0  0.003922964032277451  0.705418228435825  0.4238815809872493  1.0000
  H   H56       1.0  0.9879084965765942  0.6836760884512927  0.49365979700329643  1.0000
  H   H57       1.0  0.1185649534096811  0.6916651688091093  0.46035804462061963  1.0000
  H   H58       1.0  0.3320177547975121  0.6412342977997127  0.590474152204486  1.0000
  H   H59       1.0  0.08858410992460354  0.5657026079641695  0.7452252524162619  1.0000
  H   H60       1.0  0.8078695820955277  0.36621011409928184  0.6927050211348913  1.0000
  H   H61       1.0  0.8951354485826075  0.3756166024179636  0.6024800101204663  1.0000
  H   H62       1.0  0.27402147188040965  0.6627739579480051  0.5034455385367879  1.0000
  H   H63       1.0  0.3967088189649887  0.6333379815537513  0.4971800818004795  1.0000
  H   H64       1.0  0.33984125386547964  0.6683205240333124  0.406806870126971  1.0000
  H   H65       1.0  0.31727349787130527  0.5671086713453023  0.4092357495911046  1.0000
  H   H66       1.0  0.1991403638022149  0.6004778886579275  0.41547751396210236  1.0000
  H   H67       1.0  0.5985553344240274  0.1682245092285655  0.40736800979011184  1.0000
  H   H68       1.0  0.2866217493091058  0.0169345558681826  0.295140968013449  1.0000
  H   H69       1.0  0.07072121797708052  0.8431669423906172  0.40210277115655674  1.0000
  H   H70       1.0  0.20216645543128212  0.898855759142684  0.4777812913246323  1.0000
  H   H71       1.0  0.7268030439360872  0.16320505163538002  0.4730742502698036  1.0000
  H   H72       1.0  0.647255076141356  0.22476249978736723  0.48809466336499  1.0000
  H   H73       1.0  0.8031884616683344  0.24446110086530845  0.5551551126658297  1.0000
  H   H74       1.0  0.6677630656248326  0.2022910576478623  0.5875799758672857  1.0000
  H   H75       1.0  0.7526681619063852  0.1442123640716346  0.5717511473285768  1.0000
  H   H76       1.0  0.03497534150401546  0.3560247304362605  0.24114277532043363  1.0000
  H   H77       1.0  0.1527300114056658  0.23162143921051379  0.13270836012961243  1.0000
  H   H78       1.0  0.07443595148268398  0.18164622841666755  0.18868504713498174  1.0000
  H   H79       1.0  0.9655522109773929  0.13176532778463473  0.10495363286327831  1.0000
  H   H80       1.0  0.8901445515817913  0.17815347694341455  0.14563366003824293  1.0000
  H   H81       1.0  0.9664873961099617  0.22629890677416853  0.08775016934324503  1.0000
  H   H82       1.0  0.1582816025156504  0.41656891491633985  0.18447228271340077  1.0000
  H   H83       1.0  0.24919462166917583  0.36713682959393173  0.16041904447714475  1.0000
  H   H84       1.0  0.195728382709909  0.43643507883125926  0.0851398674544228  1.0000
  H   H85       1.0  0.133387697120952  0.33567887369361676  0.0740771575959229  1.0000
  H   H86       1.0  0.047183113854707345  0.3894155213393092  0.09815168171297024  1.0000
  H   H87       1.0  0.8227808945803191  0.8927087692446136  0.7387356351070979  1.0000
  H   H88       1.0  0.9837498596573655  0.0053303666645519  0.7005601642760482  1.0000
  H   H89       1.0  0.9479346217891661  0.0693833956814487  0.6166382333388258  1.0000
  H   H90       1.0  0.7507902953024229  0.02005307428575521  0.5755709849939947  1.0000
  H   H91       1.0  0.6015089487132742  0.9084260498264245  0.6192914171788646  1.0000
  H   H92       1.0  0.4716671847157201  0.5466068751363409  0.6011743502545955  1.0000
  H   H93       1.0  0.7324695247580878  0.8027955917838057  0.5677140929191112  1.0000
  H   H94       1.0  0.8720975626156077  0.7896461287543629  0.4111308339695869  1.0000
  H   H95       1.0  0.7500998166715933  0.6518306836982362  0.4033366583581427  1.0000
  H   H96       1.0  0.440383189046969  0.42583592965251427  0.5956463567082368  1.0000
  H   H97       1.0  0.319226200942083  0.43536996876041917  0.5615843107328189  1.0000
  H   H98       1.0  0.2983901926161537  0.29502792726925264  0.5762417543216785  1.0000
  H   H99       1.0  0.3040475754442369  0.3166058787703747  0.5064393326731462  1.0000
  H   H100      1.0  0.4267308134482448  0.3086907209409091  0.5397519896298635  1.0000
  H   H101      1.0  0.6911987036485386  0.3588283267857691  0.4094791233552684  1.0000
  H   H102      1.0  0.5233782476952841  0.43429106103381093  0.2546128150864035  1.0000
  H   H103      1.0  0.4420362091518513  0.6338011998998071  0.3070690142643074  1.0000
  H   H104      1.0  0.519894998505066  0.6244344523067653  0.3972924011578557  1.0000
  H   H105      1.0  0.6116725860818094  0.3374665851329439  0.49653117787331524  1.0000
  H   H106      1.0  0.763744818725492  0.3669727015095958  0.5030103887502976  1.0000
  H   H107      1.0  0.6712137842174642  0.331837704407242  0.5931832944217349  1.0000
  H   H108      1.0  0.7499234881724066  0.43301933318932134  0.5909430333006399  1.0000
  H   H109      1.0  0.5984834615500889  0.39975800224993924  0.5844658521054882  1.0000
  H   H110      1.0  0.43059025638765996  0.8318179274378963  0.592562402801157  1.0000
  H   H111      1.0  0.2690746758977128  0.9826738468551711  0.7047948244278859  1.0000
  H   H112      1.0  0.2275379859206197  0.15685354976319837  0.5980089005381048  1.0000
  H   H113      1.0  0.30357454044629156  0.1013484232919097  0.5223257442632133  1.0000
  H   H114      1.0  0.5643155982150462  0.8371902939640636  0.5270072043963483  1.0000
  H   H115      1.0  0.4232588207139827  0.7756256047564706  0.5119259030600676  1.0000
  H   H116      1.0  0.559549147746381  0.7558517607566343  0.44496041770148764  1.0000
  H   H117      1.0  0.46640814004015857  0.7980837120670473  0.4124830616622149  1.0000
  H   H118      1.0  0.609365677380346  0.8560964809147792  0.42834229163244697  1.0000
  H   H119      1.0  0.6785496401417815  0.6439389053351333  0.7590829193405783  1.0000
  H   H120      1.0  0.9207756316206784  0.7683939527888342  0.8673945506726003  1.0000
  H   H121      1.0  0.8922222084860537  0.8183124107024968  0.8114261907858166  1.0000
  H   H122      1.0  0.8336381976756048  0.8683066704852751  0.8952254204178942  1.0000
  H   H123      1.0  0.7116969828873679  0.8219828130012702  0.8546295934102874  1.0000
  H   H124      1.0  0.7400267518387693  0.7738193300178651  0.9124858717438972  1.0000
  H   H125      1.0  0.7410049982453446  0.5834219228920645  0.8158318047633346  1.0000
  H   H126      1.0  0.8813379986933612  0.6327029952043121  0.8399102401343371  1.0000
  H   H127      1.0  0.7583233694897444  0.5635709631192612  0.9151395812391316  1.0000
  H   H128      1.0  0.797060984016554  0.6643515439543892  0.9262090058938884  1.0000
  H   H129      1.0  0.6570838276603865  0.6108364380967756  0.9020988667513381  1.0000
  H   H130      1.0  0.17723232126051872  0.1073144014887149  0.23874030085301004  1.0000
  H   H131      1.0  0.01624840282891431  0.9946996122760013  0.2005641144567322  1.0000
  H   H132      1.0  0.05205479566895117  0.9306352924128023  0.1166475787739216  1.0000
  H   H133      1.0  0.24919892167380212  0.9799538566588314  0.07558211773757512  1.0000
  H   H134      1.0  0.3984865935279061  0.0915821489293265  0.1192975416519957  1.0000
  H   H135      1.0  0.5283367074596583  0.45339687099520637  0.10117490048105544  1.0000
  H   H136      1.0  0.26752444455267727  0.19720212638884502  0.067717519430893  1.0000
  H   H137      1.0  0.127902788581018  0.2103542493769552  0.9111319617257507  1.0000
  H   H138      1.0  0.24989413206488822  0.3481703607124444  0.903337576920599  1.0000
  H   H139      1.0  0.5596263793345742  0.5741667138999135  0.09564841361118681  1.0000
  H   H140      1.0  0.6807783865938364  0.5646301397272214  0.061585607364598616  1.0000
  H   H141      1.0  0.701617198118065  0.7049766706633636  0.07624225558516433  1.0000
  H   H142      1.0  0.6959590080198692  0.6833959910598323  0.0064399946312150005  1.0000
  H   H143      1.0  0.5732763454592205  0.6913113679724107  0.039750200608622804  1.0000
  H   H144      1.0  0.308803336099352  0.6411755559337492  0.9094676494771934  1.0000
  H   H145      1.0  0.4766240498066311  0.5656993955365338  0.7546081061456535  1.0000
  H   H146      1.0  0.5579414956786195  0.36618113385519285  0.8070758980250904  1.0000
  H   H147      1.0  0.48008277206556477  0.375555617742819  0.897297246029645  1.0000
  H   H148      1.0  0.38833757767626753  0.66253402649496  0.9965302885046585  1.0000
  H   H149      1.0  0.2362662332727865  0.6330367597880624  0.003005972019089101  1.0000
  H   H150      1.0  0.3287908083853495  0.6681632229553502  0.09317981055121294  1.0000
  H   H151      1.0  0.2500738550934187  0.566983362393387  0.09093900308122473  1.0000
  H   H152      1.0  0.40151369377028334  0.6002383714341091  0.08446694839945934  1.0000
  H   H153      1.0  0.5693939973905773  0.16817777809622927  0.09256095854414782  1.0000
  H   H154      1.0  0.7309184349066487  0.017322962894226603  0.20479159778374625  1.0000
  H   H155      1.0  0.7724934306147945  0.8431572021499321  0.09801071044945793  1.0000
  H   H156      1.0  0.6964418386456686  0.8986573410061852  0.022325475524240808  1.0000
  H   H157      1.0  0.4356723442119943  0.16281135371954752  0.027006147377562705  1.0000
  H   H158      1.0  0.5767365425090321  0.22437271957576152  0.011925977969333703  1.0000
  H   H159      1.0  0.4404412436159645  0.24415348053199168  0.94495856128615  1.0000
  H   H160      1.0  0.5335787746821907  0.20192188239141026  0.912482913043036  1.0000
  H   H161      1.0  0.39062182277940144  0.14391068451426045  0.9283409577316706  1.0000
  H   H162      1.0  0.3214576510748017  0.3560660301560504  0.25908367328101184  1.0000
  H   H163      1.0  0.07922512197023927  0.2316057384097689  0.3673862047902647  1.0000
  H   H164      1.0  0.10780016121298527  0.18169776609294533  0.3114178097488747  1.0000
  H   H165      1.0  0.166356514237755  0.13169329979469782  0.39522411785142725  1.0000
  H   H166      1.0  0.28830715320555106  0.17801817883854204  0.35463220358102643  1.0000
  H   H167      1.0  0.25997525318483383  0.22618103326448147  0.41248773348596773  1.0000
  H   H168      1.0  0.2589994542272294  0.4165858828226092  0.31583136269105694  1.0000
  H   H169      1.0  0.11866797949339512  0.36730280541589627  0.33990614136192937  1.0000
  H   H170      1.0  0.2416770222964432  0.43643402038370044  0.41513837540115633  1.0000
  H   H171      1.0  0.2029413793438053  0.3356533191253064  0.42620602375260574  1.0000
  H   H172      1.0  0.3429175898713624  0.38917159261336554  0.4020990942258536  1.0000
  C   C1        1.0  0.11076520731254651  0.9229566091280363  0.7974345767815765  1.0000
  C   C2        1.0  0.08445304797032094  0.9852336497959372  0.8188013451049443  1.0000
  C   C3        1.0  0.14074868536024346  0.0212696081649995  0.8651708860374756  1.0000
  C   C4        1.0  0.22235517415006006  0.9940527390458843  0.8881231802384805  1.0000
  C   C5        1.0  0.24328254997180188  0.9313989588372418  0.8642118416240339  1.0000
  C   C6        1.0  0.9663924833633717  0.566432011272248  0.0225019032412561  1.0000
  C   C7        1.0  0.0029863671622080263  0.531182307046457  0.9795686770794564  1.0000
  C   C8        1.0  0.04828069859822639  0.5737430850127722  0.9325985847653586  1.0000
  C   C9        1.0  0.06125573188166567  0.6516924239238338  0.9286834484691158  1.0000
  C   C10       1.0  0.02653457746089317  0.690330758540462  0.9715038416802175  1.0000
  C   C11       1.0  0.032875232434314075  0.7691627113123758  0.9677396715600326  1.0000
  C   C12       1.0  0.9930003411660879  0.8029732391098606  0.0090572467864547  1.0000
  C   C13       1.0  0.9469940767120166  0.7611069445391011  0.0562727107232348  1.0000
  C   C14       1.0  0.9388370960812581  0.6843793405748145  0.06047179606915881  1.0000
  C   C15       1.0  0.9773522772341965  0.6462085233518381  0.018644578876838108  1.0000
  C   C16       1.0  0.11308573147302074  0.6936948751632529  0.8783423477811212  1.0000
  C   C17       1.0  0.021649781811667903  0.4138643857559289  0.9423461190401669  1.0000
  C   C18       1.0  0.9749130808535613  0.3282700586738869  0.9561171734497622  1.0000
  C   C19       1.0  0.9084735084225103  0.5169801243591226  0.0684298140779163  1.0000
  C   C20       1.0  0.8043594123656777  0.4583043587468084  0.05840403272542722  1.0000
  C   C21       1.0  0.7494498111258994  0.4043195835284977  0.09857140976910021  1.0000
  C   C22       1.0  0.7981688988931809  0.40716847261187883  0.14880634155925074  1.0000
  C   C23       1.0  0.9025373807341452  0.4676764608459435  0.16182404552894525  1.0000
  C   C24       1.0  0.9530124030925293  0.4753583516330979  0.21370673224063816  1.0000
  C   C25       1.0  0.05489490692360015  0.5342183955849364  0.22378838573864365  1.0000
  C   C26       1.0  0.11115542528613527  0.5883088355377168  0.18367563238950885  1.0000
  C   C27       1.0  0.06230968321180086  0.582603191227328  0.13350818323436905  1.0000
  C   C28       1.0  0.9572762015403669  0.5232918634087725  0.12078799571430925  1.0000
  C   C29       1.0  0.7379543483960378  0.3424549575537482  0.18681272949789474  1.0000
  C   C30       1.0  0.6940587869695136  0.38139609533207874  0.9861107808374427  1.0000
  C   C31       1.0  0.7105926704878984  0.38679959787090473  0.9258678097359765  1.0000
  C   C32       1.0  0.6010217031750857  0.9806364848377743  0.9734444653123691  1.0000
  C   C33       1.0  0.5027569883074677  0.9161700481957951  0.9655078711184616  1.0000
  C   C34       1.0  0.47897818513089163  0.8813585805568211  0.9143784489345921  1.0000
  C   C35       1.0  0.5517575328128644  0.9102285860200255  0.8712277848747052  1.0000
  C   C36       1.0  0.6543036474474279  0.9753310409708789  0.877808991515231  1.0000
  C   C37       1.0  0.7308500296687725  0.008889881825311401  0.8349367834946053  1.0000
  C   C38       1.0  0.8261242359262014  0.073325728470536  0.8443110966639509  1.0000
  C   C39       1.0  0.8521437121818212  0.10675455700753392  0.8959304901039931  1.0000
  C   C40       1.0  0.7788815631422852  0.0756130127835846  0.9378104962926489  1.0000
  C   C41       1.0  0.6777771337946207  0.010303581788583904  0.9301847322697941  1.0000
  C   C42       1.0  0.514240257834139  0.869619170815561  0.8186457338373077  1.0000
  C   C43       1.0  0.3302316909027497  0.8248945399729666  0.0030600832127377  1.0000
  C   C44       1.0  0.2736966613062535  0.8076031836076254  0.057636327162192906  1.0000
  C   C45       1.0  0.9768935882626979  0.7024125383922951  0.7251555562017631  1.0000
  C   C46       1.0  0.9256890644289231  0.7780046522250147  0.6561092125587464  1.0000
  C   C47       1.0  0.03244402801438163  0.8121020898128536  0.6214767111927559  1.0000
  C   C48       1.0  0.8383082138989407  0.6309288903463397  0.6582135176763091  1.0000
  C   C49       1.0  0.868173313938371  0.6168274299120854  0.6006682636430369  1.0000
  C   C50       1.0  0.8892243440057755  0.0770211795412408  0.29744109826897613  1.0000
  C   C51       1.0  0.9155304740599421  0.014743325954924606  0.31881716973196467  1.0000
  C   C52       1.0  0.8592391677149323  0.9787173234563156  0.3651874346856873  1.0000
  C   C53       1.0  0.7776343677552903  0.005937429746154501  0.38813617378644955  1.0000
  C   C54       1.0  0.7567079095849751  0.06858682084875059  0.36421678433574567  1.0000
  C   C55       1.0  0.03360315922773789  0.43356445475017585  0.5225047337427925  1.0000
  C   C56       1.0  0.997011775354821  0.46881325973545535  0.479569116448566  1.0000
  C   C57       1.0  0.9517226357736633  0.4262535729321044  0.4325978114440547  1.0000
  C   C58       1.0  0.9387441888376885  0.34830253345063517  0.42868573622536843  1.0000
  C   C59       1.0  0.9734614680298538  0.30966605823055465  0.4715104583688828  1.0000
  C   C60       1.0  0.9671228803872226  0.2308353084274586  0.4677494212471205  1.0000
  C   C61       1.0  0.0069976997592106965  0.19702744059797084  0.509069404523821  1.0000
  C   C62       1.0  0.05300338502092224  0.23889380324011716  0.5562852916436825  1.0000
  C   C63       1.0  0.06115831255554129  0.3156201995060002  0.5604816837981874  1.0000
  C   C64       1.0  0.02264111546279676  0.3537885658473385  0.5186509093941397  1.0000
  C   C65       1.0  0.8869244802751981  0.30629714182369844  0.3783441583481917  1.0000
  C   C66       1.0  0.9783466287898863  0.5861321667493729  0.44234842725909845  1.0000
  C   C67       1.0  0.025083332564633985  0.6717286686621052  0.4561163864189553  1.0000
  C   C68       1.0  0.09152824125846579  0.4830170043610237  0.5684323025392503  1.0000
  C   C69       1.0  0.19563923799299945  0.5416905546846991  0.5584065270208995  1.0000
  C   C70       1.0  0.25055806734236097  0.5956714060557857  0.5985722835550578  1.0000
  C   C71       1.0  0.20184113720951294  0.5928213898001431  0.6488079848643409  1.0000
  C   C72       1.0  0.09746919075045912  0.5323167470665453  0.6618224859464094  1.0000
  C   C73       1.0  0.04699248951440878  0.5246371981726482  0.7137059734801527  1.0000
  C   C74       1.0  0.945108639358722  0.46577530141210144  0.7237883252472416  1.0000
  C   C75       1.0  0.8888468754393629  0.4116870407938436  0.6836759758448425  1.0000
  C   C76       1.0  0.9376901716476452  0.4173932304399485  0.6335093363819342  1.0000
  C   C77       1.0  0.042727037095431776  0.47670585847630065  0.6207884761042524  1.0000
  C   C78       1.0  0.2620726448861958  0.6575385584359948  0.6868126961137264  1.0000
  C   C79       1.0  0.3059327507195207  0.6186034686175079  0.4861164074392975  1.0000
  C   C80       1.0  0.28939667263489355  0.613201783125895  0.42587252949481785  1.0000
  C   C81       1.0  0.3989720342981401  0.019368446650467802  0.4734472963119601  1.0000
  C   C82       1.0  0.4972366466821897  0.0838320639729417  0.4655097915331084  1.0000
  C   C83       1.0  0.5210193438066639  0.1186423435997455  0.4143802495731279  1.0000
  C   C84       1.0  0.4482451557562328  0.08977629337656622  0.3712279751438175  1.0000
  C   C85       1.0  0.34569449459741736  0.024675510586909904  0.3778088531288121  1.0000
  C   C86       1.0  0.26915600966128744  0.9911148105962155  0.3349343406568864  1.0000
  C   C87       1.0  0.17388246713322525  0.9266811865124183  0.34430557655706207  1.0000
  C   C88       1.0  0.14785598447415543  0.8932488919712541  0.3959238499086483  1.0000
  C   C89       1.0  0.2211149656025313  0.9243905624167967  0.4378074564744311  1.0000
  C   C90       1.0  0.32221766936029184  0.989703563079239  0.43018521808533466  1.0000
  C   C91       1.0  0.48576665812032627  0.13038046852748414  0.31864467264517776  1.0000
  C   C92       1.0  0.6697597157110168  0.17510620544485533  0.5030614970762741  1.0000
  C   C93       1.0  0.7262979163287043  0.19239813074337062  0.5576369023303018  1.0000
  C   C94       1.0  0.02311979307896906  0.2975846296919329  0.22516208444610444  1.0000
  C   C95       1.0  0.07431034409110988  0.22199559167150804  0.15611216029616062  1.0000
  C   C96       1.0  0.9675535522402329  0.18790840953594315  0.12147805657910743  1.0000
  C   C97       1.0  0.1616852066595769  0.36906726325084094  0.1582270795980421  1.0000
  C   C98       1.0  0.13182164303540833  0.38317457895872303  0.10068019634166353  1.0000
  C   C99       1.0  0.8115984677562196  0.9230294807674256  0.7025792561160531  1.0000
  C   C100      1.0  0.9002302909983871  0.9852612239910461  0.6811952981427468  1.0000
  C   C101      1.0  0.8800207986446653  0.021223042421510702  0.6347820997574659  1.0000
  C   C102      1.0  0.7712107854270158  0.9940208171933735  0.6118200049049919  1.0000
  C   C103      1.0  0.687617145123852  0.9314144562791996  0.6357425112339359  1.0000
  C   C104      1.0  0.6001567523964938  0.5665328148589597  0.4773430753944297  1.0000
  C   C105      1.0  0.5282517168923206  0.531371590247474  0.5202672716911964  1.0000
  C   C106      1.0  0.5256033880930104  0.5739498635483571  0.5672411597203322  1.0000
  C   C107      1.0  0.5906970051118066  0.6518471463175146  0.5711912337098256  1.0000
  C   C108      1.0  0.6640488347724798  0.6904356849288718  0.5283710420259454  1.0000
  C   C109      1.0  0.736571740812707  0.7692418753982724  0.5321733575275616  1.0000
  C   C110      1.0  0.8102858300583691  0.8030408250570319  0.4908812847459104  1.0000
  C   C111      1.0  0.8143731782692641  0.761188843194553  0.4436515798544961  1.0000
  C   C112      1.0  0.7457628599360008  0.6844784550708171  0.43941072381036156  1.0000
  C   C113      1.0  0.6690351297018537  0.6462975288516972  0.48121966505130603  1.0000
  C   C114      1.0  0.5808982552872379  0.6938279520295723  0.6215509921852985  1.0000
  C   C115      1.0  0.39205390890285946  0.4142545226384655  0.5576081050435776  1.0000
  C   C116      1.0  0.3531740209860814  0.3286277163060661  0.5439691585547451  1.0000
  C   C117      1.0  0.6087316289832004  0.5170463852795281  0.4314363048540387  1.0000
  C   C118      1.0  0.6542727481813629  0.4584206712463086  0.4415045587461109  1.0000
  C   C119      1.0  0.6553154444193013  0.40441251550600305  0.4013671807188716  1.0000
  C   C120      1.0  0.6094549278419947  0.40721476787209115  0.3511165719841003  1.0000
  C   C121      1.0  0.5656029441924915  0.4677144734558922  0.33802385658496104  1.0000
  C   C122      1.0  0.5228569105401278  0.4753757971335658  0.2861154278895128  1.0000
  C   C123      1.0  0.4798106418357976  0.5342366822285385  0.27600180373978844  1.0000
  C   C124      1.0  0.4776379217896932  0.5883669544668849  0.3160917868166565  1.0000
  C   C125      1.0  0.5207345988185139  0.5826790831529677  0.36627211649773284  1.0000
  C   C126      1.0  0.5664218739529475  0.5233635596620233  0.3790451600196008  1.0000
  C   C127      1.0  0.604707209347268  0.34241454244127584  0.3131382292385824  1.0000
  C   C128      1.0  0.6875762369435421  0.3816554030211919  0.5139467645795436  1.0000
  C   C129      1.0  0.6760490780615459  0.38701844636801047  0.5741603890816337  1.0000
  C   C130      1.0  0.3797353829016216  0.9807398084729897  0.5265654574274594  1.0000
  C   C131      1.0  0.41374542588619784  0.9163369107138024  0.5344798968016633  1.0000
  C   C132      1.0  0.40254238285703553  0.8813757909497397  0.5855661264146974  1.0000
  C   C133      1.0  0.3583679880947485  0.9100957482514715  0.6287066002737449  1.0000
  C   C134      1.0  0.3208882593481093  0.9752095945994768  0.6221595936619196  1.0000
  C   C135      1.0  0.2776809770549776  0.008655203644664801  0.6650339385410221  1.0000
  C   C136      1.0  0.24689427082757484  0.07313748806200242  0.655710294756851  1.0000
  C   C137      1.0  0.2545728439840858  0.10675997586982791  0.604145747747161  1.0000
  C   C138      1.0  0.2968375258094369  0.075708714668238  0.5622651000174274  1.0000
  C   C139      1.0  0.3325567988921563  0.010336394041637201  0.5698365847379563  1.0000
  C   C140      1.0  0.3551294822313126  0.8694007566726613  0.6812691830734965  1.0000
  C   C141      1.0  0.4954292594902724  0.8252802610449875  0.49698120630978354  1.0000
  C   C142      1.0  0.5347744246378312  0.8079470941346898  0.4424367791938695  1.0000
  C   C143      1.0  0.7251810865359333  0.7023968227716253  0.7749934953477152  1.0000
  C   C144      1.0  0.851917949480921  0.7780200238523136  0.8440410531189146  1.0000
  C   C145      1.0  0.779395509670039  0.812172608342003  0.8787292617861484  1.0000
  C   C146      1.0  0.7919555314933507  0.6309021981770828  0.8420632105597932  1.0000
  C   C147      1.0  0.7479113177378595  0.6169094937444087  0.8995932759255255  1.0000
  C   C148      1.0  0.18840699405630806  0.07699059673702643  0.20258473129693755  1.0000
  C   C149      1.0  0.09976948567538102  0.014761991872568098  0.18120215493332387  1.0000
  C   C150      1.0  0.11997404079528445  0.9787954481203657  0.13479000630284335  1.0000
  C   C151      1.0  0.22878142676199087  0.005990949676927901  0.11182817658596633  1.0000
  C   C152      1.0  0.31237964951409947  0.06859821253937783  0.13574844640803016  1.0000
  C   C153      1.0  0.3998411363027188  0.4334720739719131  0.9773441712455057  1.0000
  C   C154      1.0  0.4717492380940201  0.46863245418693816  0.0202679351665296  1.0000
  C   C155      1.0  0.4743991035713649  0.4260536703112621  0.06724267331053822  1.0000
  C   C156      1.0  0.4093094156793242  0.3481575065624298  0.0711929022981792  1.0000
  C   C157      1.0  0.3359485188148811  0.3095653661074707  0.028375207399925308  1.0000
  C   C158      1.0  0.2634254466772106  0.2307585532213778  0.032176411421630705  1.0000
  C   C159      1.0  0.18971353009468572  0.19696275431189042  0.9908835354661536  1.0000
  C   C160      1.0  0.18561967509847224  0.23881176318763417  0.9436545803856762  1.0000
  C   C161      1.0  0.2542291166123434  0.3155239408048375  0.9394140162105203  1.0000
  C   C162      1.0  0.3309615001807771  0.35370615569919295  0.9812233080445482  1.0000
  C   C163      1.0  0.41911718893487665  0.3061796396338394  0.12155317141104402  1.0000
  C   C164      1.0  0.6079525151806352  0.5857479533810236  0.05761050670756871  1.0000
  C   C165      1.0  0.646831956896847  0.6713749079674829  0.0439698741250183  1.0000
  C   C166      1.0  0.3912626580120603  0.48295319153362476  0.9314348191261176  1.0000
  C   C167      1.0  0.34572128724475704  0.5415776339448399  0.9415028600040787  1.0000
  C   C168      1.0  0.344684811103086  0.5955868065306547  0.9013629271376119  1.0000
  C   C169      1.0  0.3905590406465578  0.5927868425693816  0.8511147907438998  1.0000
  C   C170      1.0  0.43439861538384855  0.5322826312259821  0.8380242988908438  1.0000
  C   C171      1.0  0.47714158912845056  0.524614317351535  0.786115549962176  1.0000
  C   C172      1.0  0.5201780272712285  0.46575063727896565  0.7760049286050335  1.0000
  C   C173      1.0  0.5223469398756678  0.4116193485437876  0.8160958720946213  1.0000
  C   C174      1.0  0.4792489520331956  0.4173136480371016  0.8662761366722055  1.0000
  C   C175      1.0  0.433574141978454  0.476635424112807  0.8790453445416022  1.0000
  C   C176      1.0  0.3953176545666537  0.6575892232585403  0.8131370537983857  1.0000
  C   C177      1.0  0.3124286920911103  0.6183458042541261  0.013943218672125104  1.0000
  C   C178      1.0  0.3239513161721988  0.612980363549113  0.07415821098220483  1.0000
  C   C179      1.0  0.6202551164609248  0.019258938250125406  0.026563969666668207  1.0000
  C   C180      1.0  0.5862420467801358  0.083660006869259  0.034479854719599204  1.0000
  C   C181      1.0  0.5974484371227576  0.11862231459588202  0.085565040177201  1.0000
  C   C182      1.0  0.6416332286344756  0.08990537443006023  0.12870581837049855  1.0000
  C   C183      1.0  0.6791127431980117  0.024791599246285004  0.12215820936259554  1.0000
  C   C184      1.0  0.7223195281010604  0.9913449432096898  0.16503299463416715  1.0000
  C   C185      1.0  0.7531094387974662  0.926863340982564  0.15571148970561677  1.0000
  C   C186      1.0  0.7454392594851387  0.8932454807223779  0.10414640070415972  1.0000
  C   C187      1.0  0.7031666363411447  0.9242937109239692  0.06226464044526382  1.0000
  C   C188      1.0  0.6674411063152944  0.9896642063892785  0.0698343321146169  1.0000
  C   C189      1.0  0.6448741253814206  0.13059630796698232  0.18126561783347486  1.0000
  C   C190      1.0  0.504556843302403  0.17472209079371484  0.9969786423022386  1.0000
  C   C191      1.0  0.4652134699561118  0.19205817475280904  0.9424360780481894  1.0000
  C   C192      1.0  0.27483448212696976  0.2976073581091399  0.274993583543619  1.0000
  C   C193      1.0  0.14808867811182583  0.22198515071779923  0.3440366710163688  1.0000
  C   C194      1.0  0.22060458628531174  0.18782812192027623  0.3787287205629185  1.0000
  C   C195      1.0  0.20804984574239432  0.36910706576419744  0.34206275566155864  1.0000
  C   C196      1.0  0.2520907558942013  0.38309682080813456  0.3995918962468893  1.0000
  N   N1        1.0  0.18784148402171755  0.8954600621471941  0.8199440361054472  1.0000
  N   N2        1.0  0.9166555127273954  0.7034027195054621  0.6811108346737386  1.0000
  N   N3        1.0  0.8121517987507474  0.1045186438960783  0.3199467395546948  1.0000
  N   N4        1.0  0.08334750904183612  0.29659318457777323  0.1811235683805279  1.0000
  N   N5        1.0  0.7070801525512991  0.895526593953541  0.6800422291164951  1.0000
  N   N6        1.0  0.7862830987972771  0.7034038729055896  0.819080379206696  1.0000
  N   N7        1.0  0.2929246625005106  0.10448907958496531  0.18004681910862533  1.0000
  N   N8        1.0  0.2137290597816986  0.29660622140195875  0.31908150231139143  1.0000
  Cl  Cl1       1.0  0.9985717750330424  0.8988377550653297  0.0033448198932646014  1.0000
  Cl  Cl2       1.0  0.11792798490593978  0.5422741333063358  0.28700873978861113  1.0000
  Cl  Cl3       1.0  0.9182312708536886  0.11681060163837743  0.7916914938425708  1.0000
  Cl  Cl4       1.0  0.001436831116094995  0.1011635670803344  0.5033546649056504  1.0000
  Cl  Cl5       1.0  0.8820734485388969  0.4577217824461286  0.7870029387061096  1.0000
  Cl  Cl6       1.0  0.08179391992262454  0.883192234900058  0.2916839232377413  1.0000
  Cl  Cl7       1.0  0.9007218236491855  0.8988462407573582  0.49666188953187895  1.0000
  Cl  Cl8       1.0  0.42464876865395257  0.5421918501570178  0.21280470043592464  1.0000
  Cl  Cl9       1.0  0.19795821851411693  0.11641991384720997  0.7083344909002278  1.0000
  Cl  Cl10      1.0  0.09927942553996873  0.1011526267544127  0.996660216128312  1.0000
  Cl  Cl11      1.0  0.5753385045141856  0.4577926695136512  0.7128076261288003  1.0000
  Cl  Cl12      1.0  0.8020437032155601  0.8835797623380942  0.20833818824228706  1.0000
  O   O1        1.0  0.19418036462217  0.7592428715834458  0.8825230785022953  1.0000
  O   O2        1.0  0.07658414751538332  0.6633007770539406  0.8330288347415478  1.0000
  O   O3        1.0  0.9902897934264278  0.45480843703843027  0.9856973727649747  1.0000
  O   O4        1.0  0.6300437993681953  0.32103995372617083  0.18812917352394015  1.0000
  O   O5        1.0  0.7999111433014506  0.31220151174540683  0.21322931071640747  1.0000
  O   O6        1.0  0.7589805717223612  0.4563048180115246  0.0082201159858712  1.0000
  O   O7        1.0  0.4068897840353287  0.8436400988412772  0.8100201586763236  1.0000
  O   O8        1.0  0.5887036774544968  0.8613469932693861  0.7866127942894181  1.0000
  O   O9        1.0  0.43279942970275465  0.8915311419925022  0.0089818528126884  1.0000
  O   O10       1.0  0.04230396503882616  0.7626361321275398  0.7478661889651124  1.0000
  O   O11       1.0  0.8058272791534337  0.24074851905656655  0.3825223593936756  1.0000
  O   O12       1.0  0.9234331674347589  0.3366847584552418  0.3330290841580848  1.0000
  O   O13       1.0  0.009705106795756542  0.5451882256085484  0.48569809901928823  1.0000
  O   O14       1.0  0.3699801084432224  0.6789488992813234  0.6881247333334458  1.0000
  O   O15       1.0  0.20011687134431363  0.6877888115167395  0.7132311981940802  1.0000
  O   O16       1.0  0.2410111608265879  0.5436929657408811  0.5082198093811385  1.0000
  O   O17       1.0  0.5931226163164  0.1563631205107257  0.31002267200137373  1.0000
  O   O18       1.0  0.4113080047245604  0.13864369601142815  0.2866053198912298  1.0000
  O   O19       1.0  0.5671962610283501  0.10847128210093623  0.5089849611160205  1.0000
  O   O20       1.0  0.9576872742641029  0.23733754613531494  0.24787498092589297  1.0000
  O   O21       1.0  0.5651422430059655  0.7593161911932002  0.6174060651180184  1.0000
  O   O22       1.0  0.5871678862141325  0.6634447867044246  0.666856229862937  1.0000
  O   O23       1.0  0.46437051582640987  0.4550240662614018  0.5141895114895834  1.0000
  O   O24       1.0  0.6910399686248925  0.3208227496814899  0.31181707710643997  1.0000
  O   O25       1.0  0.5124686790727325  0.3122725211710531  0.28674509703490264  1.0000
  O   O26       1.0  0.6975770720657197  0.45652921251881656  0.4917298499018301  1.0000
  O   O27       1.0  0.4363697078917994  0.8432974980487558  0.6899145713616549  1.0000
  O   O28       1.0  0.2724234078889366  0.8612570178537239  0.71330136180017  1.0000
  O   O29       1.0  0.4594488043043229  0.8918961790534043  0.4910374046849527  1.0000
  O   O30       1.0  0.7201591444910137  0.76261947768257  0.7522018903988442  1.0000
  O   O31       1.0  0.4348735799077376  0.24069086436735887  0.11740864375118323  1.0000
  O   O32       1.0  0.4128647539774448  0.336566379196654  0.166858047428228  1.0000
  O   O33       1.0  0.535626664243587  0.5449777200316461  0.014190023842772303  1.0000
  O   O34       1.0  0.3089951327385235  0.6791903274738047  0.8118172750519438  1.0000
  O   O35       1.0  0.48756162610156656  0.6877280442459011  0.7867449013407397  1.0000
  O   O36       1.0  0.30241851579783235  0.5434731957192157  0.9917233026314067  1.0000
  O   O37       1.0  0.5636495154505641  0.15670760713098988  0.18991037514234685  1.0000
  O   O38       1.0  0.727575281225292  0.13873098229020545  0.21330332188900772  1.0000
  O   O39       1.0  0.5405328137404624  0.10809926430903262  0.9910358453670441  1.0000
  O   O40       1.0  0.27985835953863614  0.23739192407918347  0.25220905069775773  1.0000
