data_image0
_chemical_formula_structural       Cd4H32C32N24O24
_chemical_formula_sum              "Cd4 H32 C32 N24 O24"
_cell_length_a       7.028220287
_cell_length_b       10.803772743
_cell_length_c       15.806
_cell_angle_alpha    90.0
_cell_angle_beta     90.0
_cell_angle_gamma    90.0

_space_group_name_H-M_alt    "P 1"
_space_group_IT_number       1

loop_
  _space_group_symop_operation_xyz
  'x, y, z'

loop_
  _atom_site_type_symbol
  _atom_site_label
  _atom_site_symmetry_multiplicity
  _atom_site_fract_x
  _atom_site_fract_y
  _atom_site_fract_z
  _atom_site_occupancy
  Cd  Cd1       1.0  0.4847400708685257  0.6655897130619622  0.2492154877894492  1.0000
  Cd  Cd2       1.0  0.515261311131411  0.1655903028096475  0.7507832468682807  1.0000
  Cd  Cd3       1.0  0.9847386276155277  0.665590638664547  0.7507832468682807  1.0000
  Cd  Cd4       1.0  0.015259908713787199  0.16558937720706274  0.2492154877894492  1.0000
  H   H1        1.0  0.5327593397898838  0.5330647114667855  0.4409913956725262  1.0000
  H   H2        1.0  0.4672391965394311  0.033064375611886  0.5590054409717808  1.0000
  H   H3        1.0  0.0327607830428818  0.5330647114667855  0.5590054409717808  1.0000
  H   H4        1.0  0.9672405989570549  0.033064375611886  0.4409920283436648  1.0000
  H   H5        1.0  0.3970108912438519  0.34847641555949593  0.5214102239655816  1.0000
  H   H6        1.0  0.602987645085463  0.8484758258118035  0.4785872453498641  1.0000
  H   H7        1.0  0.8970122936614757  0.34847641555949593  0.4785872453498641  1.0000
  H   H8        1.0  0.102989088338461  0.8484767514143954  0.5214102239655816  1.0000
  H   H9        1.0  0.1806943931949618  0.2061400265423927  0.4418625838289288  1.0000
  H   H10       1.0  0.8193041431343531  0.7061394367947075  0.5581361508288012  1.0000
  H   H11       1.0  0.6806957956125856  0.2061391009398079  0.5581361508288012  1.0000
  H   H12       1.0  0.3193055863873511  0.7061394367947075  0.4418619511577902  1.0000
  H   H13       1.0  0.1979334658267788  0.4429267547394958  0.2339624193344321  1.0000
  H   H14       1.0  0.8020650705025361  0.9429289417995648  0.7660350499810207  1.0000
  H   H15       1.0  0.6979348682444025  0.4429286059446654  0.7660350499810207  1.0000
  H   H16       1.0  0.302067936590845  0.9429270905943952  0.2339624193344321  1.0000
  H   H17       1.0  0.5325459144931912  0.7696283694404258  0.0566892319372414  1.0000
  H   H18       1.0  0.4674497761655019  0.2696289591881111  0.9433107680627586  1.0000
  H   H19       1.0  0.032550203416811  0.7696283694404258  0.9433107680627586  1.0000
  H   H20       1.0  0.9674540242537473  0.2696280335855263  0.0566892319372414  1.0000
  H   H21       1.0  0.7245888421311548  0.9273630830944272  0.9762539541946111  1.0000
  H   H22       1.0  0.2754082713628492  0.4273636728421124  0.0237447804631188  1.0000
  H   H23       1.0  0.2245917082194637  0.927364008697012  0.0237447804631188  1.0000
  H   H24       1.0  0.775411096615791  0.4273618216369428  0.9762545868657497  1.0000
  H   H25       1.0  0.9250521091414399  0.0739436138655947  0.0610787042895069  1.0000
  H   H26       1.0  0.0749450043525641  0.5739448753230789  0.9389193976970773  1.0000
  H   H27       1.0  0.4250535523944379  0.0739445394681795  0.9389193976970773  1.0000
  H   H28       1.0  0.5749492524408097  0.5739439497204941  0.0610787042895069  1.0000
  H   H29       1.0  0.7502311801115553  0.9022209400244492  0.28352461090725  1.0000
  H   H30       1.0  0.2497673562177596  0.4022215297721417  0.7164741237504728  1.0000
  H   H31       1.0  0.2502312005292424  0.9022209400244492  0.7164741237504728  1.0000
  H   H32       1.0  0.7497673358000725  0.4022206041695497  0.28352461090725  1.0000
  C   C1        1.0  0.4286006808255322  0.4704402916372956  0.4131026192585097  1.0000
  C   C2        1.0  0.5713964326684717  0.9704415530947799  0.5868948500569432  1.0000
  C   C3        1.0  0.9286020832431561  0.4704412172398804  0.5868948500569432  1.0000
  C   C4        1.0  0.07139929875678058  0.9704406274921951  0.4131026192585097  1.0000
  C   C5        1.0  0.35799390133714576  0.3682176675344735  0.456288118436035  1.0000
  C   C6        1.0  0.64200605782748  0.8682170777867881  0.5437093508794106  1.0000
  C   C7        1.0  0.8579938809194587  0.3682176675344735  0.5437099835505492  1.0000
  C   C8        1.0  0.1420060782451671  0.8682170777867881  0.456288118436035  1.0000
  C   C9        1.0  0.2356144133761688  0.2901773366189389  0.4125806655700401  1.0000
  C   C10       1.0  0.7643841229531461  0.7901776724738383  0.5874168037454126  1.0000
  C   C11       1.0  0.7356158157937926  0.2901773366189389  0.5874168037454126  1.0000
  C   C12       1.0  0.2643855662061441  0.7901767468712464  0.4125806655700401  1.0000
  C   C13       1.0  0.2459698087718749  0.4196441472667516  0.2973864355308109  1.0000
  C   C14       1.0  0.7540273047221291  0.9196444831216511  0.7026110337846418  1.0000
  C   C15       1.0  0.7459712111894987  0.4196441472667516  0.7026104011135035  1.0000
  C   C16       1.0  0.254030170810438  0.9196435575190591  0.2973864355308109  1.0000
  C   C17       1.0  0.625612149370582  0.8345714237502833  0.0893300012653455  1.0000
  C   C18       1.0  0.374384964123422  0.3345720134979686  0.910669366063523  1.0000
  C   C19       1.0  0.1256150154588909  0.8345723493528681  0.910669366063523  1.0000
  C   C20       1.0  0.8743863665410458  0.3345710878953838  0.0893300012653455  1.0000
  C   C21       1.0  0.7297067807459285  0.9220871483486733  0.044983550550426805  1.0000
  C   C22       1.0  0.2702889099127646  0.4220886636989505  0.9550151841073031  1.0000
  C   C23       1.0  0.2297110696695484  0.92208899955385  0.9550151841073031  1.0000
  C   C24       1.0  0.7702917351656993  0.4220877380963657  0.044983550550426805  1.0000
  C   C25       1.0  0.8386945427568688  0.0039273317765307  0.0922092876122989  1.0000
  C   C26       1.0  0.1613025707371349  0.5039276676314302  0.9077900797165628  1.0000
  C   C27       1.0  0.3386959860098671  0.0039282573791155  0.9077900797165628  1.0000
  C   C28       1.0  0.6613053959900697  0.5039267420288454  0.0922086549411603  1.0000
  C   C29       1.0  0.7434058391232128  0.9099710104851866  0.2148101986587392  1.0000
  C   C30       1.0  0.2565926972061021  0.40997160023287194  0.7851891686701222  1.0000
  C   C31       1.0  0.2434058595408928  0.9099719360877714  0.7851891686701222  1.0000
  C   C32       1.0  0.7565940996237329  0.40997160023287194  0.2148095659876006  1.0000
  N   N1        1.0  0.871532158906561  0.6428060053835978  0.3567120080981923  1.0000
  N   N2        1.0  0.1284663774227539  0.1428038183235216  0.6432873592306692  1.0000
  N   N3        1.0  0.371533602159559  0.6428041541784211  0.6432873592306692  1.0000
  N   N4        1.0  0.6284677798403777  0.1428047439261064  0.3567120080981923  1.0000
  N   N5        1.0  0.1507465555625345  0.6871608813513888  0.1170713653043123  1.0000
  N   N6        1.0  0.8492534036020913  0.18715961989390448  0.8829261040111334  1.0000
  N   N7        1.0  0.6507479579801654  0.687159955748804  0.882925471339995  1.0000
  N   N8        1.0  0.3492534240197784  0.1871605454964893  0.1170719979754509  1.0000
  N   N9        1.0  0.3702743929090531  0.49683847741779635  0.3339681133746667  1.0000
  N   N10       1.0  0.6297227205849509  0.9968397388752805  0.6660293559407793  1.0000
  N   N11       1.0  0.8702772181619878  0.49683940302038115  0.6660293559407793  1.0000
  N   N12       1.0  0.1297255866732598  0.9968388132726957  0.333967480703528  1.0000
  N   N13       1.0  0.1811681973536281  0.3152880092009553  0.3327078324686852  1.0000
  N   N14       1.0  0.8188303389756867  0.8152883450558548  0.6672896368467676  1.0000
  N   N15       1.0  0.6811710226065628  0.3152889348035401  0.6672896368467676  1.0000
  N   N16       1.0  0.3188317822286848  0.815287419453263  0.3327078324686852  1.0000
  N   N17       1.0  0.6357327769399177  0.826738049056722  0.174293306339365  1.0000
  N   N18       1.0  0.3642657593893972  0.32673863880440734  0.8257054283183578  1.0000
  N   N19       1.0  0.1357327973576048  0.8267389746593068  0.8257054283183578  1.0000
  N   N20       1.0  0.864267161807021  0.32673863880440734  0.17429393901050366  1.0000
  N   N21       1.0  0.842375417707224  0.0001684596708316  0.1772314311021148  1.0000
  N   N22       1.0  0.1576231186220909  0.5001697211283158  0.8227673035556151  1.0000
  N   N23       1.0  0.342376860960222  0.0001693852734164  0.8227666708844765  1.0000
  N   N24       1.0  0.6576259438750256  0.500168795525731  0.1772314311021148  1.0000
  O   O1        1.0  0.7036375921721287  0.6918055551328237  0.3665854738706855  1.0000
  O   O2        1.0  0.29636094415718617  0.19180614488051623  0.6334157914715917  1.0000
  O   O3        1.0  0.2036390354251267  0.6918055551328237  0.6334157914715917  1.0000
  O   O4        1.0  0.7963609237394991  0.1918052192779243  0.3665842085284083  1.0000
  O   O5        1.0  0.9477022244621622  0.5902502904952129  0.4191155257497172  1.0000
  O   O6        1.0  0.0523005803730854  0.0902499546403135  0.5808825762368743  1.0000
  O   O7        1.0  0.4476993992092275  0.5902502904952129  0.5808825762368743  1.0000
  O   O8        1.0  0.5522991371200874  0.0902508802428983  0.4191161584208558  1.0000
  O   O9        1.0  0.9517487680875263  0.6495638298710915  0.2860806023029241  1.0000
  O   O10       1.0  0.0482511910770995  0.1495560891954995  0.713919397697076  1.0000
  O   O11       1.0  0.4517487885052134  0.6495564250503989  0.713919397697076  1.0000
  O   O12       1.0  0.5482511706594124  0.1495597916058458  0.2860799696317855  1.0000
  O   O13       1.0  0.2693156905598286  0.6027051989055323  0.1426470960394752  1.0000
  O   O14       1.0  0.730687114275419  0.1027020862428714  0.857351005947109  1.0000
  O   O15       1.0  0.7693170929774524  0.6027033477003627  0.8573503732759704  1.0000
  O   O16       1.0  0.23068286618717335  0.1027048630506329  0.1426470960394752  1.0000
  O   O17       1.0  0.1762096162937183  0.7973918190367115  0.1395248639757085  1.0000
  O   O18       1.0  0.8237832286943529  0.2973887063740506  0.860471339997467  1.0000
  O   O19       1.0  0.6762152872172749  0.7973908934341267  0.860471339997467  1.0000
  O   O20       1.0  0.3237917861239054  0.2973924087843969  0.1395248639757085  1.0000
  O   O21       1.0  0.0162615847729484  0.6554969424535955  0.0698627103631537  1.0000
  O   O22       1.0  0.9837383743916773  0.155496606598696  0.9301366569657077  1.0000
  O   O23       1.0  0.5162644100258831  0.6554960168510107  0.9301353916234378  1.0000
  O   O24       1.0  0.48373839480936437  0.155496606598696  0.0698620776920151  1.0000
