data_image0
_chemical_formula_structural       Cd2H22C28N2O12
_chemical_formula_sum              "Cd2 H22 C28 N2 O12"
_cell_length_a       8.355786137736628
_cell_length_b       8.908786504900975
_cell_length_c       10.156105467649866
_cell_angle_alpha    70.48566722389934
_cell_angle_beta     66.44155636585188
_cell_angle_gamma    80.91676353902332

_space_group_name_H-M_alt    "P 1"
_space_group_IT_number       1

loop_
  _space_group_symop_operation_xyz
  'x, y, z'

loop_
  _atom_site_type_symbol
  _atom_site_label
  _atom_site_symmetry_multiplicity
  _atom_site_fract_x
  _atom_site_fract_y
  _atom_site_fract_z
  _atom_site_occupancy
  Cd  Cd1       1.0  0.8182057684998084  0.5799099439539078  0.41308485584352134  1.0000
  Cd  Cd2       1.0  0.1817942425046226  0.4200918057757549  0.5869151686089392  1.0000
  H   H1        1.0  0.2751189305254513  0.1456724675220826  0.3560391191677112  1.0000
  H   H2        1.0  0.7248810832707164  0.8543292788070362  0.6439599207398458  1.0000
  H   H3        1.0  0.3166853159192868  0.9354390153075518  0.4206821793226892  1.0000
  H   H4        1.0  0.6833146807111206  0.06456392225015152  0.5793165143993376  1.0000
  H   H5        1.0  0.5541766544040528  0.20171846263422571  0.3273733322007003  1.0000
  H   H6        1.0  0.44582339651537944  0.7982808978372092  0.6726254155330195  1.0000
  H   H7        1.0  0.5536966485678433  0.18585817558560083  0.9086200395539732  1.0000
  H   H8        1.0  0.44630334247909786  0.8141447687731757  0.09138062325786211  1.0000
  H   H9        1.0  0.8387593673973585  0.5475373006803042  0.9124643544518487  1.0000
  H   H10       1.0  0.1612445588041354  0.452464398674607  0.08753538813793672  1.0000
  H   H11       1.0  0.7886164521188591  0.9024649497636974  0.19310357976077325  1.0000
  H   H12       1.0  0.2113848760487897  0.09753676843870812  0.8068920843762157  1.0000
  H   H13       1.0  0.9459590086810935  0.16090066303090114  0.04375246397137987  1.0000
  H   H14       1.0  0.05404100790681811  0.8391010798976809  0.9562455913912797  1.0000
  H   H15       1.0  0.1829387423353026  0.21896100452765674  0.10554075724161287  1.0000
  H   H16       1.0  0.8170560275183193  0.7810420081309674  0.894460609568767  1.0000
  H   H17       1.0  0.0786763412680642  0.7745921012258776  0.46563627445151906  1.0000
  H   H18       1.0  0.9213223864893436  0.22540846839923037  0.5343625492325257  1.0000
  H   H19       1.0  0.5142359276994455  0.686735577701093  0.34485102859500205  1.0000
  H   H20       1.0  0.4857653749272259  0.31326734193150696  0.6551472429911696  1.0000
  H   H21       1.0  0.45077242884436686  0.6803997959785806  0.5111529413643718  1.0000
  H   H22       1.0  0.5492288737823046  0.31960312365401927  0.4888453302217996  1.0000
  C   C1        1.0  0.2964538611583904  0.03315429893843459  0.32809105509298314  1.0000
  C   C2        1.0  0.7035422490230162  0.966846313337946  0.6719105819525949  1.0000
  C   C3        1.0  0.755716391627125  0.46251939987735113  0.2127514567810209  1.0000
  C   C4        1.0  0.24428760602914681  0.5374775311627219  0.7872486860059807  1.0000
  C   C5        1.0  0.5924876767580612  0.25236554703978703  0.2059125369875687  1.0000
  C   C6        1.0  0.40751371448915563  0.7476314130494046  0.7940864809813488  1.0000
  C   C7        1.0  0.543633444745126  0.18021836564406615  0.12520021460199612  1.0000
  C   C8        1.0  0.4563640400955861  0.8197774637929173  0.8748023850498466  1.0000
  C   C9        1.0  0.5955329742598037  0.24268160010816328  0.9688635975450167  1.0000
  C   C10       1.0  0.40446443912613006  0.7573189976436512  0.031138601909603245  1.0000
  C   C11       1.0  0.6974029472106622  0.3864670676590834  0.12899409062963216  1.0000
  C   C12       1.0  0.30260110473462726  0.6135262862947218  0.8710061061690549  1.0000
  C   C13       1.0  0.7530288479889578  0.4468608264418351  0.9725157897571746  1.0000
  C   C14       1.0  0.24697513250154662  0.5531372958268151  0.027484006844296933  1.0000
  C   C15       1.0  0.7006800039768564  0.3763449938179306  0.8926278738301148  1.0000
  C   C16       1.0  0.29932268489141484  0.6236519585477822  0.1073736756376532  1.0000
  C   C17       1.0  0.7509796362740174  0.4485106803917775  0.7266870496889908  1.0000
  C   C18       1.0  0.24902041185367813  0.5514886834802015  0.27331268258963337  1.0000
  C   C19       1.0  0.8907981177111706  0.9352296157684777  0.21867413581541217  1.0000
  C   C20       1.0  0.1092045308267586  0.06477089668079833  0.7813224369161486  1.0000
  C   C21       1.0  0.9777454696889549  0.07798139928151933  0.13678678197595662  1.0000
  C   C22       1.0  0.022255847311740195  0.9220203325230402  0.8632128203406492  1.0000
  C   C23       1.0  0.10871502429905179  0.1110501329743414  0.1735018898069498  1.0000
  C   C24       1.0  0.8912850038711468  0.888950425526744  0.8264984808310483  1.0000
  C   C25       1.0  0.14703316541668698  0.0030141393218912  0.2942688293883079  1.0000
  C   C26       1.0  0.8529668799192722  0.9969852279506242  0.7057318874352202  1.0000
  C   C27       1.0  0.05348194879583448  0.8632401274167593  0.37120830302892205  1.0000
  C   C28       1.0  0.9465180422510995  0.13676281694201722  0.6287923597829205  1.0000
  N   N1        1.0  0.9296416820197563  0.8290756888835492  0.3325415906488514  1.0000
  N   N2        1.0  0.07035834615044222  0.17092486961754358  0.6674587799891467  1.0000
  O   O1        1.0  0.7370957076595841  0.3826277854200981  0.3504150674498305  1.0000
  O   O2        1.0  0.2629069812086867  0.6173691669456077  0.6495864820179374  1.0000
  O   O3        1.0  0.8202937996010319  0.5989212151231982  0.14994179024341034  1.0000
  O   O4        1.0  0.17971024076197042  0.4010733232581032  0.8500560912799453  1.0000
  O   O5        1.0  0.6570790087955486  0.4240967463381154  0.6635041848527405  1.0000
  O   O6        1.0  0.34292105928964384  0.5759014229047495  0.33649490906650925  1.0000
  O   O7        1.0  0.8855908504498231  0.5361240497578096  0.6506812485122492  1.0000
  O   O8        1.0  0.1144078346008541  0.4638789125260701  0.34931983643545533  1.0000
  O   O9        1.0  0.4503311093155773  0.042966671641032406  0.19221405076937964  1.0000
  O   O10       1.0  0.5496637148270694  0.9570327639313237  0.8077873700526932  1.0000
  O   O11       1.0  0.5511489180913146  0.7168943956478914  0.41308506105477244  1.0000
  O   O12       1.0  0.44885238453535686  0.2831085239847156  0.5869132105313993  1.0000
