data_image0
_chemical_formula_structural       Ag4H24C48O16
_chemical_formula_sum              "Ag4 H24 C48 O16"
_cell_length_a       6.6589213972847325
_cell_length_b       12.13444473780079
_cell_length_c       12.820623906173221
_cell_angle_alpha    90.0002545425594
_cell_angle_beta     89.99706994196518
_cell_angle_gamma    90.00425965562339

_space_group_name_H-M_alt    "P 1"
_space_group_IT_number       1

loop_
  _space_group_symop_operation_xyz
  'x, y, z'

loop_
  _atom_site_type_symbol
  _atom_site_label
  _atom_site_symmetry_multiplicity
  _atom_site_fract_x
  _atom_site_fract_y
  _atom_site_fract_z
  _atom_site_occupancy
  Ag  Ag1       1.0  0.46773125432663665  0.7242300481346435  0.0552023691063397  1.0000
  Ag  Ag2       1.0  0.9677178687741301  0.2756870113272429  0.9449018644458531  1.0000
  Ag  Ag3       1.0  0.46770133741153325  0.2242282705228931  0.9447976817649886  1.0000
  Ag  Ag4       1.0  0.9677808360542527  0.7757036226728998  0.0550889332613593  1.0000
  H   H1        1.0  0.7062292163619048  0.602741129102043  0.3869230402410721  1.0000
  H   H2        1.0  0.20589944926521037  0.3974011463365272  0.6129495085617336  1.0000
  H   H3        1.0  0.7062017247272292  0.10273280445624525  0.6130693612122114  1.0000
  H   H4        1.0  0.2059479524672838  0.8974086478013844  0.3870644850441776  1.0000
  H   H5        1.0  0.6984954714707214  0.5568316688205216  0.573878070084767  1.0000
  H   H6        1.0  0.19839046392421977  0.443193375781064  0.4262162002363041  1.0000
  H   H7        1.0  0.6984892777561029  0.056825737751950114  0.42611825043211116  1.0000
  H   H8        1.0  0.1984101832324824  0.9432108440028488  0.5737950612996556  1.0000
  H   H9        1.0  0.7670446848934772  0.4238437623020062  0.7167505849222664  1.0000
  H   H10       1.0  0.2670136260347178  0.5763273819714386  0.2834097121813954  1.0000
  H   H11       1.0  0.7670312613187277  0.9238293347998979  0.283232141197331  1.0000
  H   H12       1.0  0.26703457488903837  0.07634428107147072  0.7165943187032936  1.0000
  H   H13       1.0  0.9042234607579613  0.23902621075009736  0.6757846898208583  1.0000
  H   H14       1.0  0.4041014723590165  0.7610514530083349  0.32457864049019486  1.0000
  H   H15       1.0  0.9042630955414876  0.7390292880176403  0.324214675392291  1.0000
  H   H16       1.0  0.40409941912792385  0.26107639391958065  0.6754248207452989  1.0000
  H   H17       1.0  0.9545536318537131  0.1804362207729966  0.49243946634077657  1.0000
  H   H18       1.0  0.45459543503677924  0.8195793703914306  0.5078671370891994  1.0000
  H   H19       1.0  0.9546023581530746  0.6804476007297283  0.5075489547659088  1.0000
  H   H20       1.0  0.45457827905490683  0.31960342567708727  0.49213443371425564  1.0000
  H   H21       1.0  0.9297265334962146  0.22333148672478845  0.3002386308887779  1.0000
  H   H22       1.0  0.4300511651985842  0.7765729975885166  0.7000475722081133  1.0000
  H   H23       1.0  0.9297399313477894  0.7233297849749364  0.6997568691050375  1.0000
  H   H24       1.0  0.4300377965934031  0.27658376303893567  0.29994823904476675  1.0000
  C   C1        1.0  0.7834617607634229  0.5871035802487087  0.18801355975684686  1.0000
  C   C2        1.0  0.2833030240009293  0.4126699717156158  0.8119123015320894  1.0000
  C   C3        1.0  0.7834313245261979  0.08709951283677954  0.8119782739358353  1.0000
  C   C4        1.0  0.28335748034803027  0.9126674470104493  0.18809500574140253  1.0000
  C   C5        1.0  0.8911373261849604  0.34506170976339934  0.132607927264452  1.0000
  C   C6        1.0  0.3910197201517818  0.655079050254365  0.8675677744650939  1.0000
  C   C7        1.0  0.8911283148822304  0.845074827191084  0.8673891009729501  1.0000
  C   C8        1.0  0.3910317536688979  0.15508488633566492  0.13243872376899898  1.0000
  C   C9        1.0  0.8044980369339283  0.49406724936410756  0.2659258338154089  1.0000
  C   C10       1.0  0.30450031917442993  0.5058659338675325  0.734196021761832  1.0000
  C   C11       1.0  0.8044810458406957  0.9940574719071764  0.734052277975337  1.0000
  C   C12       1.0  0.3045368445345459  0.005867469980572102  0.2658176395069489  1.0000
  C   C13       1.0  0.7598275106890995  0.5204718825524709  0.3682358581312215  1.0000
  C   C14       1.0  0.25989963937266225  0.4795325966409508  0.6318442908246665  1.0000
  C   C15       1.0  0.7598087035999797  0.0204685928752397  0.6317461952614493  1.0000
  C   C16       1.0  0.25994098118322023  0.9795350621012348  0.36815767491899004  1.0000
  C   C17       1.0  0.7865492081551864  0.4445868169989494  0.4507399114219054  1.0000
  C   C18       1.0  0.2866115180079944  0.5554398221161136  0.5494331227769961  1.0000
  C   C19       1.0  0.7865367864023867  0.9445893324744151  0.5492579779644231  1.0000
  C   C20       1.0  0.2866344700544374  0.05545461207645991  0.45057731905535536  1.0000
  C   C21       1.0  0.752430068143326  0.47418416751806103  0.5563039330656991  1.0000
  C   C22       1.0  0.25248386596982897  0.5258052748716366  0.4438731329589629  1.0000
  C   C23       1.0  0.7524234694905586  0.9741738116403629  0.4437027887161449  1.0000
  C   C24       1.0  0.2525024954708783  0.0258213988085387  0.5561396600587613  1.0000
  C   C25       1.0  0.7906614774426683  0.4003957636390397  0.635705023721968  1.0000
  C   C26       1.0  0.29074833015571494  0.5996318128671804  0.36451625983379893  1.0000
  C   C27       1.0  0.7906686553465079  0.9003792556659678  0.36429413515994463  1.0000
  C   C28       1.0  0.2907591939960881  0.09964502364459801  0.6354958118852777  1.0000
  C   C29       1.0  0.8659896394333515  0.2945501167981988  0.6121152456338592  1.0000
  C   C30       1.0  0.3660736920236545  0.7054778786191845  0.38818982411380887  1.0000
  C   C31       1.0  0.8660080255132669  0.7945386675172375  0.3878760082204096  1.0000
  C   C32       1.0  0.3660673501960544  0.2054917988818375  0.6118144266967747  1.0000
  C   C33       1.0  0.8965071867674723  0.26229747397385245  0.5100276965777438  1.0000
  C   C34       1.0  0.3965900545602636  0.7377313587491231  0.4902539378190696  1.0000
  C   C35       1.0  0.8965306013239028  0.7622914625058004  0.4899579301112097  1.0000
  C   C36       1.0  0.3965786836885171  0.23775220278682954  0.5097433891829865  1.0000
  C   C37       1.0  0.8566795903983361  0.3358204861949901  0.42671418060752586  1.0000
  C   C38       1.0  0.3566930266566288  0.6641808814488643  0.5735357593150922  1.0000
  C   C39       1.0  0.8566738279266558  0.8358148767916094  0.5732720308106919  1.0000
  C   C40       1.0  0.3566973131527361  0.16419720291182222  0.4264709135462893  1.0000
  C   C41       1.0  0.8856523572829716  0.3071707794319138  0.320725133347004  1.0000
  C   C42       1.0  0.38550889511640907  0.6928017134568877  0.6795326142579012  1.0000
  C   C43       1.0  0.8856422307540298  0.8071772194057589  0.6792734468722228  1.0000
  C   C44       1.0  0.38551003829780933  0.19281422641284965  0.3204648253922996  1.0000
  C   C45       1.0  0.861704305260197  0.3837761537350985  0.24111949935038265  1.0000
  C   C46       1.0  0.3614356568459343  0.6162072177523826  0.7591498098531557  1.0000
  C   C47       1.0  0.8616953983155112  0.8837788578139298  0.7588948532519239  1.0000
  C   C48       1.0  0.3614520985415908  0.11621852225999162  0.24086824026554143  1.0000
  O   O1        1.0  0.6031026311344831  0.6163384988257478  0.17196532846103446  1.0000
  O   O2        1.0  0.1028995269225277  0.3834729567955649  0.8279466336570847  1.0000
  O   O3        1.0  0.6030646180383454  0.1163402775372333  0.8280267646557674  1.0000
  O   O4        1.0  0.10295855750165117  0.883484364379122  0.17205133576892703  1.0000
  O   O5        1.0  0.9446045542762391  0.6311423364769129  0.15478378426345776  1.0000
  O   O6        1.0  0.4443835748608009  0.3684114805870848  0.8449802123230936  1.0000
  O   O7        1.0  0.9445828804126534  0.1311384297043361  0.8452062625119579  1.0000
  O   O8        1.0  0.4444397639007107  0.8683989069850644  0.15503742942351548  1.0000
  O   O9        1.0  0.9589683783083981  0.40952030155849445  0.061863325330826086  1.0000
  O   O10       1.0  0.45918067127902157  0.5907030859753704  0.9382809196689762  1.0000
  O   O11       1.0  0.9589674627129554  0.9095345849029217  0.938116553169287  1.0000
  O   O12       1.0  0.4591650833878659  0.09069539446117862  0.06171881474071479  1.0000
  O   O13       1.0  0.8495776942707495  0.2447796085730545  0.10890350341291109  1.0000
  O   O14       1.0  0.3494727997115277  0.7553517702044987  0.8912530289612588  1.0000
  O   O15       1.0  0.8495738724292394  0.7448052021256191  0.891109826169142  1.0000
  O   O16       1.0  0.34951418295587894  0.25536820559310064  0.10876044826909488  1.0000
