data_image0
_chemical_formula_structural       Cd2B2H42C38N18O8
_chemical_formula_sum              "Cd2 B2 H42 C38 N18 O8"
_cell_length_a       8.461237045523845
_cell_length_b       8.862536721049347
_cell_length_c       16.904
_cell_angle_alpha    82.25873836159494
_cell_angle_beta     89.58714114821058
_cell_angle_gamma    78.42213350370808

_space_group_name_H-M_alt    "P 1"
_space_group_IT_number       1

loop_
  _space_group_symop_operation_xyz
  'x, y, z'

loop_
  _atom_site_type_symbol
  _atom_site_label
  _atom_site_symmetry_multiplicity
  _atom_site_fract_x
  _atom_site_fract_y
  _atom_site_fract_z
  _atom_site_occupancy
  Cd  Cd1       1.0  0.754082159859621  0.3238581776431176  0.21124043432160278  1.0000
  Cd  Cd2       1.0  0.24591552349397724  0.6761427528909536  0.7887594491609351  1.0000
  B   B1        1.0  0.17257532849492918  0.7687973931879882  0.12360635146487202  1.0000
  B   B2        1.0  0.8274247186406072  0.2312035373460901  0.8763935234920198  1.0000
  H   H1        1.0  0.04801972090658783  0.5189017933214046  0.21625631004503282  1.0000
  H   H2        1.0  0.951978901110401  0.4811002997989675  0.7837434879486267  1.0000
  H   H3        1.0  0.19852980851978694  0.7041750337401993  0.2975558658291463  1.0000
  H   H4        1.0  0.801469299952366  0.2958247342075779  0.7024440946166237  1.0000
  H   H5        1.0  0.14947058291048884  0.6113925089502388  0.9865480096965769  1.0000
  H   H6        1.0  0.8505277958789179  0.3886107467564344  0.013451707071027403  1.0000
  H   H7        1.0  0.36812862702546323  0.9484658050577438  0.198694637958198  1.0000
  H   H8        1.0  0.6318726020010316  0.051535125476327416  0.8013064158877939  1.0000
  H   H9        1.0  0.8958703368067801  0.8510945521443674  0.01303468556479  1.0000
  H   H10       1.0  0.1041297103287562  0.1489063783897109  0.9869651893921018  1.0000
  H   H11       1.0  0.45358864764852314  0.4633383063179295  0.3519054793982903  1.0000
  H   H12       1.0  0.5464085834968628  0.5366591364572457  0.648094652025236  1.0000
  H   H13       1.0  0.4546572037406591  0.5354558596374446  0.1008697608799949  1.0000
  H   H14       1.0  0.5453414182763296  0.4645462334829276  0.8991300371136648  1.0000
  H   H15       1.0  0.3992797194579084  0.9479856569161242  0.04766434579387641  1.0000
  H   H16       1.0  0.6007205709052101  0.05201411103164592  0.9523350188131161  1.0000
  H   H17       1.0  0.19288752404513326  0.2293224727137826  0.23582813537773722  1.0000
  H   H18       1.0  0.8071099160808898  0.7706796204065898  0.7641740331825773  1.0000
  H   H19       1.0  0.8777110928807729  0.9974525413659592  0.13170113243263165  1.0000
  H   H20       1.0  0.1222880155913799  0.0025472265818109  0.8682988280131383  1.0000
  H   H21       1.0  0.4942588744361486  0.8678567214079822  0.8975014078377085  1.0000
  H   H22       1.0  0.5057399908084221  0.13214420912608926  0.1024984713820061  1.0000
  H   H23       1.0  0.6716595609344508  0.6644331836841886  0.044710199558949205  1.0000
  H   H24       1.0  0.3283404862010855  0.3355677468498897  0.9552896753979426  1.0000
  H   H25       1.0  0.6726790045758337  0.3827873519831329  0.4831804769962673  1.0000
  H   H26       1.0  0.3273212857872849  0.6172124159646444  0.5168194791866867  1.0000
  H   H27       1.0  0.8650661102980948  0.5572241255059467  0.6266613614130706  1.0000
  H   H28       1.0  0.13493560518357134  0.4427744798555295  0.3733374885812069  1.0000
  H   H29       1.0  0.5443688191509538  0.1173154208782421  0.3519546462197312  1.0000
  H   H30       1.0  0.45563028932119926  0.882684347069528  0.6480459058020003  1.0000
  H   H31       1.0  0.8203077865521137  0.7146011076725145  0.3247490957786425  1.0000
  H   H32       1.0  0.17969226058342266  0.2853998228615637  0.6752495960263333  1.0000
  H   H33       1.0  0.6334948554508272  0.66969388668862  0.298168950823424  1.0000
  H   H34       1.0  0.3665037665661544  0.3303082064317593  0.701830255594281  1.0000
  H   H35       1.0  0.7153543726540121  0.8131535482660013  0.23505664281221067  1.0000
  H   H36       1.0  0.28464282424442894  0.18684970744067192  0.764942486642255  1.0000
  H   H37       1.0  0.47254351297042524  0.9386326501380823  0.4388693050290229  1.0000
  H   H38       1.0  0.5274598708573706  0.061363630050792  0.561132069458374  1.0000
  H   H39       1.0  0.46209921286071415  0.7564274749632036  0.4074903436568036  1.0000
  H   H40       1.0  0.5379036845119175  0.2435711303982728  0.5925108683784828  1.0000
  H   H41       1.0  0.6378031335378296  0.775807788572898  0.45963017080532614  1.0000
  H   H42       1.0  0.3622000070623841  0.2241896542022772  0.5403699393040995  1.0000
  C   C1        1.0  0.9767580865095765  0.582104634897725  0.1647972078186299  1.0000
  C   C2        1.0  0.023240778734994222  0.4178962956363463  0.8352026714010848  1.0000
  C   C3        1.0  0.28873323666015677  0.6332642449993744  0.2650258380484019  1.0000
  C   C4        1.0  0.711266115039578  0.3667343603621021  0.7349742036234234  1.0000
  C   C5        1.0  0.23246117745186007  0.6905355712765555  0.982411745097153  1.0000
  C   C6        1.0  0.7675360194465739  0.3094676844301176  0.01758797593326731  1.0000
  C   C7        1.0  0.2419287649563415  0.0022972705274569003  0.18826357104381233  1.0000
  C   C8        1.0  0.7580731937529067  0.9977001722477183  0.8117377264803523  1.0000
  C   C9        1.0  0.8937589323568956  0.755376496948621  0.059970630996971905  1.0000
  C   C10       1.0  0.10623968966009302  0.2446255961717583  0.9400297585726493  1.0000
  C   C11       1.0  0.41461007842827513  0.5130563094084195  0.2914330484483045  1.0000
  C   C12       1.0  0.5853878481529122  0.4869434585393578  0.7085669162602883  1.0000
  C   C13       1.0  0.4202280992456194  0.5480792216754793  0.1618304545437113  1.0000
  C   C14       1.0  0.5797719478899168  0.4519217088585919  0.8381694204131874  1.0000
  C   C15       1.0  0.3627872020522958  0.8666952976949602  0.012673685589518886  1.0000
  C   C16       1.0  0.6372173636664655  0.133300982493914  0.9873270930591005  1.0000
  C   C17       1.0  0.15373338531674108  0.14093103637636525  0.20669345094434283  1.0000
  C   C18       1.0  0.8462673915015418  0.85906640639881  0.7933084424185994  1.0000
  C   C19       1.0  0.9874892932719489  0.02507466130376911  0.15318090901313045  1.0000
  C   C20       1.0  0.012509328745039738  0.974927431816603  0.8468194805564836  1.0000
  C   C21       1.0  0.4099720598035858  0.8252514212967414  0.9391418670887005  1.0000
  C   C22       1.0  0.5900282305595326  0.17474834665102895  0.06085749751829181  1.0000
  C   C23       1.0  0.783787252724352  0.6608152151206994  0.07622597999594662  1.0000
  C   C24       1.0  0.21621397630214997  0.3391857154133789  0.9237738906981292  1.0000
  C   C25       1.0  0.840722473326757  0.36889095794734333  0.3825181380716671  1.0000
  C   C26       1.0  0.15927806026394364  0.631107647414133  0.6174813077613807  1.0000
  C   C27       1.0  0.924506883166991  0.4327378723334832  0.4439427979845121  1.0000
  C   C28       1.0  0.07549674388838672  0.56725724526909  0.5560580661529855  1.0000
  C   C29       1.0  0.9233658561116017  0.5315228301868444  0.571061933261511  1.0000
  C   C30       1.0  0.07663492070668103  0.4684746125883308  0.42893877694950794  1.0000
  C   C31       1.0  0.8464664821614745  0.4641370031055629  0.5162904274259219  1.0000
  C   C32       1.0  0.1535371448939031  0.5358581144970103  0.4837098451356213  1.0000
  C   C33       1.0  0.6061941745045588  0.0349973353684803  0.3125846993826187  1.0000
  C   C34       1.0  0.39380114506711555  0.965003595165598  0.6874151926255578  1.0000
  C   C35       1.0  0.7006908130966565  0.7635355275972557  0.29687911811466  1.0000
  C   C36       1.0  0.2993092340388728  0.23646540293681542  0.7031195736903229  1.0000
  C   C37       1.0  0.5426694911750402  0.8362192604445442  0.41584716532302923  1.0000
  C   C38       1.0  0.45733364942517346  0.1637781823306312  0.5841535363623508  1.0000
  N   N1        1.0  0.49634706453108635  0.4613781858172744  0.2259745174160699  1.0000
  N   N2        1.0  0.5036511052776831  0.5386204195442019  0.7740255285185783  1.0000
  N   N3        1.0  0.1346168591421915  0.9283472491479828  0.1542142870878251  1.0000
  N   N4        1.0  0.8653831879933449  0.0716536813860884  0.8457861794450281  1.0000
  N   N5        1.0  0.017274438377398817  0.7043924373781678  0.11684960850026023  1.0000
  N   N6        1.0  0.9827258519857198  0.2956073305696024  0.8831497561067325  1.0000
  N   N7        1.0  0.9945903562973442  0.1537008842881136  0.18416442685279583  1.0000
  N   N8        1.0  0.005412297847705375  0.8462988836596639  0.8158372955323898  1.0000
  N   N9        1.0  0.24840781163882744  0.780915030185817  0.03984042342445089  1.0000
  N   N10       1.0  0.7515922354967088  0.2190859003482544  0.9601594515324479  1.0000
  N   N11       1.0  0.8373147088269803  0.5523912542596676  0.14202644481926543  1.0000
  N   N12       1.0  0.16268533830854887  0.4476096762744106  0.857972838561672  1.0000
  N   N13       1.0  0.3273901766386301  0.7145301899082526  0.9208823987903116  1.0000
  N   N14       1.0  0.672607263487393  0.2854719032121196  0.07911681189020918  1.0000
  N   N15       1.0  0.29336329936011646  0.6553103689934121  0.18221641091361113  1.0000
  N   N16       1.0  0.7066358091120294  0.3446893989543653  0.8177835495321659  1.0000
  N   N17       1.0  0.6126810849002879  0.8847804901672092  0.34005918266812074  1.0000
  N   N18       1.0  0.3873192054628234  0.1152192777805681  0.6599407735148333  1.0000
  O   O1        1.0  0.7068165317512082  0.327776093471833  0.400388245531154  1.0000
  O   O2        1.0  0.2931825767209446  0.6722236744759371  0.5996111233386543  1.0000
  O   O3        1.0  0.6984633647104558  0.4312962653223309  0.5322847650797443  1.0000
  O   O4        1.0  0.3015395326621757  0.5687023400391453  0.46771467222767177  1.0000
  O   O5        1.0  0.9055078469430738  0.3632303252559481  0.31419275129762536  1.0000
  O   O6        1.0  0.09449126152907888  0.6367694426918292  0.6858066175721902  1.0000
  O   O7        1.0  0.665001426183963  0.0806323353757463  0.24763654149654  1.0000
  O   O8        1.0  0.33499365016012916  0.9193697577446258  0.7523638608615428  1.0000
