data_image0
_chemical_formula_structural       Zn4H44C44N12O20
_chemical_formula_sum              "Zn4 H44 C44 N12 O20"
_cell_length_a       7.372649005248472
_cell_length_b       10.793414527104973
_cell_length_c       16.08969354251772
_cell_angle_alpha    89.99797755988654
_cell_angle_beta     98.9669093606147
_cell_angle_gamma    90.00220262587813

_space_group_name_H-M_alt    "P 1"
_space_group_IT_number       1

loop_
  _space_group_symop_operation_xyz
  'x, y, z'

loop_
  _atom_site_type_symbol
  _atom_site_label
  _atom_site_symmetry_multiplicity
  _atom_site_fract_x
  _atom_site_fract_y
  _atom_site_fract_z
  _atom_site_occupancy
  Zn  Zn1       1.0  0.08990407684653692  0.19828887865593714  0.10182867815696993  1.0000
  Zn  Zn2       1.0  0.910046520027727  0.6982786828719512  0.39816429601860653  1.0000
  Zn  Zn3       1.0  0.9100869693003235  0.8017116909616321  0.8981656447983966  1.0000
  Zn  Zn4       1.0  0.08995159282300592  0.3017079892035284  0.6018335451413819  1.0000
  H   H1        1.0  0.6372931302200868  0.2529441041264349  0.9819746498737703  1.0000
  H   H2        1.0  0.36265469230278324  0.7529077493868357  0.5180186634326703  1.0000
  H   H3        1.0  0.36270652211128157  0.747096304288334  0.018025767609977105  1.0000
  H   H4        1.0  0.6373467593917682  0.24707151135312697  0.48196755702367977  1.0000
  H   H5        1.0  0.5868995180272094  0.4085628528791503  0.9498227135070253  1.0000
  H   H6        1.0  0.41306213713751566  0.9085250782408281  0.5501726444498161  1.0000
  H   H7        1.0  0.41312428702443793  0.591483113776718  0.050191538542939916  1.0000
  H   H8        1.0  0.5869494136720874  0.0914504761261341  0.4498216223702514  1.0000
  H   H9        1.0  0.6901430923883894  0.3760357523640963  0.05506788249986272  1.0000
  H   H10       1.0  0.309814391914351  0.8760041197397541  0.44492859949827596  1.0000
  H   H11       1.0  0.3098873691844518  0.6239870521586538  0.9449436460741439  1.0000
  H   H12       1.0  0.6901890064648414  0.12398625844185318  0.5550664387899007  1.0000
  H   H13       1.0  0.3661152305174512  0.055343848300069  0.07446120535056623  1.0000
  H   H14       1.0  0.6338399512266407  0.55534013133353  0.42553825226680436  1.0000
  H   H15       1.0  0.6338634621736929  0.944645603463485  0.9255324022011495  1.0000
  H   H16       1.0  0.36615799797655063  0.4446502468324951  0.5744570922456022  1.0000
  H   H17       1.0  0.19860858303060525  0.0140214508013869  0.0012184580965950013  1.0000
  H   H18       1.0  0.8013688127579146  0.5140112051906129  0.49877482445145205  1.0000
  H   H19       1.0  0.8013686147619411  0.9859772659702059  0.9987731975058055  1.0000
  H   H20       1.0  0.1986317583546295  0.4859745406082753  0.5012188065209955  1.0000
  H   H21       1.0  0.13804293600282594  0.35218824278175026  0.2663341531640242  1.0000
  H   H22       1.0  0.8619043967973995  0.8522022033130057  0.2336741768010455  1.0000
  H   H23       1.0  0.8619607071030161  0.6477836053918722  0.7336646300524094  1.0000
  H   H24       1.0  0.13808585053803313  0.14780207182734983  0.7663288049911403  1.0000
  H   H25       1.0  0.9202376483783542  0.4379700996405945  0.3589199530021149  1.0000
  H   H26       1.0  0.0796974919218627  0.9379907051957019  0.1410864272951642  1.0000
  H   H27       1.0  0.07976890387109851  0.5620054543613406  0.6410814858569296  1.0000
  H   H28       1.0  0.9202932481646897  0.0620339523625617  0.8589240445445085  1.0000
  H   H29       1.0  0.5913112248947031  0.37620336171764995  0.3298046006461703  1.0000
  H   H30       1.0  0.4086286845800445  0.87622563641321  0.1701945943281302  1.0000
  H   H31       1.0  0.4086925825501666  0.6237768247467201  0.6701966792578916  1.0000
  H   H32       1.0  0.5913660096243447  0.1238055066960797  0.8298136193287604  1.0000
  H   H33       1.0  0.8039979596527902  0.4736091489485261  0.855824864407275  1.0000
  H   H34       1.0  0.1959834943781829  0.9735367898229795  0.6441921592831221  1.0000
  H   H35       1.0  0.1960397348778145  0.5264414499941594  0.1441926791698833  1.0000
  H   H36       1.0  0.8040396095331842  0.0264267196855812  0.355811481688086  1.0000
  H   H37       1.0  0.2990526738078928  0.3038778594725429  0.9653464663342959  1.0000
  H   H38       1.0  0.7008989080301903  0.8038527824889599  0.5346570133608993  1.0000
  H   H39       1.0  0.7009625255911517  0.6961375332948236  0.03466169121809771  1.0000
  H   H40       1.0  0.2991076448043586  0.19613296291253596  0.4653444255320238  1.0000
  H   H41       1.0  0.1407476080918499  0.4471915327772393  0.8308527900393587  1.0000
  H   H42       1.0  0.8592348080409594  0.9471314556663373  0.6691624239896043  1.0000
  H   H43       1.0  0.8592831819994659  0.5528451688544109  0.1691637319006745  1.0000
  H   H44       1.0  0.14078704681546841  0.0528422451505293  0.3308430100252266  1.0000
  C   C1        1.0  0.686213947133041  0.3491783506027843  0.9890502051027641  1.0000
  C   C2        1.0  0.3137396808008077  0.849141789392867  0.5109471751579235  1.0000
  C   C3        1.0  0.31380537109519224  0.6508583514424373  0.010958190976040803  1.0000
  C   C4        1.0  0.6862663392217885  0.1508393239672614  0.48904614957489667  1.0000
  C   C5        1.0  0.43330293242136264  0.2088033324823684  0.21677000823466844  1.0000
  C   C6        1.0  0.5666418459279045  0.7088057633210383  0.28322014181249244  1.0000
  C   C7        1.0  0.5666908993887745  0.791190751659265  0.7832250978344961  1.0000
  C   C8        1.0  0.4333508189170204  0.2912012915379734  0.7167780056394903  1.0000
  C   C9        1.0  0.7647562698457905  0.19987352702634104  0.1859907781806314  1.0000
  C   C10       1.0  0.23519338325932182  0.6998811629047026  0.3140058720959616  1.0000
  C   C11       1.0  0.2352361480916728  0.8001140717150151  0.8140036242168024  1.0000
  C   C12       1.0  0.7648019856378739  0.3001249654871144  0.6859918101583347  1.0000
  C   C13       1.0  0.6330854774205292  0.2465079583318825  0.23195911352636503  1.0000
  C   C14       1.0  0.3668612133466667  0.7465184204614062  0.26803612161236157  1.0000
  C   C15       1.0  0.3669112219298612  0.7534787137794013  0.7680380239834648  1.0000
  C   C16       1.0  0.633133029284437  0.253496046161672  0.7319652261743388  1.0000
  C   C17       1.0  0.7274160875282761  0.09699368004461213  0.12197553995224551  1.0000
  C   C18       1.0  0.2725474207835675  0.5969929470444625  0.3780156947698359  1.0000
  C   C19       1.0  0.2725705131325782  0.9030041103666234  0.8780135512185012  1.0000
  C   C20       1.0  0.7274491155575621  0.40300854904779737  0.6219789461293674  1.0000
  C   C21       1.0  0.9939435066156008  0.3250619118191196  0.25856925017799887  1.0000
  C   C22       1.0  0.005999133876173299  0.8250713761620503  0.2414356990865798  1.0000
  C   C23       1.0  0.006057391792033701  0.6749164217986775  0.741429374089627  1.0000
  C   C24       1.0  0.9939938177774794  0.17493660496545968  0.7585668175233168  1.0000
  C   C25       1.0  0.8731897820287885  0.37210283587653953  0.3091890738317673  1.0000
  C   C26       1.0  0.1267541426283429  0.8721202323286192  0.1908159498003954  1.0000
  C   C27       1.0  0.12681531591481132  0.6278754976655847  0.6908110372213729  1.0000
  C   C28       1.0  0.873240509972682  0.1278997929220012  0.8091916396545573  1.0000
  C   C29       1.0  0.8696235638149689  0.36035873209391417  0.9626694210434368  1.0000
  C   C30       1.0  0.1303328845886753  0.8603278238416505  0.5373306097246486  1.0000
  C   C31       1.0  0.1303942583976649  0.6396677786510878  0.0373370230213652  1.0000
  C   C32       1.0  0.8696761672068052  0.1396523627971433  0.46266724313030494  1.0000
  C   C33       1.0  0.1598903636140747  0.3379874107195917  0.9498265176937722  1.0000
  C   C34       1.0  0.8400665887408041  0.837954268430373  0.550178516599864  1.0000
  C   C35       1.0  0.8401262496044525  0.6620335409571751  0.0501823435272684  1.0000
  C   C36       1.0  0.15994133636306174  0.16202684451273802  0.4498230017628444  1.0000
  C   C37       1.0  0.6903553119056411  0.33546367444836983  0.2940015069836762  1.0000
  C   C38       1.0  0.3095869051339903  0.8354823046109986  0.2059996870024392  1.0000
  C   C39       1.0  0.30964708209207004  0.6645174385426813  0.7059990692733038  1.0000
  C   C40       1.0  0.6904090382849049  0.1645414266625878  0.7940067336200728  1.0000
  C   C41       1.0  0.0829493817805442  0.4102894948123534  0.8836298716423345  1.0000
  C   C42       1.0  0.9170243933066119  0.9102375696507324  0.6163804894246853  1.0000
  C   C43       1.0  0.9170798717556252  0.5897444274778038  0.11638407414336174  1.0000
  C   C44       1.0  0.08299047619099302  0.0897398372451406  0.3836226746816038  1.0000
  N   N1        1.0  0.9389962094249215  0.24305853937703864  0.19738761148521183  1.0000
  N   N2        1.0  0.06095323942130191  0.7430589966795793  0.30261400130361693  1.0000
  N   N3        1.0  0.060997662818394416  0.7569262798241354  0.8026081187181191  1.0000
  N   N4        1.0  0.9390393840862148  0.2569415727751121  0.6973835219618254  1.0000
  N   N5        1.0  0.027202053924135314  0.3080916979463169  0.9986496476854186  1.0000
  N   N6        1.0  0.9727427807459111  0.8080727907027736  0.501347845139307  1.0000
  N   N7        1.0  0.9728087001484766  0.6919236950873184  0.0013532780915995097  1.0000
  N   N8        1.0  0.0272621945684079  0.19191017538899763  0.4986503934343034  1.0000
  N   N9        1.0  0.9011265763503362  0.4236017498312918  0.8933022723641104  1.0000
  N   N10       1.0  0.09884573652040982  0.9235517359176626  0.6067042732683277  1.0000
  N   N11       1.0  0.09889976825498084  0.5764321725940179  0.1067090177912959  1.0000
  N   N12       1.0  0.9011689689041235  0.0764219651417974  0.3932963941657236  1.0000
  O   O1        1.0  0.3361885104882703  0.27097021867147925  0.1567484647875261  1.0000
  O   O2        1.0  0.6637634464192034  0.7709637603343538  0.3432427227713148  1.0000
  O   O3        1.0  0.6638132695119978  0.7290192332139043  0.8432427490225224  1.0000
  O   O4        1.0  0.3362416116231302  0.22903310305692062  0.6567567641784535  1.0000
  O   O5        1.0  0.2313685786441226  0.05975766935993221  0.0558927667708886  1.0000
  O   O6        1.0  0.7685880316598318  0.5597511361472769  0.44409993385708907  1.0000
  O   O7        1.0  0.7686088235482914  0.9402336353258747  0.944102009631756  1.0000
  O   O8        1.0  0.23140854490170434  0.44023738904105153  0.5558953311639669  1.0000
  O   O9        1.0  0.3782463480802818  0.1300362571119393  0.263544518395264  1.0000
  O   O10       1.0  0.6216809875188645  0.6300471553142728  0.2364421343504475  1.0000
  O   O11       1.0  0.6217380401092284  0.8699624593852846  0.736452527952892  1.0000
  O   O12       1.0  0.37829496111235983  0.3699598997838862  0.7635513142894155  1.0000
  O   O13       1.0  0.8567193696821463  0.07596547887081331  0.078453647622716  1.0000
  O   O14       1.0  0.14325016349442174  0.5759529036326185  0.42154104496982114  1.0000
  O   O15       1.0  0.1432600412200316  0.9240434297052218  0.9215300528392449  1.0000
  O   O16       1.0  0.8567448769374908  0.4240402541411683  0.5784516439215396  1.0000
  O   O17       1.0  0.5814349517503388  0.03633106184274481  0.1161213097315681  1.0000
  O   O18       1.0  0.4185281266871785  0.5363399245888942  0.38386492575485687  1.0000
  O   O19       1.0  0.4185545576818016  0.963663948960729  0.8838704370602245  1.0000
  O   O20       1.0  0.5814698232606831  0.463663424449294  0.6161304188006725  1.0000
