data_image0
_chemical_formula_structural       Mn2P4H36C36N4O12
_chemical_formula_sum              "Mn2 P4 H36 C36 N4 O12"
_cell_length_a       7.661304909039644
_cell_length_b       10.824845484603959
_cell_length_c       10.988608172418779
_cell_angle_alpha    96.43318824751653
_cell_angle_beta     91.58673673870574
_cell_angle_gamma    94.85865455192705

_space_group_name_H-M_alt    "P 1"
_space_group_IT_number       1

loop_
  _space_group_symop_operation_xyz
  'x, y, z'

loop_
  _atom_site_type_symbol
  _atom_site_label
  _atom_site_symmetry_multiplicity
  _atom_site_fract_x
  _atom_site_fract_y
  _atom_site_fract_z
  _atom_site_occupancy
  Mn  Mn1       1.0  0.2395419621072606  0.9675462165896392  0.6561096626456405  1.0000
  Mn  Mn2       1.0  0.7604229665646828  0.0324991374376609  0.3439416063187366  1.0000
  P   P1        1.0  0.6587653108776126  0.14744240938913583  0.6244639538823975  1.0000
  P   P2        1.0  0.3412211569882544  0.8525655670531194  0.37553997934763583  1.0000
  P   P3        1.0  0.8572047703873552  0.8219426125593048  0.540123050253378  1.0000
  P   P4        1.0  0.1428360836258236  0.17805140432609792  0.4599077410862833  1.0000
  H   H1        1.0  0.9394269576070187  0.12902380946624703  0.6553067807142413  1.0000
  H   H2        1.0  0.060570890850250705  0.8709916248049937  0.34468909312011686  1.0000
  H   H3        1.0  0.6133359396132791  0.9060994813888997  0.605140709630753  1.0000
  H   H4        1.0  0.3866338711091473  0.09392155220062652  0.39485885821862626  1.0000
  H   H5        1.0  0.1511200891707958  0.23153781842297158  0.7903153338449516  1.0000
  H   H6        1.0  0.8488857705561444  0.7684365111757927  0.20963980835596635  1.0000
  H   H7        1.0  0.08804178591422841  0.3262628199095588  0.0019029279817460126  1.0000
  H   H8        1.0  0.9119408684129342  0.6737665606555937  0.9980495752169463  1.0000
  H   H9        1.0  0.1271746780240761  0.1987226959693231  0.17843113712431355  1.0000
  H   H10       1.0  0.8728002139368274  0.8012759178493738  0.8215469723003751  1.0000
  H   H11       1.0  0.23379273534541767  0.99130185990181  0.13824424517658682  1.0000
  H   H12       1.0  0.7661930466315356  0.008678993271907099  0.8617057499810132  1.0000
  H   H13       1.0  0.34534611098566614  0.8307770399485506  0.09534231435669235  1.0000
  H   H14       1.0  0.6546342842555859  0.16921315968523487  0.9046213349898483  1.0000
  H   H15       1.0  0.46316038934758547  0.6264267235873007  0.03030000594046814  1.0000
  H   H16       1.0  0.5368451391489658  0.37354478957981035  0.9696402615021783  1.0000
  H   H17       1.0  0.5050377758728217  0.565347384264733  0.804963446339109  1.0000
  H   H18       1.0  0.4949722846724427  0.4346287568596666  0.19494283543415492  1.0000
  H   H19       1.0  0.41317886248751284  0.7099841299047044  0.6562791059026056  1.0000
  H   H20       1.0  0.586796311593929  0.29004804105775867  0.3436662730101291  1.0000
  H   H21       1.0  0.7848592791628095  0.622073523015203  0.4245005098550579  1.0000
  H   H22       1.0  0.2151550436085898  0.37791776298535507  0.5755940679010579  1.0000
  H   H23       1.0  0.010694637898211595  0.6540775570078949  0.4636254675314576  1.0000
  H   H24       1.0  0.9893199338795002  0.345925806050225  0.5364212924335947  1.0000
  H   H25       1.0  0.09069185130074692  0.6670177737773173  0.702243407796381  1.0000
  H   H26       1.0  0.9093280820288354  0.3329762696502385  0.2978133612993475  1.0000
  H   H27       1.0  0.07446716258359493  0.5286864913372399  0.8683379323689026  1.0000
  H   H28       1.0  0.925579739657451  0.47130381298328666  0.13170986442603552  1.0000
  H   H29       1.0  0.8339085847436467  0.3583262188971048  0.8628409349381203  1.0000
  H   H30       1.0  0.1661197824982708  0.6416724696325177  0.13719648852105595  1.0000
  H   H31       1.0  0.6296756373928645  0.4646247021117703  0.5248825315917289  1.0000
  H   H32       1.0  0.37030207132345083  0.5353973217762729  0.4751664433706822  1.0000
  H   H33       1.0  0.5208875213302095  0.2795480505508507  0.7764641467820753  1.0000
  H   H34       1.0  0.47914497675721895  0.720389034392312  0.22356026001388332  1.0000
  H   H35       1.0  0.4648674122686602  0.30496729838393594  0.6241875750867723  1.0000
  H   H36       1.0  0.5351590422991136  0.6950687285943005  0.3758602588218737  1.0000
  C   C1        1.0  0.16975398639724662  0.18172275602893959  0.8699364081833496  1.0000
  C   C2        1.0  0.8302442999674542  0.8182749220972101  0.13003660417670201  1.0000
  C   C3        1.0  0.13378814358343052  0.23338814480135292  0.9873452497954036  1.0000
  C   C4        1.0  0.8661725940124896  0.7666225860571102  0.012622071109724698  1.0000
  C   C5        1.0  0.1571220810264222  0.1640600874827527  0.08513288552641281  1.0000
  C   C6        1.0  0.8428286249333398  0.8359329103047842  0.9148332089953755  1.0000
  C   C7        1.0  0.21774391369942953  0.04639660072281519  0.062281792294754716  1.0000
  C   C8        1.0  0.7821993561513381  0.9535889109767482  0.937666956037731  1.0000
  C   C9        1.0  0.25230735185475345  0.0007438174968044  0.9417790463389367  1.0000
  C   C10       1.0  0.7476747293837888  0.9992389171352727  0.0581847312207984  1.0000
  C   C11       1.0  0.31821135425641967  0.8768737781074307  0.9099817720483544  1.0000
  C   C12       1.0  0.6817697402527473  0.12312201517730158  0.08997704196297461  1.0000
  C   C13       1.0  0.3620314775683158  0.8005016871918543  0.9989708161765662  1.0000
  C   C14       1.0  0.637947311231642  0.19947543376021307  0.0009804522991814038  1.0000
  C   C15       1.0  0.4279002555850724  0.6868338981221527  0.9621773218191979  1.0000
  C   C16       1.0  0.5720995471965225  0.313144153328615  0.03776900607554271  1.0000
  C   C17       1.0  0.449488005475736  0.6517542190903924  0.83786257437216  1.0000
  C   C18       1.0  0.5505055101770325  0.3482256865663517  0.16207382061177367  1.0000
  C   C19       1.0  0.4003161890947382  0.7317276277874782  0.7546488459230076  1.0000
  C   C20       1.0  0.5996790991245506  0.2682877513699822  0.24529873915111017  1.0000
  C   C21       1.0  0.8787846110300921  0.6565686195312141  0.5005121600891728  1.0000
  C   C22       1.0  0.12124824715969851  0.3434245112779521  0.4995611470328924  1.0000
  C   C23       1.0  0.8605377600453538  0.5765707989260632  0.6034003401507065  1.0000
  C   C24       1.0  0.13946457506609286  0.423428852734631  0.3966667018270798  1.0000
  C   C25       1.0  0.9850519260776739  0.5932271896737049  0.7010094344684036  1.0000
  C   C26       1.0  0.014954177337053008  0.406781794448584  0.2990577917597861  1.0000
  C   C27       1.0  0.9741228708689392  0.5159919989604661  0.7943327225276919  1.0000
  C   C28       1.0  0.0258984503417707  0.48401324311992505  0.20572438730207676  1.0000
  C   C29       1.0  0.8387931694889729  0.4209686103917605  0.7917947641163965  1.0000
  C   C30       1.0  0.16121687356511671  0.5790403506310682  0.20825160716518815  1.0000
  C   C31       1.0  0.7124632154331395  0.40190150262471763  0.6949391531758382  1.0000
  C   C32       1.0  0.2875224309900376  0.5981214692537835  0.30512191366482716  1.0000
  C   C33       1.0  0.7250148884215336  0.4808852064089492  0.6020165770835676  1.0000
  C   C34       1.0  0.2749620827017907  0.519141494122003  0.3980419943513312  1.0000
  C   C35       1.0  0.574712217437181  0.29344510351437236  0.6869481070598482  1.0000
  C   C36       1.0  0.42530816408671523  0.7065629176376902  0.31309108693513116  1.0000
  N   N1        1.0  0.22690853464449393  0.0679302978140868  0.8468894953642732  1.0000
  N   N2        1.0  0.7731371927531401  0.9320813821589199  0.15308143981767594  1.0000
  N   N3        1.0  0.33581342688944466  0.8409861030427735  0.7895646153857215  1.0000
  N   N4        1.0  0.6641682197667651  0.15902461365638496  0.21038764929546971  1.0000
  O   O1        1.0  0.877943152375245  0.8814199521154579  0.4196362207086396  1.0000
  O   O2        1.0  0.12208182345322882  0.11847693725501073  0.5803281340511931  1.0000
  O   O3        1.0  0.5278352261824608  0.0386658623680134  0.6468449943414286  1.0000
  O   O4        1.0  0.47218947367301217  0.9613449015529479  0.35314362320901443  1.0000
  O   O5        1.0  0.9817560989936213  0.8756256722181207  0.6461689102262655  1.0000
  O   O6        1.0  0.018266903790603802  0.12438233903778688  0.35386123448525814  1.0000
  O   O7        1.0  0.7095042023589573  0.15982068913710626  0.49373816578368956  1.0000
  O   O8        1.0  0.2904818042228001  0.8402255272832447  0.5062480941729463  1.0000
  O   O9        1.0  0.8318707329243223  0.13822485111341362  0.7063427843824642  1.0000
  O   O10       1.0  0.1681228843247028  0.8617457732793384  0.29363810059724943  1.0000
  O   O11       1.0  0.6598591898970767  0.8221117283158462  0.5801971419251332  1.0000
  O   O12       1.0  0.3401858049321335  0.1779261383114772  0.419824870711075  1.0000
