data_image0
_chemical_formula_structural       Eu2H108C114N12O30
_chemical_formula_sum              "Eu2 H108 C114 N12 O30"
_cell_length_a       10.948594784019175
_cell_length_b       19.745268452147652
_cell_length_c       19.7463587175265
_cell_angle_alpha    120.00031128779145
_cell_angle_beta     89.99993342034877
_cell_angle_gamma    90.00021004422626

_space_group_name_H-M_alt    "P 1"
_space_group_IT_number       1

loop_
  _space_group_symop_operation_xyz
  'x, y, z'

loop_
  _atom_site_type_symbol
  _atom_site_label
  _atom_site_symmetry_multiplicity
  _atom_site_fract_x
  _atom_site_fract_y
  _atom_site_fract_z
  _atom_site_occupancy
  Eu  Eu1       1.0  0.35753669993822257  0.33333504968955213  0.6666692883388095  1.0000
  Eu  Eu2       1.0  0.6424623866096155  0.6666646544545998  0.33333130940527417  1.0000
  H   H1        1.0  0.9166982355666561  0.1421025655547937  0.6667376543824235  1.0000
  H   H2        1.0  0.9167020414691008  0.5246310975644307  0.8578963948821612  1.0000
  H   H3        1.0  0.9167045480981383  0.3332650577747742  0.4753693994108303  1.0000
  H   H4        1.0  0.08330267770331548  0.8578982298534327  0.33326286504238584  1.0000
  H   H5        1.0  0.0832979584405038  0.47536919139459144  0.14210361811289135  1.0000
  H   H6        1.0  0.0832963651706891  0.6667352311852851  0.5246306135844492  1.0000
  H   H7        1.0  0.9624125203719911  0.09280921526279703  0.7571583423471397  1.0000
  H   H8        1.0  0.9624106010537615  0.664350407486154  0.9071891700897866  1.0000
  H   H9        1.0  0.962409803685851  0.2428428988456446  0.33565435148651096  1.0000
  H   H10       1.0  0.037587479537613405  0.9071910736962251  0.24284167064791268  1.0000
  H   H11       1.0  0.0375903122126431  0.3356490826188292  0.09281062885059305  1.0000
  H   H12       1.0  0.0375901962226095  0.7571568836652035  0.664345155079019  1.0000
  H   H13       1.0  0.8187365238134915  0.11982703902880598  0.8660092919829624  1.0000
  H   H14       1.0  0.8187340144642262  0.7461921285485218  0.8801752657209363  1.0000
  H   H15       1.0  0.8187299034015041  0.1339877347147862  0.2538173932510333  1.0000
  H   H16       1.0  0.18126347609369017  0.8801724510751325  0.13399050695719697  1.0000
  H   H17       1.0  0.18126598544410646  0.2538078680035838  0.11982503964875241  1.0000
  H   H18       1.0  0.18127009650567769  0.8660117553891524  0.7461824056891262  1.0000
  H   H19       1.0  0.6282127662155261  0.19645619914452103  0.8829973689783019  1.0000
  H   H20       1.0  0.6282099038438529  0.6865507645288673  0.803545752118936  1.0000
  H   H21       1.0  0.6282076182278046  0.11699459408661994  0.3134522412898662  1.0000
  H   H22       1.0  0.3717872336928067  0.8035437974075847  0.11700293639137989  1.0000
  H   H23       1.0  0.3717900960669027  0.31345003087832174  0.19645476730564582  1.0000
  H   H24       1.0  0.37179238168295103  0.8830062013205692  0.6865482781347156  1.0000
  H   H25       1.0  0.5799419799804751  0.24208066836085612  0.7895453374142178  1.0000
  H   H26       1.0  0.5799457634360862  0.5474681756925862  0.7579187894679082  1.0000
  H   H27       1.0  0.5799458808688838  0.21044565154385003  0.4525289809876655  1.0000
  H   H28       1.0  0.4200580199279854  0.7579191141499989  0.21045416915131207  1.0000
  H   H29       1.0  0.42005423647351847  0.4525321132664359  0.24208122352714415  1.0000
  H   H30       1.0  0.4200541190394489  0.7895543450082626  0.5474713243820162  1.0000
  H   H31       1.0  0.6521286166007129  0.2727233785328239  0.6913519118538006  1.0000
  H   H32       1.0  0.6521299751209992  0.41862569840254354  0.7272803774300345  1.0000
  H   H33       1.0  0.6521361572216406  0.30864373302245707  0.5813688808485723  1.0000
  H   H34       1.0  0.34787046994839693  0.7272766180182442  0.3086483935156608  1.0000
  H   H35       1.0  0.3478700247873333  0.5813742981495621  0.2727199279396474  1.0000
  H   H36       1.0  0.347863842687964  0.6913565559365651  0.4186311321464872  1.0000
  H   H37       1.0  0.800295518769687  0.24202890979525207  0.6490349519733203  1.0000
  H   H38       1.0  0.8002977774584964  0.40700116844072926  0.7579742499822049  1.0000
  H   H39       1.0  0.8003023312360822  0.3509643291183835  0.592991999292174  1.0000
  H   H40       1.0  0.1997053944979967  0.7579708727166478  0.3509645545924373  1.0000
  H   H41       1.0  0.1997022224498366  0.5929988281113765  0.24202605538747698  1.0000
  H   H42       1.0  0.19969858203146626  0.6490356674347666  0.40700830607773514  1.0000
  H   H43       1.0  0.3334802230281467  0.15619730741499896  0.5094296505395661  1.0000
  H   H44       1.0  0.33347687209035826  0.3532292035412823  0.8438075934527802  1.0000
  H   H45       1.0  0.3334802724123094  0.4905720867259901  0.6467699819949149  1.0000
  H   H46       1.0  0.6665197768814649  0.8438029815440232  0.4905703624554862  1.0000
  H   H47       1.0  0.6665231278168307  0.6467702865626563  0.15619220548737905  1.0000
  H   H48       1.0  0.6665197274948794  0.5094274033779485  0.35322981694523764  1.0000
  H   H49       1.0  0.24442292496067344  0.053760315526702185  0.38342439867564343  1.0000
  H   H50       1.0  0.24441776957009148  0.32966399192452667  0.9462415490693276  1.0000
  H   H51       1.0  0.24442083377300608  0.6165787428854089  0.6703354432914639  1.0000
  H   H52       1.0  0.7555770749489312  0.9462399734323198  0.6165756143194089  1.0000
  H   H53       1.0  0.7555813169802901  0.670336297033458  0.053758463925497386  1.0000
  H   H54       1.0  0.7555791661353267  0.3834212536666969  0.32966486207821794  1.0000
  H   H55       1.0  0.3731575390855112  0.9395793775775019  0.29263067645138835  1.0000
  H   H56       1.0  0.3731512744585642  0.35305365027094376  0.06041868561151635  1.0000
  H   H57       1.0  0.37315183388388107  0.707375193809817  0.6469484342864931  1.0000
  H   H58       1.0  0.6268424608240932  0.06042091138152038  0.7073693365436641  1.0000
  H   H59       1.0  0.6268487254510404  0.6469466386880782  0.939581327383543  1.0000
  H   H60       1.0  0.6268481660244518  0.2926248027422887  0.3530518710831886  1.0000
  H   H61       1.0  0.5824747243412033  0.9250635811428507  0.33035397062452915  1.0000
  H   H62       1.0  0.5824668780901446  0.4052902595424896  0.07492903768780222  1.0000
  H   H63       1.0  0.5824690363447826  0.669649311022191  0.5947085731078732  1.0000
  H   H64       1.0  0.41752527556712943  0.07493641540925483  0.6696463347451527  1.0000
  H   H65       1.0  0.41753312181946  0.5947100294165325  0.9250709753072572  1.0000
  H   H66       1.0  0.4175309635636779  0.3303504714886643  0.40529093345765693  1.0000
  H   H67       1.0  0.7854716958593355  0.9778497554774005  0.359070609911747  1.0000
  H   H68       1.0  0.7854691606206075  0.381213355049951  0.02214761034940691  1.0000
  H   H69       1.0  0.7854721365984288  0.6409353929355319  0.6187798650159666  1.0000
  H   H70       1.0  0.21452739069105317  0.022150533480584187  0.6409294030830851  1.0000
  H   H71       1.0  0.21453083928772537  0.6187866415021546  0.9778526950202748  1.0000
  H   H72       1.0  0.21452786331117574  0.3590648960234901  0.3812201479790929  1.0000
  H   H73       1.0  0.7419133414773212  0.9117584539833956  0.3920828837001339  1.0000
  H   H74       1.0  0.7419113182207511  0.48031968063252606  0.08823124486050206  1.0000
  H   H75       1.0  0.7419131163087797  0.6079187790737208  0.5196813140772107  1.0000
  H   H76       1.0  0.2580866584310115  0.08824154256871004  0.6079174216695479  1.0000
  H   H77       1.0  0.2580895950469326  0.5196801018793664  0.9117682617052482  1.0000
  H   H78       1.0  0.25808779696004785  0.3920815098863386  0.4803186989180689  1.0000
  H   H79       1.0  0.8748188097972258  0.8828986828087153  0.46529111726140854  1.0000
  H   H80       1.0  0.8748254862634963  0.5823878326106352  0.11709391528226115  1.0000
  H   H81       1.0  0.8748204477442414  0.5347081422561003  0.41761423081018734  1.0000
  H   H82       1.0  0.1251821034703298  0.11710131374443479  0.5347091881085007  1.0000
  H   H83       1.0  0.1251745136448363  0.4176121639414705  0.8829063900874206  1.0000
  H   H84       1.0  0.1251795521653634  0.4652921467029217  0.5823857821848649  1.0000
  H   H85       1.0  0.9992177575561384  0.1562724330054196  0.4661282220556232  1.0000
  H   H86       1.0  0.9992114776334657  0.30985526060287333  0.8437316660834568  1.0000
  H   H87       1.0  0.9992160326694588  0.5338699675922031  0.6901358474935722  1.0000
  H   H88       1.0  0.0007822423534661996  0.8437278559536024  0.5338717909394292  1.0000
  H   H89       1.0  0.0007885222748668999  0.6901447359492323  0.15626863928622478  1.0000
  H   H90       1.0  0.0007848805980970002  0.4661300289609471  0.3098644578763371  1.0000
  H   H91       1.0  0.841544484877268  0.1356147477768063  0.4681008974715369  1.0000
  H   H92       1.0  0.8415392420135889  0.3324877058120777  0.8643874784704978  1.0000
  H   H93       1.0  0.8415455875837735  0.5318951181463945  0.6675047685030722  1.0000
  H   H94       1.0  0.1584555150334879  0.8643860476303827  0.5318996219530447  1.0000
  H   H95       1.0  0.15846075789601594  0.6675125831469443  0.13561253452455457  1.0000
  H   H96       1.0  0.15845532568619797  0.46810567726183894  0.33249575092173705  1.0000
  H   H97       1.0  0.9268831949007106  0.07972637653532641  0.3824444117474997  1.0000
  H   H98       1.0  0.9268797172602775  0.3027100893072119  0.9202704444589855  1.0000
  H   H99       1.0  0.9268855586712659  0.6175586300732122  0.6972790926586117  1.0000
  H   H100      1.0  0.07311680500889389  0.9202739124236955  0.6175556012475526  1.0000
  H   H101      1.0  0.07312028264818339  0.6972896932036432  0.07972906210654433  1.0000
  H   H102      1.0  0.07311626795436149  0.38244086003280847  0.3027207062819955  1.0000
  H   H103      1.0  0.7011253595617645  0.10823954502158993  0.5652613667696188  1.0000
  H   H104      1.0  0.701127085678884  0.4570140634416547  0.8917543912158977  1.0000
  H   H105      1.0  0.7011228095752385  0.4347364085317835  0.5429813185771977  1.0000
  H   H106      1.0  0.29887464034542427  0.8917599450823487  0.4347384321705333  1.0000
  H   H107      1.0  0.29887200086908183  0.5429854266612394  0.1082454077240343  1.0000
  H   H108      1.0  0.2988771903330942  0.5652635880203222  0.4570189867924841  1.0000
  C   C1        1.0  0.8524835899423167  0.15317437762357156  0.7135234066822634  1.0000
  C   C2        1.0  0.8524866244672038  0.5603468662828419  0.8468233963422734  1.0000
  C   C3        1.0  0.8524870571694475  0.28647640146288483  0.43965340300491823  1.0000
  C   C4        1.0  0.14751640996614404  0.8468254048872835  0.2864760998832666  1.0000
  C   C5        1.0  0.14751337544240778  0.43965342267618013  0.15317661665277885  1.0000
  C   C6        1.0  0.14751294273901286  0.7135233810479704  0.5603461035606119  1.0000
  C   C7        1.0  0.8783826590978803  0.12552073767882652  0.7646522502112775  1.0000
  C   C8        1.0  0.8783815034966977  0.6391336000525598  0.8744777740212727  1.0000
  C   C9        1.0  0.8783816175937176  0.23534717633272362  0.3608704723939838  1.0000
  C   C10       1.0  0.12161734081173138  0.8744795512801956  0.23534776278378203  1.0000
  C   C11       1.0  0.12161849641290698  0.3608666889064622  0.12552223897378678  1.0000
  C   C12       1.0  0.1216183823134642  0.7646523137712224  0.6391293265461757  1.0000
  C   C13       1.0  0.7980316957576575  0.14100725864709332  0.825765012760087  1.0000
  C   C14       1.0  0.7980298065530673  0.684764267894522  0.8589936095416777  1.0000
  C   C15       1.0  0.7980286856294041  0.17423160315966163  0.31524195071264677  1.0000
  C   C16       1.0  0.20196830415067515  0.8589927379050124  0.1742352926095948  1.0000
  C   C17       1.0  0.20197019335527236  0.3152357286575834  0.14100669582800407  1.0000
  C   C18       1.0  0.20197131427778459  0.8257678869442842  0.6847578482275126  1.0000
  C   C19       1.0  0.6912893621259356  0.18385848279698566  0.8353278478958263  1.0000
  C   C20       1.0  0.6912881891462062  0.6514765386628055  0.8161426900147576  1.0000
  C   C21       1.0  0.6912870671573825  0.16466579618702332  0.3485268393681978  1.0000
  C   C22       1.0  0.3087106377823971  0.8161415137551201  0.16467245747385562  1.0000
  C   C23       1.0  0.3087108974053264  0.3485242567433461  0.18385782940959672  1.0000
  C   C24       1.0  0.3087129327509501  0.8353342003650823  0.651473466001484  1.0000
  C   C25       1.0  0.6645719201469902  0.2103344039125332  0.783304358674748  1.0000
  C   C26       1.0  0.6645731132420067  0.5729729336778464  0.789666715491194  1.0000
  C   C27       1.0  0.664574140128572  0.21669011501218458  0.427026518340405  1.0000
  C   C28       1.0  0.33542899312170954  0.7896660990887837  0.21669645312468336  1.0000
  C   C29       1.0  0.33542688666747716  0.4270275693224264  0.21033409630801012  1.0000
  C   C30       1.0  0.335425859779761  0.7833098815399211  0.5729737870292768  1.0000
  C   C31       1.0  0.7453192835430329  0.19555493331076004  0.7223688177885352  1.0000
  C   C32       1.0  0.7453212070744968  0.526812998818265  0.8044444465355556  1.0000
  C   C33       1.0  0.745323468850934  0.27762753541787794  0.4731856356405615  1.0000
  C   C34       1.0  0.25468071636529993  0.8044450632413457  0.2776314875811465  1.0000
  C   C35       1.0  0.2546778794746131  0.4731869977328031  0.195555858833906  1.0000
  C   C36       1.0  0.25467653105867777  0.7223727535411442  0.5268143773544978  1.0000
  C   C37       1.0  0.7158161053735626  0.22335448941118596  0.6655083571758311  1.0000
  C   C38       1.0  0.7158176264730756  0.44214976045158494  0.7766457069486634  1.0000
  C   C39       1.0  0.7158220656847121  0.3344880571588503  0.5578458478129846  1.0000
  C   C40       1.0  0.28418389453604215  0.7766457995478361  0.334491655819221  1.0000
  C   C41       1.0  0.2841823734352573  0.5578502361005206  0.22335459842101812  1.0000
  C   C42       1.0  0.28417884758284356  0.6655119393942925  0.4421544575569244  1.0000
  C   C43       1.0  0.5539541627852812  0.16872663259616172  0.5642425079262879  1.0000
  C   C44       1.0  0.5539528073639487  0.3955112368292647  0.8312720457174266  1.0000
  C   C45       1.0  0.5539577442541556  0.43575873511438357  0.6044895042335484  1.0000
  C   C46       1.0  0.4460449237626847  0.8312728575067396  0.43575729101364424  1.0000
  C   C47       1.0  0.44604810590373484  0.6044885456826277  0.1687274608483308  1.0000
  C   C48       1.0  0.4460422556543051  0.5642410473964716  0.39551000233198164  1.0000
  C   C49       1.0  0.5073178924241688  0.10078037237020249  0.49127034642830136  1.0000
  C   C50       1.0  0.5073184246594876  0.3904865716461075  0.8992176438044909  1.0000
  C   C51       1.0  0.5073191185389446  0.5087316264287268  0.6095128953979981  1.0000
  C   C52       1.0  0.49268210748301294  0.899219117733736  0.5087294525118581  1.0000
  C   C53       1.0  0.4926824886093397  0.609513717313952  0.10078236919078891  1.0000
  C   C54       1.0  0.49268088137066  0.4912686625302951  0.3904871175970612  1.0000
  C   C55       1.0  0.38744684124170437  0.10577645928818674  0.4691265598662185  1.0000
  C   C56       1.0  0.38744633588335375  0.36334743651539725  0.8942248839548557  1.0000
  C   C57       1.0  0.387447159238846  0.5308757061416429  0.6366519637407181  1.0000
  C   C58       1.0  0.6125522453061336  0.894223244855965  0.5308740378778654  1.0000
  C   C59       1.0  0.612553664026251  0.6366528524436247  0.10577512904019666  1.0000
  C   C60       1.0  0.6125528406696147  0.4691240763692122  0.363347542824812  1.0000
  C   C61       1.0  0.33815820847029693  0.04855415315501688  0.3987502310548622  1.0000
  C   C62       1.0  0.33815406216487526  0.3501961329788585  0.9514465933991333  1.0000
  C   C63       1.0  0.3381570346269314  0.6012531627679465  0.6498035446363347  1.0000
  C   C64       1.0  0.661841791438043  0.9514458433970887  0.6012500743148195  1.0000
  C   C65       1.0  0.6618459377434575  0.649803863573254  0.048553711970555635  1.0000
  C   C66       1.0  0.6618429652815293  0.3987466197429014  0.3501959619291953  1.0000
  C   C67       1.0  0.4100838295902847  0.9845446289193303  0.34832770734082913  1.0000
  C   C68       1.0  0.41007847023068683  0.3637836443148359  0.015453513350536234  1.0000
  C   C69       1.0  0.4100806008378298  0.6516768007812246  0.6362168378915244  1.0000
  C   C70       1.0  0.589916170318176  0.015455153591524641  0.651671799224701  1.0000
  C   C71       1.0  0.5899215296776461  0.6362163522372696  0.9845467920191454  1.0000
  C   C72       1.0  0.5899193990706307  0.3483229817296305  0.36378266867400555  1.0000
  C   C73       1.0  0.5287958195693391  0.9765723672701299  0.36904156369140406  1.0000
  C   C74       1.0  0.5287905948018973  0.3924686278368198  0.023421830276696285  1.0000
  C   C75       1.0  0.5287926002709327  0.6309617381436325  0.6075314213428414  1.0000
  C   C76       1.0  0.4712041803378497  0.023427122833816063  0.6309582352487554  1.0000
  C   C77       1.0  0.4712084917472125  0.6075313687142485  0.9765784750927582  1.0000
  C   C78       1.0  0.47120739963867203  0.3690385508153895  0.3924685916522108  1.0000
  C   C79       1.0  0.5774509251365672  0.033865137393704045  0.44057145128555675  1.0000
  C   C80       1.0  0.5774488694503503  0.40670476505352604  0.966130710667443  1.0000
  C   C81       1.0  0.5774488508964666  0.5594290069851411  0.593293611956817  1.0000
  C   C82       1.0  0.4225481614113988  0.9661343527091971  0.5594283476543753  1.0000
  C   C83       1.0  0.4225511304568385  0.5932947250504127  0.033869088272709326  1.0000
  C   C84       1.0  0.4225502356527712  0.4405707755246694  0.4067058946084856  1.0000
  C   C85       1.0  0.7771545686333852  0.9705122824928621  0.4106473159552522  1.0000
  C   C86       1.0  0.7771513854519296  0.44012963231234886  0.02948143519257229  1.0000
  C   C87       1.0  0.7771531517162769  0.5893539496372283  0.5598678870168571  1.0000
  C   C88       1.0  0.2228445179157248  0.029487714058205956  0.5893529894142021  1.0000
  C   C89       1.0  0.2228486144565237  0.5598701501985062  0.9705180713729578  1.0000
  C   C90       1.0  0.22284684819205577  0.41064604691487716  0.4401324183528246  1.0000
  C   C91       1.0  0.8945084458903378  0.9858302592028992  0.45491954914750493  1.0000
  C   C92       1.0  0.8945035433719395  0.46908692563845716  0.014165147111960194  1.0000
  C   C93       1.0  0.8945059949717798  0.5450806781859469  0.5309124566910484  1.0000
  C   C94       1.0  0.10549155401799479  0.014169737349206653  0.5450807562221769  1.0000
  C   C95       1.0  0.10549554317844917  0.5309133633195272  0.9858348658828717  1.0000
  C   C96       1.0  0.10549400493655266  0.4549193183661587  0.46908784867863323  1.0000
  C   C97       1.0  0.9302498224492766  0.9346302958839132  0.48083691528712086  1.0000
  C   C98       1.0  0.9302526249082064  0.5462033519731335  0.06536458597012286  1.0000
  C   C99       1.0  0.9302512162601815  0.5191641021780455  0.4537989516307591  1.0000
  C   C100      1.0  0.06975017745905629  0.06536970066819242  0.5191633900825607  1.0000
  C   C101      1.0  0.0697473750013984  0.4537969369858884  0.9346354270249293  1.0000
  C   C102      1.0  0.0697496970097902  0.480836693230188  0.54620156779405  1.0000
  C   C103      1.0  0.9649225950676266  0.052800367440589566  0.47392374685141203  1.0000
  C   C104      1.0  0.964916925626774  0.4211229202315111  0.9471985119044747  1.0000
  C   C105      1.0  0.9649213111092578  0.5260758540883614  0.5788738796566691  1.0000
  C   C106      1.0  0.0350774048407061  0.9471996291115162  0.5260765585182697  1.0000
  C   C107      1.0  0.03508307428283079  0.578877368727511  0.05280150109058476  1.0000
  C   C108      1.0  0.035079602158297994  0.47392414246478143  0.42112642571323994  1.0000
  C   C109      1.0  0.9317788305354141  0.10914317839597491  0.446677378532975  1.0000
  C   C110      1.0  0.9317727285402171  0.33753215391990943  0.89085766165978  1.0000
  C   C111      1.0  0.9317782478790873  0.5533226833303005  0.6624600608810739  1.0000
  C   C112      1.0  0.0682211693729187  0.8908568181561307  0.5533229268367068  1.0000
  C   C113      1.0  0.0682272713693877  0.6624681350391128  0.10914235133527242  1.0000
  C   C114      1.0  0.06822266538974019  0.446677605629766  0.3375399521142057  1.0000
  N   N1        1.0  0.6585684443728537  0.1612800388191148  0.5950623250287563  1.0000
  N   N2        1.0  0.6585690913250986  0.43377728453247505  0.8387180020130957  1.0000
  N   N3        1.0  0.6585701939713642  0.4049368139003704  0.5662215683297802  1.0000
  N   N4        1.0  0.3414315555354789  0.838719957732991  0.4049379803409254  1.0000
  N   N5        1.0  0.34143090858323427  0.5662227120196305  0.16128230335658603  1.0000
  N   N6        1.0  0.3414298059370964  0.5950629686104846  0.4337779382357496  1.0000
  N   N7        1.0  0.21932531125811747  0.2734735420148198  0.5198810075101079  1.0000
  N   N8        1.0  0.21932317907586446  0.24640290588107677  0.7265290435475366  1.0000
  N   N9        1.0  0.2193239240482328  0.48012932030419375  0.7535976335562895  1.0000
  N   N10       1.0  0.7806746886502153  0.7265264545372858  0.48011929785957375  1.0000
  N   N11       1.0  0.7806759074745172  0.753597383076908  0.2734709694472956  1.0000
  N   N12       1.0  0.7806760758590767  0.5198699557584944  0.24640136657971828  1.0000
  O   O1        1.0  0.4969442882773478  0.2332120554045789  0.5948802449155651  1.0000
  O   O2        1.0  0.4969399668361304  0.36166401132486947  0.7667917302489544  1.0000
  O   O3        1.0  0.4969530318532874  0.4051243735981984  0.6383401643828962  1.0000
  O   O4        1.0  0.5030547982680744  0.7667868498844895  0.40512013877361164  1.0000
  O   O5        1.0  0.5030600330734742  0.6383362776341528  0.2332082827461051  1.0000
  O   O6        1.0  0.5030469680538942  0.5948751165057402  0.361659634557256  1.0000
  O   O7        1.0  0.69167010763757  0.028990032480749196  0.4648437385224754  1.0000
  O   O8        1.0  0.6916681847801199  0.4358536369154893  0.9710069117698198  1.0000
  O   O9        1.0  0.6916680250307435  0.5351543249028267  0.5641444874945664  1.0000
  O   O10       1.0  0.30832897890912386  0.9710091652152358  0.5351563527920861  1.0000
  O   O11       1.0  0.3083318151283406  0.5641461455953658  0.028992594795710067  1.0000
  O   O12       1.0  0.308331974877717  0.4648454576080283  0.4358550190709637  1.0000
  O   O13       1.0  0.19136270269914488  0.2548574014478078  0.5719748900112052  1.0000
  O   O14       1.0  0.19136090102746545  0.3171153939062564  0.7451440641952731  1.0000
  O   O15       1.0  0.19136407310390519  0.42803237088182317  0.6828882033257104  1.0000
  O   O16       1.0  0.8086363838511089  0.7451431015514272  0.42802592178777843  1.0000
  O   O17       1.0  0.8086381855216443  0.682884602644812  0.25485624117418143  1.0000
  O   O18       1.0  0.8086359268021397  0.5719666127739487  0.31711108918491965  1.0000
  O   O19       1.0  0.31624928951075754  0.31559012449287155  0.5341134977854411  1.0000
  O   O20       1.0  0.3162460712533814  0.21851876885051522  0.6844131104508193  1.0000
  O   O21       1.0  0.31624952833973197  0.4658981615335521  0.7814791796624833  1.0000
  O   O22       1.0  0.6837516237545032  0.6844088591639377  0.46588579472540925  1.0000
  O   O23       1.0  0.6837530152970003  0.7814815201074623  0.31558690254401267  1.0000
  O   O24       1.0  0.6837504715711445  0.5341024198323865  0.2185205409579468  1.0000
  O   O25       1.0  0.15789641498787427  0.25206123732796476  0.4602337237480044  1.0000
  O   O26       1.0  0.1578950558080763  0.20816434932370956  0.7479403229458086  1.0000
  O   O27       1.0  0.15788971353380526  0.5397780032209596  0.7918345479916697  1.0000
  O   O28       1.0  0.8421026715636514  0.7479395580781796  0.5397667956763499  1.0000
  O   O29       1.0  0.8421040307400175  0.7918349267379341  0.25205867718997166  1.0000
  O   O30       1.0  0.8421093730155604  0.4602215652476005  0.20816415976948122  1.0000
