data_image0
_chemical_formula_structural       Zn2H40C52N12O20
_chemical_formula_sum              "Zn2 H40 C52 N12 O20"
_cell_length_a       9.493830269284445
_cell_length_b       10.32886951550805
_cell_length_c       14.29455639783705
_cell_angle_alpha    109.3785025387804
_cell_angle_beta     94.67455546179343
_cell_angle_gamma    103.97233763453227

_space_group_name_H-M_alt    "P 1"
_space_group_IT_number       1

loop_
  _space_group_symop_operation_xyz
  'x, y, z'

loop_
  _atom_site_type_symbol
  _atom_site_label
  _atom_site_symmetry_multiplicity
  _atom_site_fract_x
  _atom_site_fract_y
  _atom_site_fract_z
  _atom_site_occupancy
  Zn  Zn1       1.0  0.895499950856255  0.14067393851734525  0.11284310797445582  1.0000
  Zn  Zn2       1.0  0.10450191095228703  0.8593264048010456  0.8871584582749606  1.0000
  H   H1        1.0  0.43137948665478376  0.5051911190666376  0.5725991127530465  1.0000
  H   H2        1.0  0.5686208256238243  0.49481460234988356  0.4274036876604442  1.0000
  H   H3        1.0  0.24488957951827228  0.4476289745236672  0.5838543794387407  1.0000
  H   H4        1.0  0.7551101064350904  0.5523746000766679  0.4161492682058141  1.0000
  H   H5        1.0  0.30079877014330236  0.709242920842172  0.6927004743953094  1.0000
  H   H6        1.0  0.6991999284021944  0.29075744625045996  0.3073009468929941  1.0000
  H   H7        1.0  0.48660384436843873  0.7528967709795966  0.6744906510138124  1.0000
  H   H8        1.0  0.5133962217606935  0.2471046615963815  0.32551039497933243  1.0000
  H   H9        1.0  0.08576935094021108  0.5944350279826267  0.4734102202925571  1.0000
  H   H10       1.0  0.9142432370247561  0.4055587925068238  0.5265909702916788  1.0000
  H   H11       1.0  0.3401385681005635  0.7646418456679245  0.5304707644728242  1.0000
  H   H12       1.0  0.6598740389575397  0.2353487721056524  0.4695247508726724  1.0000
  H   H13       1.0  0.38893681424780613  0.6854752077495689  0.22184708714757315  1.0000
  H   H14       1.0  0.6110566121177569  0.31452200133755087  0.7781470184189916  1.0000
  H   H15       1.0  0.13196269231544738  0.5147036737295995  0.164037440523778  1.0000
  H   H16       1.0  0.8680361594243421  0.4852902574114993  0.8359610235739016  1.0000
  H   H17       1.0  0.35341121501756584  0.3752435115762296  0.2106535836466677  1.0000
  H   H18       1.0  0.6465890330578644  0.624751477418272  0.7893466034775688  1.0000
  H   H19       1.0  0.6111516503737562  0.5358390574183007  0.2458944891042735  1.0000
  H   H20       1.0  0.388845137559187  0.4641656270809449  0.7541050927607742  1.0000
  H   H21       1.0  0.6431706157754534  0.3544008674851683  0.9344339822323777  1.0000
  H   H22       1.0  0.3568254404830995  0.645604895803608  0.06556582713733417  1.0000
  H   H23       1.0  0.3817170870350139  0.1950731426244232  0.8980344113038615  1.0000
  H   H24       1.0  0.6182788475912134  0.8049251011314598  0.10196566225305771  1.0000
  H   H25       1.0  0.1678215879088185  0.2711621788387221  0.2614660463409281  1.0000
  H   H26       1.0  0.8321823253126013  0.7288413615193081  0.73853849402569  1.0000
  H   H27       1.0  0.0998682774257063  0.19412683297642272  0.5353636822049026  1.0000
  H   H28       1.0  0.9001310857810408  0.8058756707591288  0.46463968961461455  1.0000
  H   H29       1.0  0.8515405105660181  0.0223446497808055  0.44017004452528147  1.0000
  H   H30       1.0  0.14845987830973698  0.9776578536599492  0.5598312772929009  1.0000
  H   H31       1.0  0.7752939073836985  0.9912589580148254  0.26159421290412166  1.0000
  H   H32       1.0  0.22470929325647393  0.008742458416861604  0.7384048797284282  1.0000
  H   H33       1.0  0.6001827067101073  0.9992114326515705  0.9846393669546105  1.0000
  H   H34       1.0  0.39981671392578016  0.0007878581948546003  0.015361127388459298  1.0000
  H   H35       1.0  0.640570822275599  0.987984940313176  0.683658735448745  1.0000
  H   H36       1.0  0.3594257482598735  0.012015447715576501  0.31634119031767244  1.0000
  H   H37       1.0  0.8932889197489754  0.16466346836674722  0.7581858334003402  1.0000
  H   H38       1.0  0.1067087052075095  0.8353369117372651  0.2418141406864508  1.0000
  H   H39       1.0  0.9820080683039405  0.24883030857751723  0.9415795951770536  1.0000
  H   H40       1.0  0.01799099124932017  0.7511679215773911  0.05841782557869388  1.0000
  C   C1        1.0  0.9413892020212274  0.4393751699408029  0.2807947632914748  1.0000
  C   C2        1.0  0.05860993420404273  0.5606230398675792  0.7192082529888354  1.0000
  C   C3        1.0  0.09324132183621002  0.5459681117584267  0.31522166857661926  1.0000
  C   C4        1.0  0.9067607027506241  0.45402579306511387  0.68477763992275  1.0000
  C   C5        1.0  0.15163166910456743  0.6158709874993988  0.4184447644333746  1.0000
  C   C6        1.0  0.8483756180033311  0.38412288024373015  0.5815540862272855  1.0000
  C   C7        1.0  0.2933329671781665  0.7097028406931403  0.4508320703010755  1.0000
  C   C8        1.0  0.706671022565537  0.29029428405988267  0.5491639173503559  1.0000
  C   C9        1.0  0.3757033498685304  0.73252250814749  0.37820690125810347  1.0000
  C   C10       1.0  0.6242959079142024  0.2674800235645379  0.6217887767151355  1.0000
  C   C11       1.0  0.319895626087586  0.6645647679398083  0.2751559955139769  1.0000
  C   C12       1.0  0.6801009827090211  0.3354324122864441  0.7248396538948401  1.0000
  C   C13       1.0  0.1782174583695308  0.5708224992129232  0.24381579765400838  1.0000
  C   C14       1.0  0.8217827705378936  0.4291724948682117  0.7561829905890821  1.0000
  C   C15       1.0  0.19323855542428703  0.18397920684227398  0.028977689301790132  1.0000
  C   C16       1.0  0.8067613028913742  0.8160179267198943  0.9710244000332938  1.0000
  C   C17       1.0  0.35042020662022827  0.278275728089831  0.051478215331428614  1.0000
  C   C18       1.0  0.649580383369823  0.7217203266828209  0.9485236464989841  1.0000
  C   C19       1.0  0.415777933510185  0.3722078768406406  0.14987694235009036  1.0000
  C   C20       1.0  0.584221173963087  0.6277903405976917  0.8501239756085115  1.0000
  C   C21       1.0  0.5591757615158386  0.46097218250916694  0.1703646264322104  1.0000
  C   C22       1.0  0.440822186187269  0.539029268459622  0.829635623479618  1.0000
  C   C23       1.0  0.6371342808037497  0.4533926784969112  0.09111877934500266  1.0000
  C   C24       1.0  0.3628622801477235  0.5466077120751578  0.9088804469808456  1.0000
  C   C25       1.0  0.5766117673561266  0.3578347133504496  0.9930830497552423  1.0000
  C   C26       1.0  0.42338333024655844  0.6421678348006739  0.006916631579933651  1.0000
  C   C27       1.0  0.43262675063717637  0.2708115792875746  0.9735491362148923  1.0000
  C   C28       1.0  0.5673702384100635  0.7291866565435683  0.02645098566239308  1.0000
  C   C29       1.0  0.1012485242101064  0.21899711323677454  0.30428215182048757  1.0000
  C   C30       1.0  0.8987550566806917  0.7810053587997956  0.6957214132805235  1.0000
  C   C31       1.0  0.15365429794354668  0.24465238041032225  0.40467263872319864  1.0000
  C   C32       1.0  0.8463450748471998  0.7553501207819198  0.5953314325368952  1.0000
  C   C33       1.0  0.06322692943126641  0.17531484977423872  0.45641657853344964  1.0000
  C   C34       1.0  0.9367734786124869  0.8246876485798824  0.5435861421658787  1.0000
  C   C35       1.0  0.9263931826815863  0.08051054087879093  0.4043633278487847  1.0000
  C   C36       1.0  0.07360866954294919  0.9194898049829162  0.5956375389600624  1.0000
  C   C37       1.0  0.8820443675548829  0.06243993861451002  0.30433001809169724  1.0000
  C   C38       1.0  0.11795886183728758  0.9375614701872269  0.6956711728625609  1.0000
  C   C39       1.0  0.30363052340246094  0.34600362622109065  0.449045322531653  1.0000
  C   C40       1.0  0.6963712618089276  0.653999935073067  0.5509577223130793  1.0000
  C   C41       1.0  0.6597937404531605  0.03354458858387231  0.9313157447079664  1.0000
  C   C42       1.0  0.3402064022731182  0.9664536260163389  0.06868382268986309  1.0000
  C   C43       1.0  0.5977688457902701  0.984450397891998  0.8296124056861561  1.0000
  C   C44       1.0  0.4022295204246048  0.015548900879174703  0.17038804033653326  1.0000
  C   C45       1.0  0.6835622663678009  0.02701933158687101  0.7641244700044825  1.0000
  C   C46       1.0  0.31643398142104934  0.9729799855771052  0.23587517993689755  1.0000
  C   C47       1.0  0.8232492703972979  0.12382873536047614  0.8046991593877096  1.0000
  C   C48       1.0  0.1767480318125649  0.8761705738787526  0.19530053887403656  1.0000
  C   C49       1.0  0.8754050089826321  0.17051086146322095  0.9076779967080245  1.0000
  C   C50       1.0  0.1245951241596473  0.8294873556803071  0.09232087124923545  1.0000
  C   C51       1.0  0.440788230815187  0.893063630753574  0.7985720013793273  1.0000
  C   C52       1.0  0.5592115125673232  0.10693673095762792  0.2014287687887802  1.0000
  N   N1        1.0  0.5254994364344155  0.8297879825134871  0.41034518449666296  1.0000
  N   N2        1.0  0.4744986424101469  0.17021778781563063  0.5896484265486566  1.0000
  N   N3        1.0  0.7854442277299681  0.551342466205597  0.11053735627857725  1.0000
  N   N4        1.0  0.21455410973290165  0.44865684019552543  0.8894609914224036  1.0000
  N   N5        1.0  0.9671484656036213  0.13296693959403433  0.2556691601776891  1.0000
  N   N6        1.0  0.03285582779356141  0.8670344587396388  0.744332778537512  1.0000
  N   N7        1.0  0.3304246683975691  0.4276232180244293  0.5468129056838507  1.0000
  N   N8        1.0  0.669575007971801  0.5723803591192225  0.4531900425201345  1.0000
  N   N9        1.0  0.7966558169498298  0.1220124386133818  0.9696438141029164  1.0000
  N   N10       1.0  0.20334432577644887  0.8779857759868293  0.030355753294912836  1.0000
  N   N11       1.0  0.4043343519947058  0.7836999570598879  0.7103680272183228  1.0000
  N   N12       1.0  0.5956653818038048  0.21630040719463048  0.2896320435092152  1.0000
  O   O1        1.0  0.8608466029577639  0.43627852833210323  0.3473585866767196  1.0000
  O   O2        1.0  0.13915765217828385  0.5637260778040771  0.6526476283960749  1.0000
  O   O3        1.0  0.9062112001138516  0.3588685573653408  0.18828527885521149  1.0000
  O   O4        1.0  0.09378192274795791  0.6411307733996098  0.8117170238873331  1.0000
  O   O5        1.0  0.5946270571413875  0.8518861669665513  0.34419003321587394  1.0000
  O   O6        1.0  0.405377076212602  0.1481045243782617  0.6558022978043568  1.0000
  O   O7        1.0  0.5774243833389221  0.8856597101571851  0.5020373025385966  1.0000
  O   O8        1.0  0.42256721290044635  0.11436329389717062  0.4979566929803739  1.0000
  O   O9        1.0  0.148301806434354  0.0858112569917822  0.9427843466923707  1.0000
  O   O10       1.0  0.8516965885325192  0.9141880341494402  0.05721819765204126  1.0000
  O   O11       1.0  0.11771827496486512  0.21313578882402603  0.09877690181319562  1.0000
  O   O12       1.0  0.882282960518431  0.7868624076781786  0.901225511667292  1.0000
  O   O13       1.0  0.8560526813248398  0.5363189053552304  0.04013062808095925  1.0000
  O   O14       1.0  0.1439443939035456  0.4636761099568219  0.9598687146415872  1.0000
  O   O15       1.0  0.8319537012692423  0.6460647941614611  0.19570088174692304  1.0000
  O   O16       1.0  0.1680452816868723  0.35393665396920687  0.8042980176041328  1.0000
  O   O17       1.0  0.398968344968381  0.35232406146078443  0.39300737824829224  1.0000
  O   O18       1.0  0.6010306093105982  0.6476805919290741  0.6069964969009335  1.0000
  O   O19       1.0  0.3514424886474004  0.9253867695212746  0.8561730035696089  1.0000
  O   O20       1.0  0.6485558775674745  0.07461252924989031  0.14382744245308746  1.0000
