data_image0
_chemical_formula_structural       Mg2H20C24S2O10
_chemical_formula_sum              "Mg2 H20 C24 S2 O10"
_cell_length_a       5.962720098059729
_cell_length_b       11.217064794382734
_cell_length_c       11.21674557771384
_cell_angle_alpha    108.99321746018697
_cell_angle_beta     105.0319526004814
_cell_angle_gamma    105.03056323222316

_space_group_name_H-M_alt    "P 1"
_space_group_IT_number       1

loop_
  _space_group_symop_operation_xyz
  'x, y, z'

loop_
  _atom_site_type_symbol
  _atom_site_label
  _atom_site_symmetry_multiplicity
  _atom_site_fract_x
  _atom_site_fract_y
  _atom_site_fract_z
  _atom_site_occupancy
  Mg  Mg1       1.0  0.24998628435429276  0.5270410456923001  0.9729497989229899  1.0000
  Mg  Mg2       1.0  0.7499941350118391  0.472960791765523  0.02704510460399937  1.0000
  H   H1        1.0  0.14040700121613972  0.6874206470020497  0.8468784295579896  1.0000
  H   H2        1.0  0.3595629635354952  0.6530988718411804  0.8125617911622529  1.0000
  H   H3        1.0  0.8595851510556616  0.3125834670832149  0.15311342431698455  1.0000
  H   H4        1.0  0.6404393073742867  0.34689921261939105  0.187434623942842  1.0000
  H   H5        1.0  0.49326407777702036  0.8246895459798794  0.24549171065604738  1.0000
  H   H6        1.0  0.006746940618832231  0.2545032282271506  0.675293823449671  1.0000
  H   H7        1.0  0.5067170439040751  0.17529697239562836  0.7545077763702113  1.0000
  H   H8        1.0  0.9932576569710676  0.7454959849279773  0.3246988240268537  1.0000
  H   H9        1.0  0.5698041014062128  0.07151277444772568  0.33700725200181136  1.0000
  H   H10       1.0  0.930195086507645  0.1629817912085372  0.4284631646807356  1.0000
  H   H11       1.0  0.4301959432034078  0.9284759331816798  0.6629989990027028  1.0000
  H   H12       1.0  0.06981940789050577  0.8370164868369084  0.5715331081956165  1.0000
  H   H13       1.0  0.8034430973557674  0.9813129045283658  0.0973651111253844  1.0000
  H   H14       1.0  0.6965386254735649  0.40263381760919253  0.5186676052347253  1.0000
  H   H15       1.0  0.19656021174015592  0.018697261359278593  0.9026374143432251  1.0000
  H   H16       1.0  0.3034696030786819  0.5973701976131522  0.48134144528530254  1.0000
  H   H17       1.0  0.7275477717691103  0.734823758870874  0.004649567452531847  1.0000
  H   H18       1.0  0.7724357261860318  0.4953464532075173  0.7651634807089921  1.0000
  H   H19       1.0  0.2724519607282899  0.26518643293488947  0.9953489392051368  1.0000
  H   H20       1.0  0.22756087249739915  0.5046584567776335  0.2348425990183074  1.0000
  C   C1        1.0  0.10367712920839268  0.7620057611719275  0.1185567603764001  1.0000
  C   C2        1.0  0.3963179148072128  0.3814416515744128  0.7379781978054398  1.0000
  C   C3        1.0  0.8963129366259114  0.23799211193512085  0.8814406849616321  1.0000
  C   C4        1.0  0.6036812985971166  0.6185624995178214  0.2620172536704716  1.0000
  C   C5        1.0  0.34307629481644136  0.859167998766857  0.21281418040391034  1.0000
  C   C6        1.0  0.15692360818746204  0.28717759726301745  0.6408202918151958  1.0000
  C   C7        1.0  0.6568993874403759  0.14082351085168196  0.787185446609165  1.0000
  C   C8        1.0  0.8430830464546799  0.7128246144054913  0.35917633665977894  1.0000
  C   C9        1.0  0.3855368624975741  0.9969144048490933  0.26441213534614866  1.0000
  C   C10       1.0  0.11447580504660239  0.23558508514598486  0.5030698784097966  1.0000
  C   C11       1.0  0.6144633956263235  0.003077367558688598  0.7355934232387612  1.0000
  C   C12       1.0  0.8855296071176962  0.764415003133095  0.49693031209554317  1.0000
  C   C13       1.0  0.1910588341197652  0.04050797783848029  0.2229582066463963  1.0000
  C   C14       1.0  0.3089066127555711  0.2770211616792153  0.459461213717674  1.0000
  C   C15       1.0  0.8089449554613992  0.9594919634818525  0.7770479664911892  1.0000
  C   C16       1.0  0.69109874417002  0.7229789799057968  0.540536312775096  1.0000
  C   C17       1.0  0.95254253549529  0.946224228140693  0.13014372642483354  1.0000
  C   C18       1.0  0.5474499372060181  0.36985209438145006  0.5537603437020523  1.0000
  C   C19       1.0  0.04746988256283661  0.05377595045128912  0.8698573976688736  1.0000
  C   C20       1.0  0.45255134156600707  0.6301468959307711  0.4462407170221994  1.0000
  C   C21       1.0  0.9109162687712242  0.8086542868811647  0.07865025120608492  1.0000
  C   C22       1.0  0.5890675435822388  0.4213459516344429  0.6913294706132618  1.0000
  C   C23       1.0  0.0890829630460033  0.19134984644242078  0.921346088274014  1.0000
  C   C24       1.0  0.41093710837148467  0.5786580895060209  0.3086755610958249  1.0000
  S   S1        1.0  0.25001979873656677  0.2154968571603888  0.28448962075849954  1.0000
  S   S2        1.0  0.7500195402816558  0.7845046951467438  0.715514555282674  1.0000
  O   O1        1.0  0.05950034374346553  0.6288109252315123  0.06829875607225941  1.0000
  O   O2        1.0  0.4404949916286114  0.43169792672156854  0.8711837237277394  1.0000
  O   O3        1.0  0.9404872296945898  0.371185979098783  0.9316944648566337  1.0000
  O   O4        1.0  0.5594931929670324  0.5683049294790337  0.12881699240385566  1.0000
  O   O5        1.0  0.24996327673313334  0.6368813611844074  0.8630781533230306  1.0000
  O   O6        1.0  0.7500315796671728  0.36311048563785425  0.13691960103709286  1.0000
  O   O7        1.0  0.4811945464485561  0.28547978712114735  0.27306323059765  1.0000
  O   O8        1.0  0.01871933617426436  0.2268920735695161  0.21447885251267002  1.0000
  O   O9        1.0  0.5188032008661949  0.714511034278523  0.7269372155739334  1.0000
  O   O10       1.0  0.9812794971247738  0.7731140539534066  0.7855190195651149  1.0000
