data_image0
_chemical_formula_structural       Cd2H12C20I4Br8N4
_chemical_formula_sum              "Cd2 H12 C20 I4 Br8 N4"
_cell_length_a       4.1395490790837215
_cell_length_b       14.6837230326379
_cell_length_c       14.684005444882889
_cell_angle_alpha    91.2030632979903
_cell_angle_beta     96.42221844564827
_cell_angle_gamma    96.42145651726013

_space_group_name_H-M_alt    "P 1"
_space_group_IT_number       1

loop_
  _space_group_symop_operation_xyz
  'x, y, z'

loop_
  _atom_site_type_symbol
  _atom_site_label
  _atom_site_symmetry_multiplicity
  _atom_site_fract_x
  _atom_site_fract_y
  _atom_site_fract_z
  _atom_site_occupancy
  Cd  Cd1       1.0  0.9999781583336609  0.9999987961649164  0.999995223205076  1.0000
  Cd  Cd2       1.0  1.694600642568581e-05  0.5000008687583203  0.5000049117095386  1.0000
  H   H1        1.0  0.9374046183299284  0.7756947629191014  0.9739179977554855  1.0000
  H   H2        1.0  0.9374302390729883  0.9739197676096436  0.7756947336438671  1.0000
  H   H3        1.0  0.06253928712988709  0.2243032944203733  0.0260795892280186  1.0000
  H   H4        1.0  0.0625254637770425  0.026077623008148997  0.2242984248805513  1.0000
  H   H5        1.0  0.20708162489288634  0.706587487023448  0.7065921704363446  1.0000
  H   H6        1.0  0.7929419800506283  0.29341549165611264  0.2934072278640585  1.0000
  H   H7        1.0  0.7508555816960508  0.5247887969364482  0.2827870983910543  1.0000
  H   H8        1.0  0.7508239497378639  0.28278220695900547  0.5247964728893493  1.0000
  H   H9        1.0  0.2491928734378277  0.4752087377194698  0.7172245033010043  1.0000
  H   H10       1.0  0.2492049682124175  0.7172214649692207  0.47521195278067546  1.0000
  H   H11       1.0  4.63585585911047e-06  0.802319534775158  0.1976819684769211  1.0000
  H   H12       1.0  6.4717137888592224e-06  0.19767394390661502  0.8023215458526991  1.0000
  C   C1        1.0  0.9755734641098428  0.7927405381472139  0.9037294416534962  1.0000
  C   C2        1.0  0.975596204644468  0.903736136686774  0.7927440259305882  1.0000
  C   C3        1.0  0.02437458214967587  0.20726232299958264  0.0962602010250322  1.0000
  C   C4        1.0  0.02436719821534441  0.09626880435739342  0.2072440784101701  1.0000
  C   C5        1.0  0.0686295606318552  0.7291277442349866  0.842752122825047  1.0000
  C   C6        1.0  0.0686849652551088  0.8427378851128109  0.7291226831470324  1.0000
  C   C7        1.0  0.9313149472785155  0.27088401969437825  0.1572512272192341  1.0000
  C   C8        1.0  0.931331178441539  0.15725274704451658  0.2708660090627504  1.0000
  C   C9        1.0  0.12330897603342082  0.7542158350426361  0.7542061961062885  1.0000
  C   C10       1.0  0.8766924014641759  0.2457994447770132  0.2457785017156837  1.0000
  C   C11       1.0  0.8608486667777909  0.5954142035143022  0.2968472594483487  1.0000
  C   C12       1.0  0.86081746263703  0.2968311415816132  0.595419719292778  1.0000
  C   C13       1.0  0.1391706170931641  0.4045839714047972  0.7031512244473531  1.0000
  C   C14       1.0  0.13921795174601206  0.7031581494064765  0.4045865463349116  1.0000
  C   C15       1.0  0.8550168311808335  0.6608709185516942  0.2293735316486405  1.0000
  C   C16       1.0  0.8549970558929446  0.22936622882355095  0.6608789535531372  1.0000
  C   C17       1.0  0.1450018099622454  0.33911903160159074  0.7706315651315521  1.0000
  C   C18       1.0  0.14499932005464433  0.7706291691063923  0.3391215085631316  1.0000
  C   C19       1.0  7.116066811280166e-06  0.7504093997849494  0.2495858116048382  1.0000
  C   C20       1.0  1.5891632756347838e-05  0.2495895797418725  0.7504195401251011  1.0000
  I   I1        1.0  0.49997827536763145  0.8999831559817719  0.10001155850557808  1.0000
  I   I2        1.0  0.4999901254065264  0.10001562501971506  0.899982010235206  1.0000
  I   I3        1.0  0.5852567547506168  0.6040186896746035  0.6040197738586385  1.0000
  I   I4        1.0  0.41477050080328587  0.3959808680068236  0.39598578885254204  1.0000
  Br  Br1       1.0  0.13028259472706336  0.6086150612743565  0.8803948619500659  1.0000
  Br  Br2       1.0  0.1303264877705671  0.8803960196103942  0.6086276931957144  1.0000
  Br  Br3       1.0  0.8697122076966934  0.3913823899791139  0.1196083216275667  1.0000
  Br  Br4       1.0  0.869707138208163  0.11960697416411387  0.3913863069139012  1.0000
  Br  Br5       1.0  0.6455070504275325  0.6274981374889279  0.10962206106680839  1.0000
  Br  Br6       1.0  0.6454844807105076  0.10961315196477976  0.6275017961613544  1.0000
  Br  Br7       1.0  0.35453008182046364  0.37249526773153707  0.8903897932765474  1.0000
  Br  Br8       1.0  0.3545245710966114  0.8903898039480181  0.3724992090778443  1.0000
  N   N1        1.0  0.9374264081605048  0.8785937272694537  0.8785699112472471  1.0000
  N   N2        1.0  0.0625188564363839  0.121421465362296  0.1214049326854152  1.0000
  N   N3        1.0  1.8621067404420773e-05  0.6174027927964829  0.38259865851527763  1.0000
  N   N4        1.0  1.0193680104437425e-05  0.3825982514102221  0.617413722000677  1.0000
