data_image0
_chemical_formula_structural       Zn6H62C60Br2Cl8O24
_chemical_formula_sum              "Zn6 H62 C60 Br2 Cl8 O24"
_cell_length_a       18.78909382268283
_cell_length_b       18.812599128847804
_cell_length_c       18.77851261001541
_cell_angle_alpha    109.60592084241362
_cell_angle_beta     109.45738019902277
_cell_angle_gamma    109.20557995246321

_space_group_name_H-M_alt    "P 1"
_space_group_IT_number       1

loop_
  _space_group_symop_operation_xyz
  'x, y, z'

loop_
  _atom_site_type_symbol
  _atom_site_label
  _atom_site_symmetry_multiplicity
  _atom_site_fract_x
  _atom_site_fract_y
  _atom_site_fract_z
  _atom_site_occupancy
  Zn  Zn1       1.0  0.003171285978133704  0.5624349959807657  0.05885416401796561  1.0000
  Zn  Zn2       1.0  0.9968289830330052  0.43756502235040523  0.9411500005615354  1.0000
  Zn  Zn3       1.0  0.5572941733772793  0.5581297711996168  0.4978289366073625  1.0000
  Zn  Zn4       1.0  0.44270663882019795  0.44187367916086356  0.5021706594068079  1.0000
  Zn  Zn5       1.0  0.43979482980874  0.9977574461456694  0.9393808908838397  1.0000
  Zn  Zn6       1.0  0.5602036630240478  0.0022426146214229218  0.06062197012203541  1.0000
  H   H1        1.0  0.5895367986064387  0.9049930580530583  0.7970124894751863  1.0000
  H   H2        1.0  0.41034503520275933  0.09500081548512895  0.2028658432812023  1.0000
  H   H3        1.0  0.1986625232513219  0.4012577922937267  0.0993948678488223  1.0000
  H   H4        1.0  0.8014119640399073  0.5988189167172704  0.9005987791533059  1.0000
  H   H5        1.0  0.27080938585142894  0.50692254255933  0.12869989635457563  1.0000
  H   H6        1.0  0.7292421478035321  0.4931868076499125  0.8713518265400637  1.0000
  H   H7        1.0  0.381441638602908  0.5154634174269004  0.242330208797128  1.0000
  H   H8        1.0  0.6186069255861001  0.4846445500434554  0.7577234740928703  1.0000
  H   H9        1.0  0.3114632617061659  0.4059037089751881  0.20623658516613833  1.0000
  H   H10       1.0  0.6886150827216895  0.5941754244327198  0.7937557533176047  1.0000
  H   H11       1.0  0.10379174034225971  0.3753735499473122  0.16016037593212223  1.0000
  H   H12       1.0  0.8962347224964305  0.6245882700075  0.8397707055688032  1.0000
  H   H13       1.0  0.20797808989426161  0.3715120589647113  0.2656905143690835  1.0000
  H   H14       1.0  0.7920484065188731  0.6284387096845874  0.7342281737703547  1.0000
  H   H15       1.0  0.2525956509303596  0.7885553817244354  0.13476514168497997  1.0000
  H   H16       1.0  0.747361850775775  0.21145842519223368  0.8652142580118606  1.0000
  H   H17       1.0  0.16678083076207878  0.7888114213093043  0.05992260573265901  1.0000
  H   H18       1.0  0.8331808844469607  0.21117677200318494  0.9400222183791058  1.0000
  H   H19       1.0  0.26232836882171984  0.8866851045751004  0.040614473181158  1.0000
  H   H20       1.0  0.7376514505626233  0.11330558838680821  0.9593486051599102  1.0000
  H   H21       1.0  0.34966752735103057  0.8946564301803472  0.12373762339711192  1.0000
  H   H22       1.0  0.6503037584078086  0.1053467392632328  0.8762456837088379  1.0000
  H   H23       1.0  0.5920489538471188  0.797354206427762  0.6912314838880605  1.0000
  H   H24       1.0  0.4078180229450368  0.20263563619639055  0.30863511714204617  1.0000
  H   H25       1.0  0.2977444289402342  0.6798296086218796  0.08567503736781391  1.0000
  H   H26       1.0  0.7022616241204744  0.3202216902621089  0.9143702122707397  1.0000
  H   H27       1.0  0.3968496981647717  0.7949673117897756  0.0947114230866077  1.0000
  H   H28       1.0  0.6031539129921555  0.20505602835855533  0.9053051287271574  1.0000
  H   H29       1.0  0.13535535268909635  0.6127153402401502  0.860685050511947  1.0000
  H   H30       1.0  0.864678664695319  0.38725965125129125  0.1393223581642289  1.0000
  H   H31       1.0  0.09815945979423193  0.6856784719600167  0.8933287022005133  1.0000
  H   H32       1.0  0.9018318466843452  0.3142675377732329  0.10662459375510021  1.0000
  H   H33       1.0  0.2044980979818974  0.7914865350279141  0.8928019952937734  1.0000
  H   H34       1.0  0.7954936862081681  0.20848075784172684  0.10717152005884151  1.0000
  H   H35       1.0  0.38967421635763344  0.7034118918363176  0.7917852150764376  1.0000
  H   H36       1.0  0.6104355227258793  0.29659029811833176  0.20833695984177336  1.0000
  H   H37       1.0  0.38549187590995615  0.5982701560387297  0.6786077841083369  1.0000
  H   H38       1.0  0.6145997340031784  0.401718796614304  0.32150853629377724  1.0000
  H   H39       1.0  0.48400313731763583  0.7631121441000628  0.618384881333597  1.0000
  H   H40       1.0  0.5158153865140421  0.23679485255303223  0.3815326715690404  1.0000
  H   H41       1.0  0.3620105508035678  0.7496039951441913  0.7265214488833466  1.0000
  H   H42       1.0  0.6379741029157203  0.2503193591943286  0.27355321450988873  1.0000
  H   H43       1.0  0.47813474435641734  0.8639587733676705  0.7266392738345999  1.0000
  H   H44       1.0  0.5217112195150548  0.1359598547573029  0.2732971760403445  1.0000
  H   H45       1.0  0.6240631228925154  0.7267843308540092  0.7808361408383818  1.0000
  H   H46       1.0  0.37599982722340997  0.27332487475281636  0.21911509609675048  1.0000
  H   H47       1.0  0.5383442300265601  0.6484983780527852  0.7788384182784186  1.0000
  H   H48       1.0  0.4618129048410822  0.3516061104096692  0.22121257392040414  1.0000
  H   H49       1.0  0.5504433433246021  0.7607953832746258  0.8938966334176472  1.0000
  H   H50       1.0  0.449713274398043  0.23931375362074186  0.10614652840789061  1.0000
  H   H51       1.0  0.6314072652279491  0.838926322276215  0.8913523650992232  1.0000
  H   H52       1.0  0.36866231090527174  0.16118565100775575  0.1086053905355158  1.0000
  H   H53       1.0  0.2181796041772017  0.6206804919821635  0.29386252415426384  1.0000
  H   H54       1.0  0.7817562059091473  0.3792670484192795  0.7061593205311995  1.0000
  H   H55       1.0  0.2869383591119289  0.6373270157695285  0.2491135837410852  1.0000
  H   H56       1.0  0.7130332750665289  0.36270267981763027  0.7509564912885979  1.0000
  H   H57       1.0  0.38984047004218786  0.6368407625866722  0.3610298923422164  1.0000
  H   H58       1.0  0.6101243887631754  0.3631772048380738  0.6390356240670131  1.0000
  H   H59       1.0  0.31796408393977776  0.6138197386773782  0.40179983398904545  1.0000
  H   H60       1.0  0.6819619459974363  0.38610843026495434  0.5982102796167227  1.0000
  H   H61       1.0  0.21327803444699364  0.45702462286775597  0.3478703359804883  1.0000
  H   H62       1.0  0.7866925043479327  0.542869054047699  0.6520581977910496  1.0000
  C   C1        1.0  0.11947622484530031  0.6222752006103249  0.0028548272209790006  1.0000
  C   C2        1.0  0.8805224213190855  0.37772372332018006  0.9971460766492228  1.0000
  C   C3        1.0  0.24374325151748621  0.46762801836844387  0.15484937780356492  1.0000
  C   C4        1.0  0.7563039638365153  0.5324418484091065  0.8451664750884262  1.0000
  C   C5        1.0  0.19220663280303538  0.5031276395510599  0.19065698206341614  1.0000
  C   C6        1.0  0.8077982953128215  0.4968753795518877  0.8093452207739348  1.0000
  C   C7        1.0  0.3098847694484519  0.49980105996108637  0.31068989710996686  1.0000
  C   C8        1.0  0.6901156169564261  0.500193155289672  0.6893031774145015  1.0000
  C   C9        1.0  0.21871961280037058  0.4380545747534298  0.2887904091906535  1.0000
  C   C10       1.0  0.7812795438372575  0.5618914852201652  0.7111537465201395  1.0000
  C   C11       1.0  0.31676842411503253  0.47043257760642365  0.22715676415192118  1.0000
  C   C12       1.0  0.683276605667551  0.5296344154041817  0.7728558289745209  1.0000
  C   C13       1.0  0.2238660958378063  0.7808104758688114  0.06937242235761693  1.0000
  C   C14       1.0  0.7761057167078462  0.21918980669722274  0.9306017508852237  1.0000
  C   C15       1.0  0.288856985761491  0.8484754468244656  0.0612132618501988  1.0000
  C   C16       1.0  0.7111209585428215  0.151522096180706  0.9387641698192583  1.0000
  C   C17       1.0  0.2732095232910581  0.6747640031469256  0.0212994569771539  1.0000
  C   C18       1.0  0.7268003618495554  0.32525741911452827  0.9787353592795042  1.0000
  C   C19       1.0  0.156261860783502  0.6784470834249416  0.9092132994706787  1.0000
  C   C20       1.0  0.8437420306627459  0.32152330729146417  0.0907686877019742  1.0000
  C   C21       1.0  0.19244579499393674  0.6878187230080497  0.0004474906919326999  1.0000
  C   C22       1.0  0.8075491274085919  0.3121793552279752  0.9995481966295614  1.0000
  C   C23       1.0  0.1220612367094276  0.502934752875525  0.1197507347965114  1.0000
  C   C24       1.0  0.8779402434536223  0.4970692894713621  0.8802547325962352  1.0000
  C   C25       1.0  0.31135889312144377  0.802644161039744  0.9927166158352634  1.0000
  C   C26       1.0  0.6886389330012933  0.19735211911298478  0.007280374721567302  1.0000
  C   C27       1.0  0.34664623607961426  0.7502853581346114  0.0261016975913435  1.0000
  C   C28       1.0  0.6533582675607976  0.24972680059790506  0.9739155092625468  1.0000
  C   C29       1.0  0.22544315294081244  0.746947310783227  0.9053262427033177  1.0000
  C   C30       1.0  0.7745614888255403  0.25303264021064104  0.0946629180699148  1.0000
  C   C31       1.0  0.5008385055829906  0.8101320743080859  0.8117565561800291  1.0000
  C   C32       1.0  0.49917398159124093  0.1898817133672138  0.1882449853619477  1.0000
  C   C33       1.0  0.49761410340192214  0.6202892534921599  0.6170357048734373  1.0000
  C   C34       1.0  0.5024016563441619  0.3797326776947258  0.3829599597682006  1.0000
  C   C35       1.0  0.38063166808448295  0.5001391165821473  0.3805014886283474  1.0000
  C   C36       1.0  0.6193889935670497  0.4998755779392211  0.6194915646247665  1.0000
  C   C37       1.0  0.5001268360130737  0.12001697065220891  0.11857771210323882  1.0000
  C   C38       1.0  0.49988131783946005  0.8799909527910897  0.8814264442212832  1.0000
  C   C39       1.0  0.37977257861580677  0.8773266446488107  0.9956888519537729  1.0000
  C   C40       1.0  0.6202221049618046  0.12267157370263956  0.004307487957582601  1.0000
  C   C41       1.0  0.4063758403838166  0.6598271803931224  0.6784507535693863  1.0000
  C   C42       1.0  0.5936467657255021  0.3401393140866985  0.32161864899986636  1.0000
  C   C43       1.0  0.560066833058805  0.7089175623616198  0.7761058646755076  1.0000
  C   C44       1.0  0.440017659317988  0.29116568183027874  0.22389429737771852  1.0000
  C   C45       1.0  0.5254428040697833  0.845533522412367  0.755035581309791  1.0000
  C   C46       1.0  0.47445478556296194  0.15443261314850076  0.24489363880003623  1.0000
  C   C47       1.0  0.5654208465285747  0.7824601452208664  0.8505856544385679  1.0000
  C   C48       1.0  0.43466195662795565  0.21762041806216093  0.14941450967128841  1.0000
  C   C49       1.0  0.40867293522622816  0.7298183207513699  0.7528647260031746  1.0000
  C   C50       1.0  0.5913589235560295  0.2701504630118236  0.2472040164673928  1.0000
  C   C51       1.0  0.49636724993763437  0.69092362640022  0.6858489175271743  1.0000
  C   C52       1.0  0.5036250938999486  0.3090749807728485  0.31414611913462664  1.0000
  C   C53       1.0  0.5266616584097362  0.7759194260442468  0.6831105552378177  1.0000
  C   C54       1.0  0.47322278233679066  0.2240453011623912  0.3168114982459258  1.0000
  C   C55       1.0  0.25530530848845245  0.5948744825145693  0.27038514424513954  1.0000
  C   C56       1.0  0.7446606231579551  0.40511502656278237  0.7296451473278226  1.0000
  C   C57       1.0  0.3233874628657318  0.5927730163732646  0.3425985186604237  1.0000
  C   C58       1.0  0.6765759607742794  0.4072079793894899  0.6574278625853155  1.0000
  C   C59       1.0  0.14872573500286274  0.44005461516366734  0.2183153299907374  1.0000
  C   C60       1.0  0.8512751297655896  0.5598940673697469  0.7816333908202467  1.0000
  Br  Br1       1.0  0.41525222579527815  0.7149900459699691  0.976991303093655  1.0000
  Br  Br2       1.0  0.5847569102807526  0.28501862738607286  0.023036340491934502  1.0000
  Cl  Cl1       1.0  0.237137553132392  0.6960554841604247  0.8130072519670007  1.0000
  Cl  Cl2       1.0  0.7628888785407353  0.3039284603134503  0.18699624511568663  1.0000
  Cl  Cl3       1.0  0.24776813606744952  0.568474881305306  0.9485824169852961  1.0000
  Cl  Cl4       1.0  0.7522701975708584  0.4315402636619793  0.051499356083759606  1.0000
  Cl  Cl5       1.0  0.3245760111104162  0.6315067640319395  0.5726769309143337  1.0000
  Cl  Cl6       1.0  0.6753542473391717  0.3683703339044369  0.4273971345612679  1.0000
  Cl  Cl7       1.0  0.07979158275622922  0.4674368975607307  0.2567893340945774  1.0000
  Cl  Cl8       1.0  0.9201688192523819  0.5324444139674469  0.7431392109323127  1.0000
  O   O1        1.0  0.09725926877018051  0.653774427084471  0.057717830577885806  1.0000
  O   O2        1.0  0.9027525460279904  0.3462237210992353  0.9422948076949069  1.0000
  O   O3        1.0  0.5542276615155687  0.09538284362313483  0.1458223939994099  1.0000
  O   O4        1.0  0.4457743834646663  0.9046176637101122  0.8541830739987972  1.0000
  O   O5        1.0  0.3518270049248927  0.9038271274453605  0.9441181528661674  1.0000
  O   O6        1.0  0.6481678500578668  0.09617202147241952  0.0558807964466581  1.0000
  O   O7        1.0  0.45842792800093696  0.9107019212667493  0.0536142389655367  1.0000
  O   O8        1.0  0.5415679681933413  0.08929660103447651  0.9463834048435019  1.0000
  O   O9        1.0  0.08468228565067192  0.5419187884325536  0.9487960569606386  1.0000
  O   O10       1.0  0.9153072223049749  0.4580794832660613  0.051194414784333696  1.0000
  O   O11       1.0  0.10112476404163569  0.560854587178376  0.14424262224480336  1.0000
  O   O12       1.0  0.8988664255849913  0.4391392894938164  0.8557648132291292  1.0000
  O   O13       1.0  0.0887937999368091  0.4440738040263381  0.04083539551650971  1.0000
  O   O14       1.0  0.9112151554653071  0.5559357586678074  0.9591681072744082  1.0000
  O   O15       1.0  0.5490906336796684  0.6450835901085977  0.5892957192660334  1.0000
  O   O16       1.0  0.45089206344517413  0.35491878767504653  0.41070258582570324  1.0000
  O   O17       1.0  0.4496970003974  0.5418184433817145  0.5950954225656347  1.0000
  O   O18       1.0  0.5503034933409053  0.45816927010925196  0.40490352583034916  1.0000
  O   O19       1.0  0.45889911538507283  0.55248262415148  0.40538666753940333  1.0000
  O   O20       1.0  0.5410919147799829  0.447506237691833  0.5946011960007951  1.0000
  O   O21       1.0  0.3574400133757365  0.4483907147804585  0.4085131228755188  1.0000
  O   O22       1.0  0.6425583284272277  0.5516046370053045  0.5914916969701521  1.0000
  O   O23       1.0  0.44701555506751595  0.0904124407508107  0.03869665409256131  1.0000
  O   O24       1.0  0.5529915588290066  0.909592920681085  0.9613088086652654  1.0000
