data_image0
_chemical_formula_structural       Zn3H28C30N2O12
_chemical_formula_sum              "Zn3 H28 C30 N2 O12"
_cell_length_a       9.02532905626157
_cell_length_b       9.121057358168192
_cell_length_c       19.702535035491643
_cell_angle_alpha    95.48595012417879
_cell_angle_beta     97.7377466568726
_cell_angle_gamma    117.90179620162431

_space_group_name_H-M_alt    "P 1"
_space_group_IT_number       1

loop_
  _space_group_symop_operation_xyz
  'x, y, z'

loop_
  _atom_site_type_symbol
  _atom_site_label
  _atom_site_symmetry_multiplicity
  _atom_site_fract_x
  _atom_site_fract_y
  _atom_site_fract_z
  _atom_site_occupancy
  Zn  Zn1       1.0  0.3120939113776515  0.4413308608532276  0.7738343716982996  1.0000
  Zn  Zn2       1.0  0.43874557886023513  0.616002672824976  0.9364652303589196  1.0000
  Zn  Zn3       1.0  0.5673234109538683  0.7909048603521001  0.09931403760686659  1.0000
  H   H1        1.0  0.3754705112194402  0.9860395857413239  0.8394111643741198  1.0000
  H   H2        1.0  0.48502085332143  0.06658878996853453  0.7717572556916039  1.0000
  H   H3        1.0  0.7781559245152961  0.0763781373321635  0.7726361846549992  1.0000
  H   H4        1.0  0.8576255218829091  0.9964596370184681  0.8378991983287136  1.0000
  H   H5        1.0  0.847574006892451  0.4612115173921368  0.894099690839667  1.0000
  H   H6        1.0  0.775907438076125  0.35772792149248295  0.805526438432338  1.0000
  H   H7        1.0  0.03549348589928057  0.7712219941550558  0.9787959085440007  1.0000
  H   H8        1.0  0.10468369591021091  0.8743970036494133  0.0673937815276773  1.0000
  H   H9        1.0  0.5027264484857596  0.2505312707073771  0.0339686415728195  1.0000
  H   H10       1.0  0.39337564946207954  0.1687065302277375  0.101552571329222  1.0000
  H   H11       1.0  0.09845530413255692  0.15247794237030382  0.10012060612512391  1.0000
  H   H12       1.0  0.01646133406069339  0.23123012249845226  0.0351937443995425  1.0000
  H   H13       1.0  0.002492312380788092  0.16590048806744306  0.6871690632007912  1.0000
  H   H14       1.0  0.876445674839772  0.043262745721612796  0.5617447993198326  1.0000
  H   H15       1.0  0.32302719844871325  0.45672809078709525  0.5147707170448541  1.0000
  H   H16       1.0  0.4276323562257076  0.5645309666872721  0.644212619154402  1.0000
  H   H17       1.0  0.10975737248894998  0.25864529277191645  0.41905468502793747  1.0000
  H   H18       1.0  0.7932586950995673  0.9648695210407185  0.4532406435054668  1.0000
  H   H19       1.0  0.5835827369697528  0.762043673865229  0.3591008661841358  1.0000
  H   H20       1.0  0.4676665204311305  0.659101718574888  0.22973899398292724  1.0000
  H   H21       1.0  0.8770820932691663  0.0694736709031076  0.18413015621116807  1.0000
  H   H22       1.0  0.012515210957794022  0.18892614553764991  0.3091318321627696  1.0000
  H   H23       1.0  0.6140920808637419  0.9519287774448204  0.8968824068177526  1.0000
  H   H24       1.0  0.8911513447690923  0.2289915922668158  0.9289047224166325  1.0000
  H   H25       1.0  0.6045206285649342  0.22563741477049606  0.9271034672787123  1.0000
  H   H26       1.0  0.9878968949069673  0.0013493175817985  0.943725558220443  1.0000
  H   H27       1.0  0.2613044931926041  0.2799658736352555  0.9759842836949488  1.0000
  H   H28       1.0  0.27697567896711217  0.0088932825595478  0.9463205485852626  1.0000
  C   C1        1.0  0.5035973681041597  0.3347727409963639  0.8571851191726053  1.0000
  C   C2        1.0  0.5972589515033562  0.2356629104842014  0.8716284987740225  1.0000
  C   C3        1.0  0.5031796475427086  0.05795327700198531  0.827295606517346  1.0000
  C   C4        1.0  0.6060962929906494  0.9655316708351832  0.8419802964044152  1.0000
  C   C5        1.0  0.5122017550873963  0.789806129697155  0.7984513131161038  1.0000
  C   C6        1.0  0.7866509965069425  0.0653992083044059  0.8279448739114059  1.0000
  C   C7        1.0  0.8810622178106442  0.24090823148491583  0.8735497721407552  1.0000
  C   C8        1.0  0.06339882537080405  0.34684979747904526  0.8633038196695111  1.0000
  C   C9        1.0  0.7811803427360218  0.33687110309684704  0.8597808626013901  1.0000
  C   C10       1.0  0.8152240773920312  0.8821680516016173  0.009052383887357993  1.0000
  C   C11       1.0  0.99753293361556  0.9890325974264089  0.9990251147586874  1.0000
  C   C12       1.0  0.09963641186526229  0.895376602428094  0.013155062579549816  1.0000
  C   C13       1.0  0.283810152286577  0.9990291004704233  0.0018091635581356906  1.0000
  C   C14       1.0  0.37841987271107763  0.90080334511196  0.016514874989240994  1.0000
  C   C15       1.0  0.3752132339220893  0.17678816417586768  0.0459527055720841  1.0000
  C   C16       1.0  0.26964575584321443  0.26658130126542556  0.0309195148625463  1.0000
  C   C17       1.0  0.3618678354224728  0.4423141583165134  0.07436298210437542  1.0000
  C   C18       1.0  0.08957477266967119  0.16425048788997287  0.0448867881934589  1.0000
  C   C19       1.0  0.06853574638480352  0.2246139438393513  0.6466512420173487  1.0000
  C   C20       1.0  0.9999043360234697  0.15811865092949526  0.5765461631893558  1.0000
  C   C21       1.0  0.08960982806968329  0.23995725952246974  0.5263002346790132  1.0000
  C   C22       1.0  0.2477404123039264  0.387716747773041  0.5511782706050141  1.0000
  C   C23       1.0  0.30845625081857264  0.4479203800854706  0.6223093910124575  1.0000
  C   C24       1.0  0.026077418591256698  0.1810377109400179  0.45150172859356263  1.0000
  C   C25       1.0  0.8758871444585664  0.04300893765205419  0.4206346328911367  1.0000
  C   C26       1.0  0.8090293617453241  0.9850304800661362  0.3459810393753742  1.0000
  C   C27       1.0  0.6528556925236016  0.8346184039618764  0.3220621720597663  1.0000
  C   C28       1.0  0.5860623819468246  0.7769105019112674  0.251140082107014  1.0000
  C   C29       1.0  0.8169416458900685  0.007076048264103503  0.2251811792454959  1.0000
  C   C30       1.0  0.891275529884517  0.07149089838066665  0.29505077937910323  1.0000
  N   N1        1.0  0.22011457293966433  0.367582237875233  0.6692961883999331  1.0000
  N   N2        1.0  0.6667559104234896  0.8621534055894883  0.2034478141523266  1.0000
  O   O1        1.0  0.4531859610546363  0.3329186050947471  0.792590426809241  1.0000
  O   O2        1.0  0.48324537453387256  0.4124814844633207  0.9085405125842954  1.0000
  O   O3        1.0  0.5117053949322499  0.7626593301492337  0.7353381822787384  1.0000
  O   O4        1.0  0.4265841606057563  0.6663918629156244  0.8311988685599088  1.0000
  O   O5        1.0  0.09117857074398476  0.3159604414088407  0.8026233854840185  1.0000
  O   O6        1.0  0.17169617312512753  0.4578884983325367  0.9140054767765164  1.0000
  O   O7        1.0  0.7059191626289731  0.7736616281315066  0.9578890022918997  1.0000
  O   O8        1.0  0.7884440213295322  0.9106162167611914  0.07014509933669902  1.0000
  O   O9        1.0  0.3941827730353396  0.8190228349904913  0.9651605660898993  1.0000
  O   O10       1.0  0.43304452213975253  0.9064250478744853  0.0811249933267391  1.0000
  O   O11       1.0  0.44874323682363143  0.5657180474444489  0.041870902670346793  1.0000
  O   O12       1.0  0.3604456059122896  0.4692040090606611  0.1372901699250662  1.0000
