data_image0
_chemical_formula_structural       Cd2H20C16Br4N8
_chemical_formula_sum              "Cd2 H20 C16 Br4 N8"
_cell_length_a       7.089668303210715
_cell_length_b       7.078959430855416
_cell_length_c       14.120506082200594
_cell_angle_alpha    91.72751872958978
_cell_angle_beta     103.5394373829212
_cell_angle_gamma    118.16827903450077

_space_group_name_H-M_alt    "P 1"
_space_group_IT_number       1

loop_
  _space_group_symop_operation_xyz
  'x, y, z'

loop_
  _atom_site_type_symbol
  _atom_site_label
  _atom_site_symmetry_multiplicity
  _atom_site_fract_x
  _atom_site_fract_y
  _atom_site_fract_z
  _atom_site_occupancy
  Cd  Cd1       1.0  0.3776896335270479  0.12757983859466288  0.2500658617082721  1.0000
  Cd  Cd2       1.0  0.6223026441072222  0.8724192247860926  0.7499464613630381  1.0000
  H   H1        1.0  0.8588380661671665  0.48448315946649245  0.18825673113340005  1.0000
  H   H2        1.0  0.7964112804579315  0.6706040977913614  0.3119296890809835  1.0000
  H   H3        1.0  0.14115124379384267  0.5155080357302992  0.8117479700593364  1.0000
  H   H4        1.0  0.20360479632110895  0.3293842232088764  0.6880642466541147  1.0000
  H   H5        1.0  0.21196773249406684  0.058395581638279695  0.9997097477661543  1.0000
  H   H6        1.0  0.5581599736946997  0.21134492307936623  0.5005264434530119  1.0000
  H   H7        1.0  0.7880100608652328  0.941585250452718  0.00031117072303030364  1.0000
  H   H8        1.0  0.4418580356794094  0.7886964820768155  0.4994862368813031  1.0000
  H   H9        1.0  0.4970438337902365  0.2676474479458477  0.8859541798360056  1.0000
  H   H10       1.0  0.8813931931543235  0.6102535412114419  0.6142301102045026  1.0000
  H   H11       1.0  0.5028926912209853  0.7323079999283306  0.1140482535868159  1.0000
  H   H12       1.0  0.11863612869610317  0.38978011818170444  0.3857714752635816  1.0000
  H   H13       1.0  0.035834361521594436  0.7040902300314329  0.060749862005316416  1.0000
  H   H14       1.0  0.14312762285018726  0.9748907377576543  0.4392951549619895  1.0000
  H   H15       1.0  0.9641168451084569  0.2958901648822377  0.9392385226729942  1.0000
  H   H16       1.0  0.8568819128564017  0.0251062632200103  0.5606841817227561  1.0000
  H   H17       1.0  0.8884826896849914  0.6082817157831641  0.932647114326997  1.0000
  H   H18       1.0  0.17511715503645323  0.9555355442934895  0.5674420716839492  1.0000
  H   H19       1.0  0.11143925065690034  0.391669398219669  0.0673402159017087  1.0000
  H   H20       1.0  0.8249132591180339  0.04447909500952111  0.43254490486428676  1.0000
  C   C1        1.0  0.7169946532992596  0.39619648455252576  0.12355997522691808  1.0000
  C   C2        1.0  0.7726733069527468  0.5931356772609674  0.3766282954600513  1.0000
  C   C3        1.0  0.2829693558653119  0.6037816637816747  0.8764452624839977  1.0000
  C   C4        1.0  0.22733637502776116  0.40687708359253355  0.6233656843166672  1.0000
  C   C5        1.0  0.3875197720656444  0.17836922472024944  0.023019620580115002  1.0000
  C   C6        1.0  0.6549487762742245  0.36378218763734077  0.477204634202387  1.0000
  C   C7        1.0  0.6124281473099771  0.82160224662659  0.9769901292925809  1.0000
  C   C8        1.0  0.34508217859474405  0.6362398915690193  0.5228017451861646  1.0000
  C   C9        1.0  0.5250706817238253  0.2809478955732629  0.9653302036310124  1.0000
  C   C10       1.0  0.8153061090930578  0.5590608961738397  0.5348628733418295  1.0000
  C   C11       1.0  0.47489866225171795  0.7190317040538544  0.034679881645253395  1.0000
  C   C12       1.0  0.18474344700690887  0.44097270682600953  0.4651401037900129  1.0000
  C   C13       1.0  0.9343659776738776  0.5590009527729835  0.003591432365268995  1.0000
  C   C14       1.0  0.055239521870298215  0.930555265815961  0.4964565966426663  1.0000
  C   C15       1.0  0.0655837312436844  0.44096464525492246  0.9964006192423798  1.0000
  C   C16       1.0  0.9447819449759933  0.0694562061803623  0.5035279415848919  1.0000
  Br  Br1       1.0  0.9797694075885487  0.07363143177375522  0.22248996754115072  1.0000
  Br  Br2       1.0  0.3527437671881374  0.7570139871827237  0.2774893375077525  1.0000
  Br  Br3       1.0  0.02024977660330063  0.9263908756391289  0.7775102358664372  1.0000
  Br  Br4       1.0  0.6474561125146677  0.2430409372741096  0.7225086158665236  1.0000
  N   N1        1.0  0.5087555924869988  0.2516461434094168  0.12140682858366601  1.0000
  N   N2        1.0  0.6301062830831088  0.3868945270095097  0.37880469527190297  1.0000
  N   N3        1.0  0.4912429466093401  0.7483593533692883  0.8786077484698966  1.0000
  N   N4        1.0  0.3698996715699962  0.6131097244273461  0.6211992790692449  1.0000
  N   N5        1.0  0.7321470401949097  0.418684489142791  0.03018286092518709  1.0000
  N   N6        1.0  0.888439333632739  0.7015493223887999  0.4699835353912434  1.0000
  N   N7        1.0  0.2678210632330646  0.5812938745199573  0.9698164313052617  1.0000
  N   N8        1.0  0.11158357307456869  0.29847459750030225  0.5300171014291664  1.0000
