data_image0
_chemical_formula_structural       Zn8H36C60S4O38
_chemical_formula_sum              "Zn8 H36 C60 S4 O38"
_cell_length_a       18.006938697830023
_cell_length_b       18.187645713539684
_cell_length_c       18.270357916881355
_cell_angle_alpha    60.83884395487063
_cell_angle_beta     60.924011058092496
_cell_angle_gamma    60.39211559937245

_space_group_name_H-M_alt    "P 1"
_space_group_IT_number       1

loop_
  _space_group_symop_operation_xyz
  'x, y, z'

loop_
  _atom_site_type_symbol
  _atom_site_label
  _atom_site_symmetry_multiplicity
  _atom_site_fract_x
  _atom_site_fract_y
  _atom_site_fract_z
  _atom_site_occupancy
  Zn  Zn1       1.0  0.3828479174146153  0.20413503869099972  0.20517499257179844  1.0000
  Zn  Zn2       1.0  0.618356690674112  0.7939247882379447  0.7950324885148561  1.0000
  Zn  Zn3       1.0  0.20769123877308  0.19998977844296215  0.20980498886693513  1.0000
  Zn  Zn4       1.0  0.7952293478012249  0.795965223988084  0.7913803973794914  1.0000
  Zn  Zn5       1.0  0.2091451834273172  0.3808990927106278  0.20707714452781545  1.0000
  Zn  Zn6       1.0  0.7912077285760047  0.6167459662605879  0.7942628893476494  1.0000
  Zn  Zn7       1.0  0.20584014813214682  0.20848109316539618  0.38116721352383115  1.0000
  Zn  Zn8       1.0  0.7947985505540555  0.7912287857283429  0.6197481896411008  1.0000
  H   H1        1.0  0.5972588598091092  0.07342899776336508  0.4741505064816921  1.0000
  H   H2        1.0  0.5313885785524519  0.1412422823008228  0.9257629027752046  1.0000
  H   H3        1.0  0.34262773565818344  0.032619739723848795  0.022724565564345826  1.0000
  H   H4        1.0  0.659582541308673  0.9679035059250439  0.9746038557324039  1.0000
  H   H5        1.0  0.47571209482349264  0.07419979600740591  0.8555344489976379  1.0000
  H   H6        1.0  0.526498044601297  0.9260357234112533  0.14216393995167212  1.0000
  H   H7        1.0  0.4047615643901422  0.14158156188815957  0.529253214495995  1.0000
  H   H8        1.0  0.5957533368786799  0.8564385163333482  0.4715408526932307  1.0000
  H   H9        1.0  0.40222715452724594  0.9702246900188101  0.655894682593555  1.0000
  H   H10       1.0  0.5981977863523725  0.0280949843560521  0.34500546750491173  1.0000
  H   H11       1.0  0.6009839409848824  0.47000139415296616  0.07438303898430816  1.0000
  H   H12       1.0  0.4030765840657152  0.9245872795155776  0.5269678400000402  1.0000
  H   H13       1.0  0.3989369149006946  0.5283822470195645  0.9304226891179894  1.0000
  H   H14       1.0  0.6004389069501883  0.3424036390189258  0.027338958726566956  1.0000
  H   H15       1.0  0.3994790314482158  0.6560774623120763  0.977008231232503  1.0000
  H   H16       1.0  0.5914564148776904  0.4734095116155784  0.8594852251970693  1.0000
  H   H17       1.0  0.40846473777899217  0.5253205329233808  0.1450930083114201  1.0000
  H   H18       1.0  0.9726882887016259  0.39996106642264095  0.6542598349366815  1.0000
  H   H19       1.0  0.026564811179426318  0.6003811322118082  0.3452724143810072  1.0000
  H   H20       1.0  0.145669479242251  0.923771683574408  0.5273353117580089  1.0000
  H   H21       1.0  0.85456049686465  0.07627222926092968  0.4747307697578337  1.0000
  H   H22       1.0  0.9131391451780217  0.35238679542214874  0.9979092990355554  1.0000
  H   H23       1.0  0.07550324633975686  0.8595779428439486  0.46814222316843496  1.0000
  H   H24       1.0  0.9784293293291456  0.6913333039629989  0.0778134382792856  1.0000
  H   H25       1.0  0.886841993162527  0.33532312448652846  0.17553552141649226  1.0000
  H   H26       1.0  0.12621284067959238  0.6561613258767096  0.8181756624659258  1.0000
  H   H27       1.0  0.8545150306758983  0.59526276437402  0.4733598134479918  1.0000
  H   H28       1.0  0.14470495175275738  0.40494755484201045  0.526513821358762  1.0000
  H   H29       1.0  0.9246605427190319  0.4046975656521851  0.5245882537179015  1.0000
  H   H30       1.0  0.07475197316598772  0.5957764623751702  0.47468275546356864  1.0000
  H   H31       1.0  0.9245711777274578  0.14034040613761786  0.534458749903571  1.0000
  H   H32       1.0  0.9741915617040107  0.9663221277885297  0.6575937926367958  1.0000
  H   H33       1.0  0.02637815543174329  0.0333877928263959  0.3446689426036329  1.0000
  H   H34       1.0  0.07882284644188081  0.46455470278014127  0.8585234679434209  1.0000
  H   H35       1.0  0.9298050421263254  0.5278050288219802  0.13770149505273827  1.0000
  H   H36       1.0  0.47053334729794466  0.8590539440449945  0.07186795312784969  1.0000
  C   C1        1.0  0.10939685884510912  0.11022694059343509  0.3911508657879921  1.0000
  C   C2        1.0  0.451111796408732  0.44329792167030047  0.05442434157187384  1.0000
  C   C3        1.0  0.5501302406545108  0.483967803127541  0.9237011141147634  1.0000
  C   C4        1.0  0.4497930798608891  0.514561213135707  0.08097300337057316  1.0000
  C   C5        1.0  0.9572469893871371  0.44772348684044516  0.5144118546968599  1.0000
  C   C6        1.0  0.04215827801267839  0.5526523615116404  0.48509694478470083  1.0000
  C   C7        1.0  0.9197612766507107  0.5524093757577903  0.48417188079233126  1.0000
  C   C8        1.0  0.07963440236466111  0.44788848479907273  0.5154115913761644  1.0000
  C   C9        1.0  0.9473824521653778  0.5482973544557055  0.5564102804967349  1.0000
  C   C10       1.0  0.05241813665484328  0.45201337296050076  0.4431279785185751  1.0000
  C   C11       1.0  0.9851055728129765  0.4439539368239309  0.5854364483459379  1.0000
  C   C12       1.0  0.8911774751755388  0.8893672212081398  0.6109069318046638  1.0000
  C   C13       1.0  0.014244605629038206  0.5563680059671086  0.4141130863364353  1.0000
  C   C14       1.0  0.08034443466429042  0.9569174506461168  0.5164113410066732  1.0000
  C   C15       1.0  0.9197890755034521  0.0431046134110886  0.4858471933822913  1.0000
  C   C16       1.0  0.39344286596838884  0.3864410000002962  0.11142832037432984  1.0000
  C   C17       1.0  0.6068586656034897  0.6118027040288253  0.8924358864218149  1.0000
  C   C18       1.0  0.04274065547167546  0.9226051152881708  0.48205141772133697  1.0000
  C   C19       1.0  0.95740341453574  0.07746995573860718  0.5202629991513846  1.0000
  C   C20       1.0  0.9480512499663902  0.9471307480981395  0.554754558761978  1.0000
  C   C21       1.0  0.05168725181698619  0.0533032591115372  0.4475692076308277  1.0000
  C   C22       1.0  0.9861057601056301  0.9818957056552763  0.5877972700158479  1.0000
  C   C23       1.0  0.4451424993693466  0.9833639806566338  0.58660340448904  1.0000
  C   C24       1.0  0.014089633307811796  0.01808952465651  0.41449510078245316  1.0000
  C   C25       1.0  0.01841757927694234  0.40980962827122613  0.0144154636870297  1.0000
  C   C26       1.0  0.9902992846872678  0.5831826435390041  0.9814022300621162  1.0000
  C   C27       1.0  0.045191773332035744  0.4786986414574201  0.9208599812930914  1.0000
  C   C28       1.0  0.9631390331102877  0.5143441699877798  0.0749752185737762  1.0000
  C   C29       1.0  0.9511728655272407  0.5526267090033058  0.9444266262714862  1.0000
  C   C30       1.0  0.05734615869156559  0.4405018979581428  0.05120511315752202  1.0000
  C   C31       1.0  0.9237535428203217  0.483522259298624  0.03946563907613425  1.0000
  C   C32       1.0  0.08489198789808942  0.5095891197203458  0.9561117053268476  1.0000
  C   C33       1.0  0.4132224165101945  0.017562549388038896  0.011904838971410914  1.0000
  C   C34       1.0  0.5553352732808888  0.0146686591209644  0.4143170251153308  1.0000
  C   C35       1.0  0.5889808316473547  0.9826514090476552  0.9857423504286872  1.0000
  C   C36       1.0  0.48322095100486706  0.9224116071690602  0.04012026492824111  1.0000
  C   C37       1.0  0.5189302794147321  0.07775719570506819  0.9575859537579491  1.0000
  C   C38       1.0  0.5574581556289075  0.9463069242717878  0.9478452848584027  1.0000
  C   C39       1.0  0.44482910027451783  0.053516615629902696  0.05013244475864543  1.0000
  C   C40       1.0  0.3877180543027307  0.1102161979002432  0.10787728193727729  1.0000
  C   C41       1.0  0.6146802201161637  0.8884389578242419  0.8912421382546398  1.0000
  C   C42       1.0  0.4861626556723593  0.04203737425303441  0.9199081175803414  1.0000
  C   C43       1.0  0.516100551032615  0.9580668572945894  0.0777772997897301  1.0000
  C   C44       1.0  0.10979013063116128  0.39478510789479065  0.3857088045068338  1.0000
  C   C45       1.0  0.5563375974772954  0.4122768252306556  0.015951373530981566  1.0000
  C   C46       1.0  0.8898645074017753  0.6053373417977712  0.6140242256071956  1.0000
  C   C47       1.0  0.11220428290548766  0.3835333811764984  0.11280991233846287  1.0000
  C   C48       1.0  0.893917858479618  0.6102960745020738  0.8849272672973639  1.0000
  C   C49       1.0  0.39167316327406343  0.10940827244737505  0.3882596863753137  1.0000
  C   C50       1.0  0.6089400773888302  0.8887340393038131  0.6125550686096728  1.0000
  C   C51       1.0  0.4478418213574216  0.07757003649949469  0.5172484502280525  1.0000
  C   C52       1.0  0.5526598126787121  0.9204036173413  0.48365422760678467  1.0000
  C   C53       1.0  0.553552498165942  0.04105771347769149  0.4850780584459713  1.0000
  C   C54       1.0  0.44687459251610306  0.956945713486583  0.5158693933196687  1.0000
  C   C55       1.0  0.5504670987192386  0.9461278001251116  0.5557038913485215  1.0000
  C   C56       1.0  0.4436466384805654  0.5862390596552131  0.9886436187592054  1.0000
  C   C57       1.0  0.4500413109689346  0.05157157288323331  0.44519752356195136  1.0000
  C   C58       1.0  0.5554995219357863  0.4822219480817083  0.043143396581001456  1.0000
  C   C59       1.0  0.44451581375569316  0.5162972695317976  0.9614714549269081  1.0000
  C   C60       1.0  0.548898675406896  0.5552492744666963  0.9505486364533482  1.0000
  S   S1        1.0  0.03066121648077309  0.2993278811978044  0.03371353941508201  1.0000
  S   S2        1.0  0.9723930614101657  0.69533143079628  0.962228406818987  1.0000
  S   S3        1.0  0.8199675424541013  0.46251149148331905  0.09838370482484035  1.0000
  S   S4        1.0  0.1917783320811211  0.5251347630155364  0.8931834300362241  1.0000
  O   O1        1.0  0.2497133391760257  0.2499186004277902  0.25058489170697135  1.0000
  O   O2        1.0  0.692103331058334  0.5698725763942462  0.8739481814885366  1.0000
  O   O3        1.0  0.1235603784006756  0.14206665964331217  0.430194526036658  1.0000
  O   O4        1.0  0.8662538771442383  0.8685761256375882  0.5709006923594021  1.0000
  O   O5        1.0  0.4323370089966545  0.30204210186799674  0.12801445406622491  1.0000
  O   O6        1.0  0.5680296845595619  0.6962992508357996  0.864997866766281  1.0000
  O   O7        1.0  0.3022623162567014  0.13568802465744775  0.12737630937621705  1.0000
  O   O8        1.0  0.700166877981509  0.868824032395146  0.8659591263048938  1.0000
  O   O9        1.0  0.1253427397823899  0.4336591092167268  0.30212961051433507  1.0000
  O   O10       1.0  0.863639870382002  0.5658341678197233  0.6975888273781978  1.0000
  O   O11       1.0  0.12513256329585687  0.3006199564918361  0.14250049990850033  1.0000
  O   O12       1.0  0.7516340262274994  0.7476902651921761  0.7504911111566416  1.0000
  O   O13       1.0  0.8748359577810163  0.6937362279662835  0.861392652168668  1.0000
  O   O14       1.0  0.30656191011019723  0.13017726456292422  0.42873449063149144  1.0000
  O   O15       1.0  0.6937178375802798  0.8603215716311327  0.5723245889611732  1.0000
  O   O16       1.0  0.13695457711872897  0.4267114597791987  0.12912745448804946  1.0000
  O   O17       1.0  0.87240076185423  0.567352778942201  0.8648961035031136  1.0000
  O   O18       1.0  0.4310062891447544  0.1333936265623237  0.30461815539925396  1.0000
  O   O19       1.0  0.5701161675062494  0.8729088980264025  0.6959831157006704  1.0000
  O   O20       1.0  0.12268325043180535  0.249203810993194  0.9987552506333371  1.0000
  O   O21       1.0  0.9788641783761065  0.26522478228565655  0.12615374446618696  1.0000
  O   O22       1.0  0.9792465864359696  0.3199935308904146  0.9723616908144875  1.0000
  O   O23       1.0  0.4293557099976795  0.12790573948376496  0.1341753590977888  1.0000
  O   O24       1.0  0.02568363167948461  0.7302544607742193  0.8720491388749493  1.0000
  O   O25       1.0  0.8782252681941005  0.7417858983842007  0.997304973742203  1.0000
  O   O26       1.0  0.02376510590806901  0.6793236044714989  0.02298248544981627  1.0000
  O   O27       1.0  0.7482440097296958  0.5410353834575973  0.11659852325974633  1.0000
  O   O28       1.0  0.8145391768798688  0.41920865754368464  0.05290826565236993  1.0000
  O   O29       1.0  0.8374940566856282  0.3919172486548276  0.18846728305680935  1.0000
  O   O30       1.0  0.20972102412206084  0.5618672769733876  0.9343576614005471  1.0000
  O   O31       1.0  0.2540923494056315  0.4451543376287646  0.8711779620611112  1.0000
  O   O32       1.0  0.16937826683900428  0.5992358224792369  0.8048766547023548  1.0000
  O   O33       1.0  0.5730870841477653  0.8635116822932647  0.872121013350778  1.0000
  O   O34       1.0  0.1385516612756632  0.31083429609138596  0.42555542070910224  1.0000
  O   O35       1.0  0.8716367483157228  0.6895654576933125  0.5742822632528756  1.0000
  O   O36       1.0  0.14041958835990437  0.1220632117776006  0.3081767682392922  1.0000
  O   O37       1.0  0.8720553321657859  0.8653380748002207  0.6945951741754399  1.0000
  O   O38       1.0  0.30860015848142563  0.42786898200342455  0.13939612620384154  1.0000
