data_image0
_chemical_formula_structural       Cd2H16C24N8O4
_chemical_formula_sum              "Cd2 H16 C24 N8 O4"
_cell_length_a       5.325172341520921
_cell_length_b       10.568688631967529
_cell_length_c       10.872227250121195
_cell_angle_alpha    89.99798749370548
_cell_angle_beta     90.7600793516238
_cell_angle_gamma    90.00254924617394

_space_group_name_H-M_alt    "P 1"
_space_group_IT_number       1

loop_
  _space_group_symop_operation_xyz
  'x, y, z'

loop_
  _atom_site_type_symbol
  _atom_site_label
  _atom_site_symmetry_multiplicity
  _atom_site_fract_x
  _atom_site_fract_y
  _atom_site_fract_z
  _atom_site_occupancy
  Cd  Cd1       1.0  0.5000074011159228  0.50000301521127  0.9999952531801172  1.0000
  Cd  Cd2       1.0  0.49997788458652076  0.9999985799400122  0.5000075463456071  1.0000
  H   H1        1.0  0.34701289578554656  0.40657055488958344  0.22978870067520063  1.0000
  H   H2        1.0  0.6529509134789605  0.9065672597098027  0.2702134872679096  1.0000
  H   H3        1.0  0.6529810645839902  0.5934312066681217  0.7702210866157486  1.0000
  H   H4        1.0  0.3470146689070788  0.09342125521863662  0.7297759502592102  1.0000
  H   H5        1.0  0.5747841691690211  0.2505598720873436  0.3639603172591706  1.0000
  H   H6        1.0  0.4252430241288963  0.7505714011447111  0.1360077600817036  1.0000
  H   H7        1.0  0.4252303360707188  0.7494352665715097  0.6360385157350308  1.0000
  H   H8        1.0  0.5747188114045089  0.24941143657664364  0.8639825821837306  1.0000
  H   H9        1.0  0.17107370458948173  0.9507365572746309  0.2168069572469022  1.0000
  H   H10       1.0  0.8288637412400915  0.45076983653412117  0.2831881371727221  1.0000
  H   H11       1.0  0.828929683247246  0.049258580985196004  0.7832065473989616  1.0000
  H   H12       1.0  0.17115265139270971  0.5492243559382571  0.7168116232511111  1.0000
  H   H13       1.0  0.919884365621023  0.0947919707282381  0.0796848241241648  1.0000
  H   H14       1.0  0.08004169127286791  0.594798284003808  0.4203192935416666  1.0000
  H   H15       1.0  0.0801134070864009  0.9052050598155502  0.9203304973702019  1.0000
  H   H16       1.0  0.9199579132010028  0.405218616660683  0.5796914360938246  1.0000
  C   C1        1.0  0.9636892328376732  0.3512616348163889  0.06597433884497408  1.0000
  C   C2        1.0  0.03628490753571611  0.8512512914853402  0.4340288091184518  1.0000
  C   C3        1.0  0.0363310005472073  0.6487316113562542  0.9340337151931379  1.0000
  C   C4        1.0  0.9636826475660881  0.1487495237815253  0.5659698340397838  1.0000
  C   C5        1.0  0.11829036180159141  0.26245137551232733  0.14151556312967273  1.0000
  C   C6        1.0  0.881687178592017  0.7624510581728431  0.3584565175156058  1.0000
  C   C7        1.0  0.8817242003867279  0.7375541711484318  0.8584887886395834  1.0000
  C   C8        1.0  0.11831979651235969  0.23756205806595435  0.6415404451754156  1.0000
  C   C9        1.0  0.3048482629622953  0.3059976406776245  0.22293772242372972  1.0000
  C   C10       1.0  0.6951611356542245  0.80601399231815  0.2770330396344747  1.0000
  C   C11       1.0  0.6951718389313228  0.6940041214516198  0.777057453933196  1.0000
  C   C12       1.0  0.3048233025474971  0.19398209222057963  0.722963832260156  1.0000
  C   C13       1.0  0.43201134208057823  0.2198877154642602  0.2974351546420664  1.0000
  C   C14       1.0  0.5679645388637553  0.719903874918309  0.20254477193496004  1.0000
  C   C15       1.0  0.567986346145382  0.7801159385695017  0.7025718883240729  1.0000
  C   C16       1.0  0.4320310825066471  0.2800884251367393  0.797443867140828  1.0000
  C   C17       1.0  0.2059967682869868  0.052562145399939204  0.21659234282103063  1.0000
  C   C18       1.0  0.7940003630042725  0.5525805478512  0.2833674758789897  1.0000
  C   C19       1.0  0.7940346487873452  0.9474396167744247  0.7834074781959615  1.0000
  C   C20       1.0  0.2060139636542715  0.44742310684851827  0.7166138803121812  1.0000
  C   C21       1.0  0.068072225544995  0.13220004699685012  0.1394678476283246  1.0000
  C   C22       1.0  0.9318720133948306  0.6322017600912062  0.3605341807219062  1.0000
  C   C23       1.0  0.931923632156362  0.8678130688429204  0.8605437867143522  1.0000
  C   C24       1.0  0.068142398666545  0.36781703351578443  0.6394554536396342  1.0000
  N   N1        1.0  0.07602819957322988  0.4585604875652366  0.0322015052642612  1.0000
  N   N2        1.0  0.923977610042506  0.9585599537722373  0.46780280386939666  1.0000
  N   N3        1.0  0.923992080781403  0.5414299199495857  0.9678111479423636  1.0000
  N   N4        1.0  0.07602177725686231  0.04144370060328839  0.5321867700234577  1.0000
  N   N5        1.0  0.38453218398207406  0.09483100689393355  0.2954582080931942  1.0000
  N   N6        1.0  0.6154518979696918  0.5948623836995708  0.20452682684578596  1.0000
  N   N7        1.0  0.6154730444381971  0.905169808601968  0.7045516247515452  1.0000
  N   N8        1.0  0.384532379645556  0.40512234683144743  0.7954544082213033  1.0000
  O   O1        1.0  0.7340610338711714  0.3203378459316967  0.04467817841065621  1.0000
  O   O2        1.0  0.2658918022831855  0.8203329703804769  0.4553351088374313  1.0000
  O   O3        1.0  0.26596286200506114  0.6796705395115481  0.9553206923142384  1.0000
  O   O4        1.0  0.7340756775949089  0.17967068359477176  0.5446561756791795  1.0000
