data_image0
_chemical_formula_structural       Al6H66C84N2O32
_chemical_formula_sum              "Al6 H66 C84 N2 O32"
_cell_length_a       12.902353421406344
_cell_length_b       13.011023739272684
_cell_length_c       28.377986626016728
_cell_angle_alpha    89.82165464589725
_cell_angle_beta     89.96675896952242
_cell_angle_gamma    61.515121708947596

_space_group_name_H-M_alt    "P 1"
_space_group_IT_number       1

loop_
  _space_group_symop_operation_xyz
  'x, y, z'

loop_
  _atom_site_type_symbol
  _atom_site_label
  _atom_site_symmetry_multiplicity
  _atom_site_fract_x
  _atom_site_fract_y
  _atom_site_fract_z
  _atom_site_occupancy
  Al  Al1       1.0  0.40599134845188445  0.4126759836889278  0.5022748821059366  1.0000
  Al  Al2       1.0  0.4202200902148618  0.6523133018647302  0.49922346804088147  1.0000
  Al  Al3       1.0  0.6476955830873621  0.42643654367356043  0.5003836822409582  1.0000
  Al  Al4       1.0  0.9334703230665082  0.9144418706116472  0.0020058256886698995  1.0000
  Al  Al5       1.0  0.6868289443123955  0.9095491669162284  0.0006613841840135002  1.0000
  Al  Al6       1.0  0.9097237542924006  0.6799100816582635  0.0010982683937399004  1.0000
  H   H1        1.0  0.4699607698244109  0.7614929644121202  0.7856473936154629  1.0000
  H   H2        1.0  0.5418688293920368  0.8682700155174461  0.7148124123060668  1.0000
  H   H3        1.0  0.5750247475095307  0.5490911676837059  0.7335806503812137  1.0000
  H   H4        1.0  0.7892275595902235  0.4789420725294418  0.7828704417303527  1.0000
  H   H5        1.0  0.8612794334666984  0.5860632377475599  0.7121321021887042  1.0000
  H   H6        1.0  0.7562870107438755  0.7981338864118187  0.7641042801564524  1.0000
  H   H7        1.0  0.7386912142407739  0.271581281675452  0.8026423574733386  1.0000
  H   H8        1.0  0.7194566731446699  0.3157379134964202  0.7219363419799123  1.0000
  H   H9        1.0  0.7937783276998188  0.005320665225888054  0.6961375009729663  1.0000
  H   H10       1.0  0.8545621038451044  0.09973637511946287  0.7054887963111796  1.0000
  H   H11       1.0  0.8691036125170938  0.05682704520855012  0.7863104800265363  1.0000
  H   H12       1.0  0.8059222872697943  0.9643302137521564  0.7770283994974889  1.0000
  H   H13       1.0  0.47829040764397496  0.23468142593594626  0.712275606567836  1.0000
  H   H14       1.0  0.570930764644892  0.08517087708028737  0.70076514612267  1.0000
  H   H15       1.0  0.4923967825375256  0.19605308054300963  0.7932426499103045  1.0000
  H   H16       1.0  0.5655653352393201  0.36887190521417085  0.7255223698739856  1.0000
  H   H17       1.0  0.5844944407724809  0.3291679335670494  0.8067562968812753  1.0000
  H   H18       1.0  0.5840169545586065  0.046181739395144986  0.7819996908873463  1.0000
  H   H19       1.0  0.3205334088514817  0.4900681147949656  0.7153757558824907  1.0000
  H   H20       1.0  0.004733591963741902  0.7014122485051004  0.6960432127125956  1.0000
  H   H21       1.0  0.11008625974402259  0.5517079893500706  0.7007434401130722  1.0000
  H   H22       1.0  0.0656262206108948  0.559846046808751  0.7808730061291556  1.0000
  H   H23       1.0  0.9726803446068857  0.7123666693716261  0.7776979675161256  1.0000
  H   H24       1.0  0.2202654211439494  0.8136713964237644  0.7179125503785571  1.0000
  H   H25       1.0  0.06965720285150921  0.8563987595878688  0.7097922432727799  1.0000
  H   H26       1.0  0.1991857556353338  0.8044909908232541  0.7999091449366134  1.0000
  H   H27       1.0  0.37108042887326315  0.5945824160949014  0.722274942376643  1.0000
  H   H28       1.0  0.3392270337405847  0.597751726037231  0.8035865208678175  1.0000
  H   H29       1.0  0.047674510931614095  0.85341975670768  0.7917848878551297  1.0000
  H   H30       1.0  0.6884355218411854  0.4965683769849249  0.1972549136979538  1.0000
  H   H31       1.0  0.6676540062813316  0.48075569067695767  0.2785419111019465  1.0000
  H   H32       1.0  0.802799042515275  0.6745555552772448  0.2996797851187765  1.0000
  H   H33       1.0  0.8332021065034426  0.5286325655684581  0.2914349483031131  1.0000
  H   H34       1.0  0.8501043358315244  0.5502368014136395  0.21021798435992173  1.0000
  H   H35       1.0  0.8144063532127532  0.6975240684656399  0.2184051117734427  1.0000
  H   H36       1.0  0.4739417965604105  0.8052301318760726  0.28821819805911997  1.0000
  H   H37       1.0  0.5902514964748774  0.838400873721952  0.2960725678159619  1.0000
  H   H38       1.0  0.4867822592694749  0.8181663761912858  0.2062982480074709  1.0000
  H   H39       1.0  0.5201389690906878  0.5940055570561569  0.27567819472783833  1.0000
  H   H40       1.0  0.5395195475223246  0.6064632374545198  0.1942038393788152  1.0000
  H   H41       1.0  0.5987528237705888  0.8576091193861048  0.21390346002905855  1.0000
  H   H42       1.0  0.4832914353345146  0.2557361676568633  0.20670858390634814  1.0000
  H   H43       1.0  0.475053801849441  0.31830991878587145  0.2848609836063929  1.0000
  H   H44       1.0  0.715728770361828  0.013937611293584968  0.3066769809011518  1.0000
  H   H45       1.0  0.5619841987699203  0.10188513774627242  0.2975892582254218  1.0000
  H   H46       1.0  0.5942757019461594  0.042622542509441544  0.2185841697822681  1.0000
  H   H47       1.0  0.7908644524785158  0.25645339985921817  0.2848515691685165  1.0000
  H   H48       1.0  0.8513918117871241  0.10339638750836852  0.2914397623141127  1.0000
  H   H49       1.0  0.7760982372389336  0.24415810730738483  0.20265550730567128  1.0000
  H   H50       1.0  0.568269715908329  0.3788597269675049  0.271845377267887  1.0000
  H   H51       1.0  0.5561901043169399  0.33670726478214175  0.19235437622428722  1.0000
  H   H52       1.0  0.8635623930173963  0.09211879556432483  0.2089726449248346  1.0000
  H   H53       1.0  0.3484405313311001  0.5818605396131742  0.20129657168809698  1.0000
  H   H54       1.0  0.3756017793590941  0.5548255777350309  0.2832300784838324  1.0000
  H   H55       1.0  0.1005241337052567  0.8474152235659319  0.2925039941236776  1.0000
  H   H56       1.0  0.25321225934772673  0.7797919893616554  0.2805920554793246  1.0000
  H   H57       1.0  0.2055612880545681  0.7984446867828652  0.19987733864785892  1.0000
  H   H58       1.0  0.0554207927114447  0.8469843763480825  0.2128561826168607  1.0000
  H   H59       1.0  0.08254683037812778  0.568869928259069  0.3025869754971424  1.0000
  H   H60       1.0  0.9984488517955651  0.7227663562207954  0.298021380075653  1.0000
  H   H61       1.0  0.0802680472770234  0.5484725145464324  0.220376005750559  1.0000
  H   H62       1.0  0.29934192496077827  0.47293204611998635  0.28518209714982135  1.0000
  H   H63       1.0  0.2958872983843506  0.4789030555477894  0.2025060069082159  1.0000
  H   H64       1.0  0.977994326962303  0.699423300847066  0.2178577053314115  1.0000
  H   H65       1.0  0.2872447752596301  0.3338638826286626  0.4759393586383355  1.0000
  H   H66       1.0  0.016582752951393297  0.02898670900295031  0.9752174677930512  1.0000
  C   C1        1.0  0.2863292315162126  0.6178092733666529  0.5676844518139248  1.0000
  C   C2        1.0  0.603368215921698  0.6135848089904883  0.5639728364251225  1.0000
  C   C3        1.0  0.6141534163141457  0.29241093594144746  0.5678902682960968  1.0000
  C   C4        1.0  0.2820876238574214  0.6171766110052984  0.43395839192784547  1.0000
  C   C5        1.0  0.6057141588949974  0.604700864031777  0.4331949168549087  1.0000
  C   C6        1.0  0.6080318820931154  0.29440186379370203  0.43348459571843273  1.0000
  C   C7        1.0  0.5968150757517776  0.7819578847900316  0.7303078864135415  1.0000
  C   C8        1.0  0.5566584409080306  0.7223067501423376  0.768822942473882  1.0000
  C   C9        1.0  0.7005237111654665  0.7065034611838286  0.8876260410881827  1.0000
  C   C10       1.0  0.6298013347292866  0.6387882298545832  0.6102566781706288  1.0000
  C   C11       1.0  0.7160252606730635  0.7425406246555966  0.7567547902561174  1.0000
  C   C12       1.0  0.6761185633496182  0.6828282980634768  0.7967791272814678  1.0000
  C   C13       1.0  0.7745606978202064  0.6249593935681687  0.7288809999096983  1.0000
  C   C14       1.0  0.655091756640921  0.6643391776684314  0.7009104387931586  1.0000
  C   C15       1.0  0.7343558142233563  0.5652956354090937  0.7673773948988937  1.0000
  C   C16       1.0  0.6150927419092795  0.6047353400213852  0.7409822828521868  1.0000
  C   C17       1.0  0.6884181443781472  0.6949417899350937  0.8456680937429581  1.0000
  C   C18       1.0  0.6423711831518304  0.6515691270957904  0.6520762638539352  1.0000
  C   C19       1.0  0.6515327574939889  0.2936401181623296  0.7340190644846843  1.0000
  C   C20       1.0  0.7844180412827769  0.08026870287056194  0.7170135198694609  1.0000
  C   C21       1.0  0.7934312938386083  0.05289152144156642  0.770412731533753  1.0000
  C   C22       1.0  0.7027439239206217  0.0901334698906312  0.8875381037211625  1.0000
  C   C23       1.0  0.6632979457763071  0.1868511023414428  0.7055922982413634  1.0000
  C   C24       1.0  0.6629678583269083  0.2664775589513369  0.7874350687538723  1.0000
  C   C25       1.0  0.6794648769058041  0.14184457250541982  0.7959726828171441  1.0000
  C   C26       1.0  0.5728708069812356  0.13398342626699397  0.7748309275470007  1.0000
  C   C27       1.0  0.5638575948400514  0.15970916005966984  0.7213042725111976  1.0000
  C   C28       1.0  0.690554048171073  0.11557505299902716  0.8459399962982773  1.0000
  C   C29       1.0  0.6534370048866406  0.21469960910487643  0.6557406881144487  1.0000
  C   C30       1.0  0.6419170968228797  0.24202880471347046  0.6143349582380749  1.0000
  C   C31       1.0  0.2980309253566205  0.5762512004735783  0.72990642960972  1.0000
  C   C32       1.0  0.0840644753533439  0.6388579698714383  0.7151509084067129  1.0000
  C   C33       1.0  0.0608941292219853  0.6419506232257319  0.7686440158400315  1.0000
  C   C34       1.0  0.10098509769968442  0.6794194516705828  0.8878943860491972  1.0000
  C   C35       1.0  0.1843348556369762  0.6694092044172495  0.7053600064536312  1.0000
  C   C36       1.0  0.27977413540608603  0.5762670938966321  0.7834359654670494  1.0000
  C   C37       1.0  0.15055014830073787  0.6659079879998728  0.7963932974313367  1.0000
  C   C38       1.0  0.1356808098260061  0.7869063624351899  0.7805143289344372  1.0000
  C   C39       1.0  0.1510681669778648  0.7904233868669551  0.7266263919037428  1.0000
  C   C40       1.0  0.12830334716154818  0.6683202890438197  0.8465641171594172  1.0000
  C   C41       1.0  0.208221001175616  0.6644398958399834  0.6552859369270081  1.0000
  C   C42       1.0  0.23488821836070875  0.6505242409177471  0.6138693138544582  1.0000
  C   C43       1.0  0.6112980930472033  0.5707327572497576  0.2662390970747737  1.0000
  C   C44       1.0  0.7754544873388268  0.6190464201064859  0.2798995047710662  1.0000
  C   C45       1.0  0.7851501459001967  0.6328918145725027  0.2261511980492088  1.0000
  C   C46       1.0  0.6906089366456456  0.699585266199492  0.1100972235231694  1.0000
  C   C47       1.0  0.6467759682695017  0.6528904086961449  0.29324541499812534  1.0000
  C   C48       1.0  0.6236924757136535  0.5807257793561149  0.2122789285661781  1.0000
  C   C49       1.0  0.6641285895288647  0.6729450732334926  0.2018546945125905  1.0000
  C   C50       1.0  0.5725270339829862  0.7913295056712645  0.2231944757385591  1.0000
  C   C51       1.0  0.564576179902552  0.780299659991343  0.2772376049024246  1.0000
  C   C52       1.0  0.6764558082645066  0.6856855568423653  0.1515595074756249  1.0000
  C   C53       1.0  0.6367357026500571  0.6399539194667556  0.34366412600941487  1.0000
  C   C54       1.0  0.6278414083712675  0.6281475157933656  0.3857831819836903  1.0000
  C   C55       1.0  0.5585911211963008  0.3000347692766497  0.2680470596750553  1.0000
  C   C56       1.0  0.6492964773345875  0.08679402415660317  0.2859522891080388  1.0000
  C   C57       1.0  0.6654769844117466  0.055681676455464076  0.23344633270022538  1.0000
  C   C58       1.0  0.6953531139208095  0.09736217079238686  0.1132429315246313  1.0000
  C   C59       1.0  0.6606390029246256  0.19815786450291759  0.2948861181321831  1.0000
  C   C60       1.0  0.5597551953790186  0.2676198736760541  0.2156747594705948  1.0000
  C   C61       1.0  0.6743616663866092  0.1534713979442444  0.2041375782532739  1.0000
  C   C62       1.0  0.7814422706810331  0.16710911226715566  0.22082521568214727  1.0000
  C   C63       1.0  0.779463869109932  0.1809293867187949  0.2749083283112341  1.0000
  C   C64       1.0  0.6823649411268419  0.1264625516453038  0.1543318785419245  1.0000
  C   C65       1.0  0.6503964484334759  0.22344443125516736  0.3449044224310285  1.0000
  C   C66       1.0  0.6375706321948086  0.24733162827705982  0.3865665216246015  1.0000
  C   C67       1.0  0.29461742265260676  0.5543266845950041  0.2717713560957478  1.0000
  C   C68       1.0  0.1722048063276418  0.7739189360354218  0.2739447745864112  1.0000
  C   C69       1.0  0.14543972598333707  0.7786299862918042  0.2206849493322878  1.0000
  C   C70       1.0  0.10713024175615972  0.6756712712210703  0.1127278038295998  1.0000
  C   C71       1.0  0.1872096967585293  0.6580723190846883  0.29530459167535383  1.0000
  C   C72       1.0  0.2824571983765694  0.5621289705234247  0.2174967451731007  1.0000
  C   C73       1.0  0.15799749174443178  0.6597388845553452  0.2041674976514898  1.0000
  C   C74       1.0  0.06586736300168639  0.6359112496262256  0.2303060682130393  1.0000
  C   C75       1.0  0.0761830423364174  0.6459942072669236  0.2840959724177239  1.0000
  C   C76       1.0  0.13558453495748776  0.6642229264268166  0.15400050379471958  1.0000
  C   C77       1.0  0.2084471278319383  0.6524716923637827  0.3456110255130724  1.0000
  C   C78       1.0  0.23234873909463968  0.642441778622704  0.3873770111553938  1.0000
  C   C79       1.0  0.728318790542495  0.04159854975242892  0.9342735426498406  1.0000
  C   C80       1.0  0.726267127427633  0.7288606877944162  0.9345244512945711  1.0000
  C   C81       1.0  0.04934631084240241  0.7105389527513922  0.934224185643572  1.0000
  C   C82       1.0  0.7269257737222005  0.04132554531475566  0.0677768224089235  1.0000
  C   C83       1.0  0.7199523112274588  0.7271339196292179  0.06463347394546298  1.0000
  C   C84       1.0  0.05167715700830661  0.7070117697356864  0.0672525132697714  1.0000
  N   N1        1.0  0.3102649476678678  0.4544697702434349  0.8011254016770408  1.0000
  N   N2        1.0  0.7754715723713443  0.9401762820845719  0.2247595618865361  1.0000
  O   O1        1.0  0.5169091611116129  0.311517901291268  0.5501867134635035  1.0000
  O   O2        1.0  0.3143118409521292  0.5155250615070345  0.5543422076340505  1.0000
  O   O3        1.0  0.30375581476152286  0.6942311106911633  0.5449448912211494  1.0000
  O   O4        1.0  0.503717643246155  0.6863737581882746  0.5462359017660248  1.0000
  O   O5        1.0  0.678311215151595  0.5177982944716464  0.5448983852879579  1.0000
  O   O6        1.0  0.6900183921627344  0.3182405687572541  0.5489728229499988  1.0000
  O   O7        1.0  0.5061844052208784  0.3209668867416298  0.4482561301410398  1.0000
  O   O8        1.0  0.30039640917812693  0.5220692835667506  0.4530075374528764  1.0000
  O   O9        1.0  0.3089759516157287  0.6927534515703256  0.45171476370540375  1.0000
  O   O10       1.0  0.5105018955714299  0.6803052053208916  0.4527727416607874  1.0000
  O   O11       1.0  0.6801182455231823  0.5069683457206438  0.4514798051785576  1.0000
  O   O12       1.0  0.6870168984436019  0.30971215834605204  0.45555112521077484  1.0000
  O   O13       1.0  0.4922679357334161  0.498206572479518  0.5003992851629206  1.0000
  O   O14       1.0  0.025806418563760807  0.8107049111715202  0.9488792851271199  1.0000
  O   O15       1.0  0.826903432670072  0.018626538944502703  0.9519958855621341  1.0000
  O   O16       1.0  0.649395758247813  0.02105035971493417  0.9536193007375998  1.0000
  O   O17       1.0  0.6529947492646002  0.8252726910023115  0.9536810455588026  1.0000
  O   O18       1.0  0.8237429280454763  0.6527461005253059  0.9527313101558477  1.0000
  O   O19       1.0  0.0270810909441295  0.6355582935807862  0.9554428135855844  1.0000
  O   O20       1.0  0.032588341244896  0.8041786681329556  0.0501580988670582  1.0000
  O   O21       1.0  0.8300294472829322  0.010711620844752143  0.053570064705766605  1.0000
  O   O22       1.0  0.6482459883580418  0.023386954955725556  0.046934907066727795  1.0000
  O   O23       1.0  0.64975368440642  0.8274764363546225  0.0471376261798895  1.0000
  O   O24       1.0  0.8170055540479525  0.6519617299657765  0.0460132350816238  1.0000
  O   O25       1.0  0.0214246869033232  0.634727313099269  0.0485924834894078  1.0000
  O   O26       1.0  0.8422045946433981  0.8339323245077784  0.0009663837176389998  1.0000
  O   O27       1.0  0.2729656666693643  0.3976199456267083  0.7783873530914107  1.0000
  O   O28       1.0  0.369984702233296  0.4206444514609729  0.8374888362455194  1.0000
  O   O29       1.0  0.7738678991004521  0.8828661340730978  0.1903587581668091  1.0000
  O   O30       1.0  0.8609747552329023  0.9114732843598791  0.2515366544479249  1.0000
  O   O31       1.0  0.32917220366550737  0.3325357614346276  0.5043434217210674  1.0000
  O   O32       1.0  0.0176942635279147  0.9872201317264315  0.0036118178744359995  1.0000
