data_image0
_chemical_formula_structural       U2Fe2P2H24C26O20F2
_chemical_formula_sum              "U2 Fe2 P2 H24 C26 O20 F2"
_cell_length_a       6.964486802307969
_cell_length_b       11.135752521330604
_cell_length_c       12.250360533872472
_cell_angle_alpha    109.32486234464909
_cell_angle_beta     89.68711342222348
_cell_angle_gamma    91.9195911812686

_space_group_name_H-M_alt    "P 1"
_space_group_IT_number       1

loop_
  _space_group_symop_operation_xyz
  'x, y, z'

loop_
  _atom_site_type_symbol
  _atom_site_label
  _atom_site_symmetry_multiplicity
  _atom_site_fract_x
  _atom_site_fract_y
  _atom_site_fract_z
  _atom_site_occupancy
  U   U1        1.0  0.9428441912319342  0.33782635425069424  0.8654515962014883  1.0000
  U   U2        1.0  0.057151531457506594  0.6621720437134825  0.13454710349422772  1.0000
  Fe  Fe1       1.0  0.03314374674197749  0.8261055398820928  0.6876720548671003  1.0000
  Fe  Fe2       1.0  0.9668580619101019  0.17389854652843437  0.31232839485221575  1.0000
  P   P1        1.0  0.4449132268481506  0.32350045252443493  0.7821544260463112  1.0000
  P   P2        1.0  0.5550851946543388  0.6764950768554455  0.21784341020714487  1.0000
  H   H1        1.0  0.19742698507133127  0.0654838501031776  0.6849635304384591  1.0000
  H   H2        1.0  0.802574643330729  0.9345145636941582  0.315027029975397  1.0000
  H   H3        1.0  0.7296729349924006  0.8035255365980232  0.5177019780771771  1.0000
  H   H4        1.0  0.27033124469627967  0.19646997244016967  0.4822950546606818  1.0000
  H   H5        1.0  0.9532677086078036  0.6213190251336229  0.4714617438571692  1.0000
  H   H6        1.0  0.046734970064989105  0.3786764739171318  0.5285385463288603  1.0000
  H   H7        1.0  0.4230049021674915  0.8857989808408033  0.6340781574069466  1.0000
  H   H8        1.0  0.5770012210362836  0.11420415124201355  0.3659187509066227  1.0000
  H   H9        1.0  0.9728025257747603  0.02989783120401769  0.8908416766130856  1.0000
  H   H10       1.0  0.027182491827531397  0.9701111251376132  0.10915285134306878  1.0000
  H   H11       1.0  0.6755174806894144  0.8647934040630788  0.7962299610136796  1.0000
  H   H12       1.0  0.32448094081307494  0.1352021253168019  0.20376787523978376  1.0000
  H   H13       1.0  0.8115151767495804  0.6248698581761332  0.7266938126232388  1.0000
  H   H14       1.0  0.18850071593330853  0.3751331629444437  0.27331697238440705  1.0000
  H   H15       1.0  0.1876170369877669  0.6419839620636835  0.7734838295772376  1.0000
  H   H16       1.0  0.8123968698163608  0.35803242121868806  0.22652693061273504  1.0000
  H   H17       1.0  0.289616471138828  0.8915048491993787  0.8768628762599489  1.0000
  H   H18       1.0  0.7103822521482428  0.10851925432755387  0.12314283428627698  1.0000
  H   H19       1.0  0.344655974198993  0.5074117678701171  0.8676326188695284  1.0000
  H   H20       1.0  0.6553466717101628  0.4925818470086225  0.13236301640612413  1.0000
  H   H21       1.0  0.5501015240892214  0.1742054799337822  0.633778963310732  1.0000
  H   H22       1.0  0.44990113821175726  0.8257881389643839  0.36621585687978336  1.0000
  H   H23       1.0  0.5867065882012666  0.5837418627541665  0.5582946537965652  1.0000
  H   H24       1.0  0.4132888312494172  0.4162555227840058  0.4417159824339051  1.0000
  C   C1        1.0  0.8159557291633277  0.0558959764865676  0.64127235190071  1.0000
  C   C2        1.0  0.18404291359877328  0.944102421355332  0.3587239083243574  1.0000
  C   C3        1.0  0.950720472745864  0.9468394349799637  0.6004589338578015  1.0000
  C   C4        1.0  0.0492897519359019  0.05316081438942888  0.3995387440761746  1.0000
  C   C5        1.0  0.14837009456159925  0.969977543507909  0.6320944546655979  1.0000
  C   C6        1.0  0.8516343637480689  0.030021786126880598  0.3679012917862181  1.0000
  C   C7        1.0  0.8819129197667123  0.8212344348947839  0.5383038895947719  1.0000
  C   C8        1.0  0.11809025060077259  0.17876681313830292  0.46169080327906187  1.0000
  C   C9        1.0  0.007342049024920481  0.7187395967531669  0.5116716936837662  1.0000
  C   C10       1.0  0.9926595465734706  0.2812606851384771  0.4883267819810371  1.0000
  C   C11       1.0  0.20365222494508825  0.7415449212935241  0.5464055904877795  1.0000
  C   C12       1.0  0.7963473533649862  0.2584486575326395  0.4535998200247703  1.0000
  C   C13       1.0  0.27428662649254676  0.8679767710361399  0.6051420488157432  1.0000
  C   C14       1.0  0.7257203503401114  0.13201776966748469  0.39485551504968436  1.0000
  C   C15       1.0  0.3306000540844351  0.6321570858520715  0.5285893857744313  1.0000
  C   C16       1.0  0.6693885241256793  0.36784322673551617  0.4714139543697512  1.0000
  C   C17       1.0  0.9782684836858947  0.9264333304112001  0.8572633752065711  1.0000
  C   C18       1.0  0.021726647603820502  0.07357747550933878  0.142734197736381  1.0000
  C   C19       1.0  0.821347194982465  0.8391250634825198  0.8075745460618932  1.0000
  C   C20       1.0  0.178653211004665  0.1608790370571427  0.1924242705947563  1.0000
  C   C21       1.0  0.8920249294542586  0.7129469358723172  0.7693578702369805  1.0000
  C   C22       1.0  0.10798845291157017  0.2870599381225602  0.23064754727414535  1.0000
  C   C23       1.0  0.09275341424866919  0.7218738572160958  0.7946049925822861  1.0000
  C   C24       1.0  0.9072562026015161  0.2781425483565485  0.20540494384539437  1.0000
  C   C25       1.0  0.1459887504656265  0.8531605327146891  0.8488523300506613  1.0000
  C   C26       1.0  0.8540107117275753  0.1468530751638895  0.1511534565627386  1.0000
  O   O1        1.0  0.9356177706329446  0.4337242124150791  0.7714029599448365  1.0000
  O   O2        1.0  0.0643714973478566  0.5662618401995515  0.22859033136060697  1.0000
  O   O3        1.0  0.9495396774189899  0.23589805785148588  0.9543076875419699  1.0000
  O   O4        1.0  0.05045876864120657  0.7641002917572731  0.04569835370477893  1.0000
  O   O5        1.0  0.6113447700944616  0.3061349730969027  0.8554521858751514  1.0000
  O   O6        1.0  0.3886537825226099  0.6938624645715592  0.14454541477785915  1.0000
  O   O7        1.0  0.2549279265120461  0.2683394755638203  0.810495536707222  1.0000
  O   O8        1.0  0.745070339298138  0.7316532014317545  0.1895006152340741  1.0000
  O   O9        1.0  0.8949539548275637  0.1621143816221888  0.7009100733227597  1.0000
  O   O10       1.0  0.10504169410867087  0.837883060187977  0.299089151715755  1.0000
  O   O11       1.0  0.6414656563598058  0.03819688506779779  0.612390548096954  1.0000
  O   O12       1.0  0.3585315755514529  0.9618005868269462  0.38760134406769  1.0000
  O   O13       1.0  0.4216159049829642  0.4699612142284053  0.7962904478685999  1.0000
  O   O14       1.0  0.5783781610182929  0.5300324452308728  0.20370353988246137  1.0000
  O   O15       1.0  0.4918324786517799  0.2618293163817569  0.6490657453030408  1.0000
  O   O16       1.0  0.5081615217821778  0.7381643269998079  0.35093150278857616  1.0000
  O   O17       1.0  0.2753773266069857  0.5219793837563104  0.47036589101566045  1.0000
  O   O18       1.0  0.7246071268814589  0.47800656252687895  0.5296526592519583  1.0000
  O   O19       1.0  0.4993004075185893  0.6624714755081627  0.5794827320545934  1.0000
  O   O20       1.0  0.5006949054552975  0.3375193174376747  0.4205112044469601  1.0000
  F   F1        1.0  0.8242129648099448  0.49762825406094174  0.028541055049878118  1.0000
  F   F2        1.0  0.175781133954942  0.5023672895703511  0.9714575876115601  1.0000
