data_image0
_chemical_formula_structural       Zn4H64C104N16O32
_chemical_formula_sum              "Zn4 H64 C104 N16 O32"
_cell_length_a       11.477290560266093
_cell_length_b       18.72665778765731
_cell_length_c       26.524006892091656
_cell_angle_alpha    90.00013694654282
_cell_angle_beta     89.99972549324964
_cell_angle_gamma    91.91405551693958

_space_group_name_H-M_alt    "P 1"
_space_group_IT_number       1

loop_
  _space_group_symop_operation_xyz
  'x, y, z'

loop_
  _atom_site_type_symbol
  _atom_site_label
  _atom_site_symmetry_multiplicity
  _atom_site_fract_x
  _atom_site_fract_y
  _atom_site_fract_z
  _atom_site_occupancy
  Zn  Zn1       1.0  0.47319881466486896  0.14071877803908708  0.0257706185337696  1.0000
  Zn  Zn2       1.0  0.0267975730224919  0.8592798308482088  0.5257700531541545  1.0000
  Zn  Zn3       1.0  0.5268002835693366  0.8592800002482338  0.9742293005583064  1.0000
  Zn  Zn4       1.0  0.9731997624124774  0.14071840163420998  0.4742283578715245  1.0000
  H   H1        1.0  0.5948671606620267  0.038491032827593585  0.9621304394619442  1.0000
  H   H2        1.0  0.9051278264974916  0.9615083647483474  0.46212989454208747  1.0000
  H   H3        1.0  0.4051276783686788  0.9615103879415657  0.0378694796367967  1.0000
  H   H4        1.0  0.09486782496679072  0.038491458991302394  0.5378681394697509  1.0000
  H   H5        1.0  0.7905396963557649  0.9888990698507314  0.9533261846258936  1.0000
  H   H6        1.0  0.7094561788913509  0.011098168616825898  0.4533251960260003  1.0000
  H   H7        1.0  0.20945324190279285  0.0110980652615282  0.0466744885051043  1.0000
  H   H8        1.0  0.29054309671676753  0.9889054180574344  0.5466754771038325  1.0000
  H   H9        1.0  0.9097502158207507  0.13620257069703004  0.0698317525726253  1.0000
  H   H10       1.0  0.5902457711342847  0.8638019755654367  0.5698340786231242  1.0000
  H   H11       1.0  0.09025252630271301  0.8638005047792559  0.9301640193328993  1.0000
  H   H12       1.0  0.40975096866039706  0.13620373086300927  0.4301665945111496  1.0000
  H   H13       1.0  0.7049756809634858  0.17725588154664249  0.075598851978782  1.0000
  H   H14       1.0  0.7950176288689548  0.8227486656311951  0.5756018125971493  1.0000
  H   H15       1.0  0.295027120281901  0.8227487967260886  0.9243976739619271  1.0000
  H   H16       1.0  0.2049746546416884  0.17725434062647585  0.4243977294886605  1.0000
  H   H17       1.0  0.05210142479450041  0.0641296592173148  0.0300787885871188  1.0000
  H   H18       1.0  0.44789335049850376  0.9358737601312868  0.5300793593774102  1.0000
  H   H19       1.0  0.947894167539694  0.9358685617282774  0.9699199994573106  1.0000
  H   H20       1.0  0.5521051915147908  0.0641335606316318  0.4699224448071746  1.0000
  H   H21       1.0  0.37951023885141677  0.2373014390593795  0.9490460819866087  1.0000
  H   H22       1.0  0.12049374577020439  0.762698053614727  0.4490442867827937  1.0000
  H   H23       1.0  0.6204932368321608  0.762697902338381  0.0509549681522046  1.0000
  H   H24       1.0  0.8795106014790762  0.23730129354697738  0.5509537472195731  1.0000
  H   H25       1.0  0.377938423098378  0.3675194383296371  0.9302982721017656  1.0000
  H   H26       1.0  0.12206314996065258  0.632479977805758  0.4302958765835214  1.0000
  H   H27       1.0  0.6220606948261179  0.6324798742281244  0.0697050401432264  1.0000
  H   H28       1.0  0.8779411578672125  0.3675183008269727  0.5697029114518699  1.0000
  H   H29       1.0  0.5658883948641815  0.40334355288862167  0.0701682589699075  1.0000
  H   H30       1.0  0.9341091344886154  0.5966556633146068  0.5701648922091991  1.0000
  H   H31       1.0  0.4341115157688833  0.5966536283793075  0.9298361843232852  1.0000
  H   H32       1.0  0.0658925981125691  0.4033436665409554  0.4298331417958749  1.0000
  H   H33       1.0  0.5560785811486966  0.27165398243368327  0.0832374502829225  1.0000
  H   H34       1.0  0.9439231249546863  0.728344235376305  0.5832357936312391  1.0000
  H   H35       1.0  0.4439273909330268  0.7283421706791201  0.9167632228336516  1.0000
  H   H36       1.0  0.05607423019303331  0.2716545313700038  0.4167618633609819  1.0000
  H   H37       1.0  0.42179024534139137  0.4874922063351761  0.9533815670885913  1.0000
  H   H38       1.0  0.0782032337426202  0.5125072308065554  0.4533764212160278  1.0000
  H   H39       1.0  0.5782036432746481  0.5125070716138752  0.04662400726348179  1.0000
  H   H40       1.0  0.9217950126590538  0.4874920759747495  0.5466219898096085  1.0000
  H   H41       1.0  0.415742088723242  0.021826076370707898  0.8875340398106033  1.0000
  H   H42       1.0  0.0842581650376459  0.9781721245934564  0.38753494635955127  1.0000
  H   H43       1.0  0.5842552467056024  0.9781721561134943  0.11246550226590561  1.0000
  H   H44       1.0  0.9157445376460275  0.0218298823592136  0.6124649727314876  1.0000
  H   H45       1.0  0.3327697470498308  0.9639998225730367  0.8103625701708808  1.0000
  H   H46       1.0  0.1672313229477211  0.03599760031154629  0.3103635968049899  1.0000
  H   H47       1.0  0.6672275883769744  0.03599840991176959  0.1896373489225667  1.0000
  H   H48       1.0  0.8327703899366271  0.9640011952813197  0.6896359452674332  1.0000
  H   H49       1.0  0.0875185823442308  0.11747612347846113  0.9164433680944909  1.0000
  H   H50       1.0  0.41248397291427363  0.88252218612633  0.41644342841567544  1.0000
  H   H51       1.0  0.9124804961813028  0.8825221205437755  0.0835565509971516  1.0000
  H   H52       1.0  0.5875214035312483  0.11748144093131431  0.5835587527756019  1.0000
  H   H53       1.0  0.2045720061073339  0.9858314520785995  0.6463939065259223  1.0000
  H   H54       1.0  0.2954326028601457  0.014165998567222003  0.1463946288728408  1.0000
  H   H55       1.0  0.7954383040125564  0.0141641956126932  0.35360676658569895  1.0000
  H   H56       1.0  0.7045648311038589  0.9858349052447861  0.8536064212735894  1.0000
  H   H57       1.0  0.25000937733307893  0.0394668270581846  0.729646695064403  1.0000
  H   H58       1.0  0.24999605319861468  0.960530363889411  0.2296483571647201  1.0000
  H   H59       1.0  0.7499948516519555  0.9605293145165917  0.27035360103702993  1.0000
  H   H60       1.0  0.7500074421875101  0.0394695117752164  0.7703538240253495  1.0000
  H   H61       1.0  0.9501886871490512  0.8438140174994757  0.715798058014812  1.0000
  H   H62       1.0  0.5498082347679016  0.15618833590492898  0.2157984015906464  1.0000
  H   H63       1.0  0.0498078949844754  0.1561874148059204  0.28420110704824  1.0000
  H   H64       1.0  0.4501918138503315  0.843812585211438  0.7842015175022466  1.0000
  C   C1        1.0  0.6671557096188678  0.0584024285975886  0.9853508544255121  1.0000
  C   C2        1.0  0.8328390851309847  0.941598645137304  0.48535118067815114  1.0000
  C   C3        1.0  0.33283998125457964  0.941598463674609  0.0146486876549545  1.0000
  C   C4        1.0  0.1671583882544425  0.05840332720367769  0.5146491154352545  1.0000
  C   C5        1.0  0.7773257454615035  0.031261550555377896  0.9806300874536831  1.0000
  C   C6        1.0  0.7226707646918628  0.9687373827411179  0.48062993532072795  1.0000
  C   C7        1.0  0.2226681431892459  0.9687377273835479  0.0193690776103566  1.0000
  C   C8        1.0  0.27732936275900505  0.03126567543618109  0.5193703607908303  1.0000
  C   C9        1.0  0.8684869455878542  0.0583580534550805  0.011366204390945702  1.0000
  C   C10       1.0  0.6315086848871304  0.9416430967316525  0.5113678218669193  1.0000
  C   C11       1.0  0.1315086664590979  0.9416407017544017  0.9886318296200257  1.0000
  C   C12       1.0  0.3684897980001622  0.058362621236014406  0.48863398231637223  1.0000
  C   C13       1.0  0.8424331036678439  0.11370521572089126  0.04498148599417821  1.0000
  C   C14       1.0  0.6575656882871996  0.8862971322755722  0.5449837096416985  1.0000
  C   C15       1.0  0.15756696467335024  0.8862962396563886  0.9550157939805429  1.0000
  C   C16       1.0  0.34243447857895154  0.11370699443248361  0.4550169634876652  1.0000
  C   C17       1.0  0.7294804779336629  0.1371971604049236  0.0481436647420779  1.0000
  C   C18       1.0  0.770515665121039  0.8628051802755079  0.5481456131018945  1.0000
  C   C19       1.0  0.27052135321493154  0.8628048407748635  0.9518536152312649  1.0000
  C   C20       1.0  0.2294809367191064  0.13719678629556845  0.4518539289785366  1.0000
  C   C21       1.0  0.9855608668420005  0.031107445274976393  0.010845398873641398  1.0000
  C   C22       1.0  0.5144356802416895  0.9688947775650689  0.5108469295700999  1.0000
  C   C23       1.0  0.014435577334943186  0.9688902471736467  0.9891530121525065  1.0000
  C   C24       1.0  0.4855637333230193  0.031112548965971595  0.48915449759663676  1.0000
  C   C25       1.0  0.42065274668061653  0.27610627153015344  0.9744845360709391  1.0000
  C   C26       1.0  0.0793509426768182  0.7238927672482801  0.474482384099332  1.0000
  C   C27       1.0  0.5793507290009218  0.723893069868204  0.0255168910848127  1.0000
  C   C28       1.0  0.9206516614716876  0.2761065683765906  0.5255160269217782  1.0000
  C   C29       1.0  0.41999953386591227  0.3487923140905308  0.9644823386555146  1.0000
  C   C30       1.0  0.0800025010317924  0.6512061472843625  0.4644800625094873  1.0000
  C   C31       1.0  0.5800013074506936  0.6512064757389807  0.0355205965703007  1.0000
  C   C32       1.0  0.9200000834080486  0.3487926540754316  0.5355183485111965  1.0000
  C   C33       1.0  0.47325779484302904  0.3977265621556541  0.9982245868359171  1.0000
  C   C34       1.0  0.02673953651772359  0.6022725112432992  0.4982208310328531  1.0000
  C   C35       1.0  0.526738708429278  0.6022727330971591  0.0017794794456734  1.0000
  C   C36       1.0  0.9732613048274672  0.39772627857787063  0.5017768259557513  1.0000
  C   C37       1.0  0.5243031913459576  0.3691426966136504  0.04172649226721601  1.0000
  C   C38       1.0  0.975697241030595  0.6308559127737752  0.5417242276021312  1.0000
  C   C39       1.0  0.47569673900189713  0.630855018917572  0.9582768199755805  1.0000
  C   C40       1.0  0.024304471859878198  0.3691428828173001  0.45827418341946197  1.0000
  C   C41       1.0  0.5206059156905383  0.295915619683818  0.0494217270872355  1.0000
  C   C42       1.0  0.9793944530368107  0.7040835482811121  0.5494195784382114  1.0000
  C   C43       1.0  0.47939660960696534  0.7040815788854856  0.9505797000676991  1.0000
  C   C44       1.0  0.020604625500979495  0.2959146957375508  0.4505780785517715  1.0000
  C   C45       1.0  0.47233735882733907  0.47372674141715976  0.9867520264205183  1.0000
  C   C46       1.0  0.02765748216453549  0.5262722784279743  0.48674738625339126  1.0000
  C   C47       1.0  0.5276573816293962  0.5262720080355194  0.0132535479302192  1.0000
  C   C48       1.0  0.9723398926918562  0.4737270225834251  0.5132502707392632  1.0000
  C   C49       1.0  0.304040728198153  0.10796918121867803  0.9541124051144648  1.0000
  C   C50       1.0  0.1959588240753618  0.8920297643569272  0.4541129331263604  1.0000
  C   C51       1.0  0.6959583503253485  0.8920290628041484  0.0458878909941163  1.0000
  C   C52       1.0  0.8040412048321671  0.10797062249494618  0.545887362983045  1.0000
  C   C53       1.0  0.2568656764964601  0.07314535033578548  0.9069988796028666  1.0000
  C   C54       1.0  0.2431352182539541  0.9268523836295443  0.4070001220878082  1.0000
  C   C55       1.0  0.7431316195109687  0.9268518136194499  0.0930014165066666  1.0000
  C   C56       1.0  0.7568674450021717  0.07314855479593518  0.5930016820870918  1.0000
  C   C57       1.0  0.32560743584782875  0.030112123938692996  0.8767254420678583  1.0000
  C   C58       1.0  0.17439295470499866  0.9698865771416719  0.3767261466130236  1.0000
  C   C59       1.0  0.6743898995789764  0.969886108546106  0.12327447702559619  1.0000
  C   C60       1.0  0.8256096888506336  0.030113827016350597  0.6232741494936673  1.0000
  C   C61       1.0  0.27923672766092983  0.9982569191902328  0.8333840635278164  1.0000
  C   C62       1.0  0.2207667470288541  0.0017416622636545996  0.3333845436016887  1.0000
  C   C63       1.0  0.7207623508625645  0.0017413248326008  0.1666162325807719  1.0000
  C   C64       1.0  0.7792358571135266  0.9982576733630067  0.6666149984702584  1.0000
  C   C65       1.0  0.16376942579702103  0.0085060313293539  0.8185318963614634  1.0000
  C   C66       1.0  0.3362342294791389  0.9914930374675067  0.3185334308977659  1.0000
  C   C67       1.0  0.8362296921519815  0.9914932812212598  0.18146689168020907  1.0000
  C   C68       1.0  0.663769305334526  0.008507906724311499  0.6814668652084565  1.0000
  C   C69       1.0  0.09713175744361992  0.052857008013241086  0.8493248621631082  1.0000
  C   C70       1.0  0.4028715445719228  0.9471416238033682  0.3493250517180115  1.0000
  C   C71       1.0  0.9028664692452965  0.947141764504167  0.150674302895986  1.0000
  C   C72       1.0  0.5971320296570327  0.0528603889192141  0.650675621406009  1.0000
  C   C73       1.0  0.1415335397869768  0.08402448653766469  0.8931421283435482  1.0000
  C   C74       1.0  0.358467505069676  0.9159732036471979  0.3931423578518434  1.0000
  C   C75       1.0  0.8584646277718592  0.9159726831856858  0.10685779074812979  1.0000
  C   C76       1.0  0.6415352173165374  0.08402933757234618  0.6068586922904584  1.0000
  C   C77       1.0  0.04203438738053931  0.8782550247812752  0.6256052709060427  1.0000
  C   C78       1.0  0.4579670196993392  0.1217439399070912  0.1256069670513966  1.0000
  C   C79       1.0  0.9579690094765424  0.12174217955376322  0.37439427116327545  1.0000
  C   C80       1.0  0.5420303551407172  0.878255361109069  0.8743937060768017  1.0000
  C   C81       1.0  0.07339764795173657  0.9115299030695565  0.6754499223358295  1.0000
  C   C82       1.0  0.4266049820043635  0.08846976489938639  0.17545125065878148  1.0000
  C   C83       1.0  0.9266048379406868  0.08846622696600549  0.3245492427165857  1.0000
  C   C84       1.0  0.5733951454464972  0.9115332932779054  0.8245490454527769  1.0000
  C   C85       1.0  0.15810424793833283  0.9667207983229958  0.6798541925518364  1.0000
  C   C86       1.0  0.3418991861495543  0.03327835506451749  0.179855604302567  1.0000
  C   C87       1.0  0.8419008328914828  0.0332748147542219  0.32014534951438384  1.0000
  C   C88       1.0  0.658100069747853  0.9667246973452566  0.820145445843785  1.0000
  C   C89       1.0  0.1833091376445424  0.9968601340139711  0.7267430349205098  1.0000
  C   C90       1.0  0.31669378852639346  0.0031391675142274  0.2267448253368087  1.0000
  C   C91       1.0  0.8166925358224761  0.0031375930487272  0.2732565071510463  1.0000
  C   C92       1.0  0.6833062995010053  0.9968628221346876  0.7732566018247128  1.0000
  C   C93       1.0  0.12494492609155831  0.9739692025091242  0.7706749757571814  1.0000
  C   C94       1.0  0.37505584022433425  0.026031829074256104  0.2706763061010946  1.0000
  C   C95       1.0  0.8750524487566622  0.0260300985046484  0.22932418930324866  1.0000
  C   C96       1.0  0.6249468821618722  0.973970712145288  0.7293247440412073  1.0000
  C   C97       1.0  0.04040413985793379  0.9180529801317402  0.7653236381941397  1.0000
  C   C98       1.0  0.45959753626854655  0.08194750604759088  0.2653245096620509  1.0000
  C   C99       1.0  0.9595941262503659  0.0819468609152452  0.2346751498488686  1.0000
  C   C100      1.0  0.5404051664110411  0.9180545009062726  0.7346761634628789  1.0000
  C   C101      1.0  0.015192541289870602  0.8872357835136598  0.7186380073921796  1.0000
  C   C102      1.0  0.4848096208354633  0.112764020904315  0.21864000939321218  1.0000
  C   C103      1.0  0.9848074285018669  0.11276300053999222  0.2813604036312114  1.0000
  C   C104      1.0  0.5151922102968031  0.8872379802802469  0.7813602867156745  1.0000
  N   N1        1.0  0.6425461384244644  0.11021248309516098  0.018859695579436696  1.0000
  N   N2        1.0  0.8574502824351101  0.8897886965330597  0.5188600001361863  1.0000
  N   N3        1.0  0.35745309777653494  0.8897900350459478  0.981139092464822  1.0000
  N   N4        1.0  0.1425471712518629  0.1102127415398613  0.481138410892072  1.0000
  N   N5        1.0  0.4701633858850586  0.24968617270774013  0.0162499048904294  1.0000
  N   N6        1.0  0.0298392057864376  0.75031244647883  0.5162480180066282  1.0000
  N   N7        1.0  0.52983915912111  0.7503115601266471  0.9837515222649316  1.0000
  N   N8        1.0  0.9701598924600177  0.24968633180491645  0.4837496389837809  1.0000
  N   N9        1.0  0.9765020008890559  0.06797087509576728  0.8360608787875704  1.0000
  N   N10       1.0  0.5235004330351529  0.9320276302927013  0.33605994901527225  1.0000
  N   N11       1.0  0.023497097341064  0.93202790319274  0.16393979433838976  1.0000
  N   N12       1.0  0.47650221051843294  0.06797277386591821  0.6639407241083646  1.0000
  N   N13       1.0  0.9747056229497773  0.888828262641745  0.808785906364207  1.0000
  N   N14       1.0  0.5252962939934634  0.11117175360358542  0.30878660202960617  1.0000
  N   N15       1.0  0.025290008803800404  0.11117102683341777  0.1912125046641364  1.0000
  N   N16       1.0  0.4747098554703442  0.888829207893778  0.6912133170569561  1.0000
  O   O1        1.0  0.41454329496025377  0.09882017897658099  0.9619859039835248  1.0000
  O   O2        1.0  0.08545708299037359  0.9011798657737414  0.4619866779411978  1.0000
  O   O3        1.0  0.5854566748233125  0.9011786050794511  0.038014015107641796  1.0000
  O   O4        1.0  0.9145429656278667  0.0988210553426185  0.5380132411516882  1.0000
  O   O5        1.0  0.23932330304238286  0.14303197653897828  0.981858310131649  1.0000
  O   O6        1.0  0.260674264696739  0.8569686479572237  0.481860529000123  1.0000
  O   O7        1.0  0.7606750221939507  0.8569694673026546  0.0181401008957067  1.0000
  O   O8        1.0  0.7393231101453566  0.1430306530583394  0.518139767111137  1.0000
  O   O9        1.0  0.9686596463076  0.8271343878027154  0.6239171105160394  1.0000
  O   O10       1.0  0.5313407278653701  0.17286341850140732  0.1239186518447042  1.0000
  O   O11       1.0  0.0313409979366313  0.17285905937178814  0.37608318558685744  1.0000
  O   O12       1.0  0.4686558936793618  0.8271390823359468  0.8760816442700374  1.0000
  O   O13       1.0  0.09296413521698099  0.9065497362535878  0.5863796448900658  1.0000
  O   O14       1.0  0.40703254630758323  0.0934512069533113  0.086381022446929  1.0000
  O   O15       1.0  0.907030487024514  0.0934458075978668  0.4136191431531131  1.0000
  O   O16       1.0  0.5929683541472743  0.9065491856678705  0.9136196506785126  1.0000
  O   O17       1.0  0.9484918370578728  0.06427453793300228  0.7907366819983961  1.0000
  O   O18       1.0  0.5515103542399942  0.9357275583466774  0.2907364540849073  1.0000
  O   O19       1.0  0.0515065275876339  0.9357279744411855  0.2092632370975949  1.0000
  O   O20       1.0  0.4484914571836002  0.06427390857279387  0.7092638420235531  1.0000
  O   O21       1.0  0.9090316844922199  0.0840819897182215  0.8705048536779998  1.0000
  O   O22       1.0  0.5909701989508561  0.9159118161049589  0.37050300191629054  1.0000
  O   O23       1.0  0.09096636480849439  0.9159119744164173  0.129496196461929  1.0000
  O   O24       1.0  0.40903329645159664  0.0840880595549081  0.629496163138235  1.0000
  O   O25       1.0  0.89005119770394  0.847711619761995  0.8004037422162256  1.0000
  O   O26       1.0  0.6099507706147023  0.15228730147226344  0.3004054618308416  1.0000
  O   O27       1.0  0.1099470092844825  0.152286618487949  0.1995939147746597  1.0000
  O   O28       1.0  0.3900536357483304  0.8477136484882662  0.699594834274471  1.0000
  O   O29       1.0  0.007648387923069287  0.9067626330454528  0.8518524444352379  1.0000
  O   O30       1.0  0.492350568379969  0.09323704644436497  0.3518532666596883  1.0000
  O   O31       1.0  0.992347263537127  0.09323719069538326  0.1481463436104775  1.0000
  O   O32       1.0  0.5076555613731274  0.9067633807885118  0.6481470294433861  1.0000
