data_image0
_chemical_formula_structural       K4H4C8O16
_chemical_formula_sum              "K4 H4 C8 O16"
_cell_length_a       4.2540184756198665
_cell_length_b       7.693436552563232
_cell_length_c       12.965391761016676
_cell_angle_alpha    89.99981635410397
_cell_angle_beta     90.00003372966391
_cell_angle_gamma    101.69063751880387

_space_group_name_H-M_alt    "P 1"
_space_group_IT_number       1

loop_
  _space_group_symop_operation_xyz
  'x, y, z'

loop_
  _atom_site_type_symbol
  _atom_site_label
  _atom_site_symmetry_multiplicity
  _atom_site_fract_x
  _atom_site_fract_y
  _atom_site_fract_z
  _atom_site_occupancy
  K   K1        1.0  0.1853480996690351  0.7714172127330841  0.9315245500704704  1.0000
  K   K2        1.0  0.8146653901546516  0.7285801475525062  0.4315227912530872  1.0000
  K   K3        1.0  0.8146603319736558  0.22857891836704172  0.06847677415161968  1.0000
  K   K4        1.0  0.1853477426775356  0.2714159828744585  0.5684777616854005  1.0000
  H   H1        1.0  0.8642145614163469  0.021797331557778  0.77424353991411  1.0000
  H   H2        1.0  0.1357865059367072  0.47820309111597237  0.2742450319381645  1.0000
  H   H3        1.0  0.13578309126839375  0.9782014559221041  0.2257562417362919  1.0000
  H   H4        1.0  0.8642149583658354  0.5217996780532346  0.7257562922769478  1.0000
  C   C1        1.0  0.5992007864451381  0.8724463336724142  0.6718732577073891  1.0000
  C   C2        1.0  0.4008109746570626  0.6275604003929162  0.17187469612134976  1.0000
  C   C3        1.0  0.4008053790470569  0.12755643482782383  0.3281257526559926  1.0000
  C   C4        1.0  0.5991909766533611  0.37244369612419354  0.8281250855244338  1.0000
  C   C5        1.0  0.3146058759668975  0.7133104529126797  0.6530617632353068  1.0000
  C   C6        1.0  0.6853898371889998  0.7866910758865657  0.15306372542248428  1.0000
  C   C7        1.0  0.6853917767179212  0.28668833456929127  0.34693724713104496  1.0000
  C   C8        1.0  0.3146064389164352  0.21331036661628386  0.8469368275093316  1.0000
  O   O1        1.0  0.6583151320523513  0.9139842977946416  0.7696419626988842  1.0000
  O   O2        1.0  0.3416800714570912  0.5860152710158175  0.2696434686547136  1.0000
  O   O3        1.0  0.3416825206324675  0.08601448968733652  0.23035704766746073  1.0000
  O   O4        1.0  0.6583166916559406  0.4139874988265575  0.7303586268440084  1.0000
  O   O5        1.0  0.13105367367565177  0.6664921799902644  0.73018016933662  1.0000
  O   O6        1.0  0.8689467256942507  0.83350892964134  0.23017976413186858  1.0000
  O   O7        1.0  0.8689468166114765  0.3335079344936105  0.26982038359686555  1.0000
  O   O8        1.0  0.13105562817984406  0.16648985716119563  0.7698207888030523  1.0000
  O   O9        1.0  0.7510917590310627  0.9495580697578488  0.5982649335166741  1.0000
  O   O10       1.0  0.24890112716366997  0.5504424294089106  0.09826417531824211  1.0000
  O   O11       1.0  0.24890727023299067  0.0504380626990724  0.4017340768523282  1.0000
  O   O12       1.0  0.7510890711731832  0.4495616687963421  0.9017356063263973  1.0000
  O   O13       1.0  0.2891536100859256  0.6460994304428527  0.5645940003758554  1.0000
  O   O14       1.0  0.7108458474237551  0.8538999230887471  0.0645935258773491  1.0000
  O   O15       1.0  0.7108412049962851  0.35389803002885145  0.4354065525595985  1.0000
  O   O16       1.0  0.28915512987119035  0.14610151874094157  0.9354062557708571  1.0000
