data_image0
_chemical_formula_structural       Cu3H26C30N4O10
_chemical_formula_sum              "Cu3 H26 C30 N4 O10"
_cell_length_a       7.78669317831277
_cell_length_b       10.207789246994368
_cell_length_c       10.346060451893662
_cell_angle_alpha    112.40409383367646
_cell_angle_beta     93.5924050466242
_cell_angle_gamma    106.46225523730662

_space_group_name_H-M_alt    "P 1"
_space_group_IT_number       1

loop_
  _space_group_symop_operation_xyz
  'x, y, z'

loop_
  _atom_site_type_symbol
  _atom_site_label
  _atom_site_symmetry_multiplicity
  _atom_site_fract_x
  _atom_site_fract_y
  _atom_site_fract_z
  _atom_site_occupancy
  Cu  Cu1       1.0  0.4962729948229097  0.49772789443556315  0.49880422189246326  1.0000
  Cu  Cu2       1.0  0.10252857020606855  0.512065884989575  0.37633722687968424  1.0000
  Cu  Cu3       1.0  0.8964276295153439  0.48738576596178257  0.6238178761916089  1.0000
  H   H1        1.0  0.40531007736052543  0.9523344212341416  0.08599368568290101  1.0000
  H   H2        1.0  0.5952465677567957  0.04627748997422291  0.9151627409298725  1.0000
  H   H3        1.0  0.6795626282984132  0.880699293077882  0.10589875639858815  1.0000
  H   H4        1.0  0.3206504827157275  0.11770727441627568  0.896846570385648  1.0000
  H   H5        1.0  0.9556269148136282  0.057888460533625605  0.2954534575744603  1.0000
  H   H6        1.0  0.04396181812942503  0.9417960532536824  0.7080671855822587  1.0000
  H   H7        1.0  0.2546028934955729  0.1250124404925046  0.14976396738281036  1.0000
  H   H8        1.0  0.7433942201005407  0.8720029161063537  0.8512520854904935  1.0000
  H   H9        1.0  0.2419361144667604  0.26790740398906365  0.04391144207467328  1.0000
  H   H10       1.0  0.7591821696817718  0.734147407801224  0.9563791674393584  1.0000
  H   H11       1.0  0.5696049589802854  0.33391130260649504  0.8225848402702595  1.0000
  H   H12       1.0  0.42970943328276706  0.6655489132233116  0.17692948874370285  1.0000
  H   H13       1.0  0.78742626743432  0.21711745734728546  0.6922604561583867  1.0000
  H   H14       1.0  0.21313339519344515  0.7833837248438087  0.3077771667895561  1.0000
  H   H15       1.0  0.06036918587741273  0.21573765043334706  0.8281035254124943  1.0000
  H   H16       1.0  0.9395285133619925  0.7845280251519569  0.1722130947443574  1.0000
  H   H17       1.0  0.23085573562576664  0.11934713507736212  0.46138835149881874  1.0000
  H   H18       1.0  0.7708688628465127  0.8798722511868746  0.5385036906276213  1.0000
  H   H19       1.0  0.23678428910186974  0.14747412436715732  0.643383786474068  1.0000
  H   H20       1.0  0.7672548383776316  0.8544159299526299  0.35736527550007935  1.0000
  H   H21       1.0  0.44376766932693107  0.19913448136466633  0.5818473386091796  1.0000
  H   H22       1.0  0.5589772896838738  0.8031424989771309  0.4172997002112097  1.0000
  H   H23       1.0  0.6522893531873779  0.5086326670423703  0.20252620404071575  1.0000
  H   H24       1.0  0.34725680787166624  0.49321443571584217  0.7969416794371538  1.0000
  H   H25       1.0  0.17166361388219545  0.334969614487335  0.5695309302475378  1.0000
  H   H26       1.0  0.8260715023728553  0.6631243668368186  0.4289041642416294  1.0000
  C   C1        1.0  0.8268697681134684  0.22244398979938043  0.3901687748644703  1.0000
  C   C2        1.0  0.17200064995653722  0.777012389774342  0.6111014843846974  1.0000
  C   C3        1.0  0.6670202659664428  0.26211348150415864  0.3807100197326178  1.0000
  C   C4        1.0  0.3350104598648117  0.739971001542628  0.6173553692558115  1.0000
  C   C5        1.0  0.5162816901360614  0.1681097332466308  0.26804492270834857  1.0000
  C   C6        1.0  0.48517683179667176  0.8323559836823052  0.7312039457448307  1.0000
  C   C7        1.0  0.5228738011161128  0.027651858334493802  0.17075502917719376  1.0000
  C   C8        1.0  0.4779920897128919  0.9716146664580521  0.8298928613942849  1.0000
  C   C9        1.0  0.6778356780670621  0.9890729560783244  0.18133296764678875  1.0000
  C   C10       1.0  0.32257977564616175  0.010058383302663303  0.8200286083839357  1.0000
  C   C11       1.0  0.8316174338616165  0.0867900215430097  0.289076895703694  1.0000
  C   C12       1.0  0.1681852057848588  0.9129036836168681  0.7128270695858276  1.0000
  C   C13       1.0  0.36347213464812717  0.21067502398032195  0.23925319440034803  1.0000
  C   C14       1.0  0.6357934364182541  0.7875079246878229  0.7602129951616377  1.0000
  C   C15       1.0  0.1505048288953716  0.3155339963022783  0.10857712333102403  1.0000
  C   C16       1.0  0.8487266380195209  0.6839552521976062  0.8914564759618385  1.0000
  C   C17       1.0  0.992837763204392  0.31992088936514307  0.03506418358632152  1.0000
  C   C18       1.0  0.0064576240540717795  0.6799177658379849  0.9649181666843063  1.0000
  C   C19       1.0  0.8666181284516485  0.38371781343768424  0.1087927464110834  1.0000
  C   C20       1.0  0.1329607445005153  0.6168339931503797  0.8912504991112725  1.0000
  C   C21       1.0  0.7134143646431711  0.3875965697042218  0.02788259581761575  1.0000
  C   C22       1.0  0.2864842904743484  0.6133177053804816  0.9718905833786166  1.0000
  C   C23       1.0  0.6863283322914953  0.3274981833600635  0.88055536677642  1.0000
  C   C24       1.0  0.3132545434424047  0.6725165359040589  0.11915881539388107  1.0000
  C   C25       1.0  0.8102538213554951  0.2632254741648196  0.8082886793735466  1.0000
  C   C26       1.0  0.18951351942652642  0.7369144227958982  0.19172095278095472  1.0000
  C   C27       1.0  0.9612591908870061  0.26076873038088894  0.883470174518237  1.0000
  C   C28       1.0  0.03847417552402993  0.739397288145156  0.11669415372869457  1.0000
  C   C29       1.0  0.3010224768592948  0.19489495011740843  0.5720722334085124  1.0000
  C   C30       1.0  0.7011282382255076  0.8059676157114878  0.42737732138608914  1.0000
  N   N1        1.0  0.34505704980179536  0.3427531151896445  0.3052014327703318  1.0000
  N   N2        1.0  0.6520474692928888  0.6543988665029021  0.6950987404125613  1.0000
  N   N3        1.0  0.1992667904876981  0.3683710111277918  0.2480526892799375  1.0000
  N   N4        1.0  0.7963093880026053  0.6282465435547807  0.7520602005132417  1.0000
  O   O1        1.0  0.9677722500340522  0.3237682004794281  0.49563408805670406  1.0000
  O   O2        1.0  0.030293319948647535  0.6748851711330773  0.5080900711855278  1.0000
  O   O3        1.0  0.6717803723624984  0.3924455307941058  0.4838828427197867  1.0000
  O   O4        1.0  0.33682856672508177  0.6172171993092591  0.5088230533122698  1.0000
  O   O5        1.0  0.8800585445890546  0.4421924022286349  0.24668065436431164  1.0000
  O   O6        1.0  0.11900004381146098  0.5579303574627731  0.7531947961162897  1.0000
  O   O7        1.0  0.5971503939586  0.45147845054136576  0.09898413895964352  1.0000
  O   O8        1.0  0.4027803862544703  0.5495530217543209  0.9003291634997552  1.0000
  O   O9        1.0  0.29746371199912863  0.3439663414759338  0.608305121905687  1.0000
  O   O10       1.0  0.7019857881202184  0.6560257898044881  0.389278648182156  1.0000
