data_image0
_chemical_formula_structural       Cu2H40C48N8O12
_chemical_formula_sum              "Cu2 H40 C48 N8 O12"
_cell_length_a       6.817867099034244
_cell_length_b       10.626499968752235
_cell_length_c       14.636901093367554
_cell_angle_alpha    96.10282145326677
_cell_angle_beta     90.00033242584479
_cell_angle_gamma    89.99982318183653

_space_group_name_H-M_alt    "P 1"
_space_group_IT_number       1

loop_
  _space_group_symop_operation_xyz
  'x, y, z'

loop_
  _atom_site_type_symbol
  _atom_site_label
  _atom_site_symmetry_multiplicity
  _atom_site_fract_x
  _atom_site_fract_y
  _atom_site_fract_z
  _atom_site_occupancy
  Cu  Cu1       1.0  0.4464679298710905  0.9111474683301921  0.09151761418627304  1.0000
  Cu  Cu2       1.0  0.9464671093606043  0.0888521221679284  0.9084827494360895  1.0000
  H   H1        1.0  0.4105528512297596  0.37397513552438255  0.7302043443741654  1.0000
  H   H2        1.0  0.910553272455239  0.6260245168874689  0.2697945601556456  1.0000
  H   H3        1.0  0.3611960340138438  0.8755064821752256  0.256248876468142  1.0000
  H   H4        1.0  0.861195933143641  0.12449230336710569  0.743749825749241  1.0000
  H   H5        1.0  0.5586591597812927  0.9479261032013185  0.930960993684977  1.0000
  H   H6        1.0  0.058659411254765814  0.05207315975773949  0.0690403403705275  1.0000
  H   H7        1.0  0.293289887686278  0.4519882746782643  0.44572893851608353  1.0000
  H   H8        1.0  0.7932898105397684  0.548013455465103  0.5542711774744122  1.0000
  H   H9        1.0  0.2973506297799701  0.5792607124246416  0.15426181852247822  1.0000
  H   H10       1.0  0.7973503766427614  0.4207400688103176  0.8457368673826553  1.0000
  H   H11       1.0  0.27324740930625063  0.425850196115924  0.03469366521912321  1.0000
  H   H12       1.0  0.773246438601035  0.5741487311502239  0.9653048092601682  1.0000
  H   H13       1.0  0.31412043902165004  0.3369023827145483  0.872691091515087  1.0000
  H   H14       1.0  0.8141233156924271  0.6630974271095126  0.12730688026549336  1.0000
  H   H15       1.0  0.5473152852357686  0.6958811822626885  0.8094105326762674  1.0000
  H   H16       1.0  0.0473158385641383  0.3041190494211037  0.19058948041656273  1.0000
  H   H17       1.0  0.5696748239813657  0.249631424274888  0.03099967094455281  1.0000
  H   H18       1.0  0.06967849748257042  0.7503697137404969  0.9690018406509683  1.0000
  H   H19       1.0  0.5407423796061863  0.4102919215329307  0.15065752897370294  1.0000
  H   H20       1.0  0.0407394705865798  0.5897073682802799  0.8493444417306862  1.0000
  H   H21       1.0  0.4357894937924627  0.4972301223682649  0.30652595734687793  1.0000
  H   H22       1.0  0.9357884262888445  0.5027704297226022  0.6934751361769715  1.0000
  H   H23       1.0  0.2891100006125384  0.119399672897643  0.36676892846661974  1.0000
  H   H24       1.0  0.7891166453737313  0.8806030124009752  0.6332305681674273  1.0000
  H   H25       1.0  0.8656415271565976  0.45994291730728076  0.3875872230582474  1.0000
  H   H26       1.0  0.3656491174285179  0.5400558570251733  0.6124128567749099  1.0000
  H   H27       1.0  0.8607162389034569  0.24668344084445687  0.30626135495144524  1.0000
  H   H28       1.0  0.36072088418623593  0.7533162878321631  0.6937387866298368  1.0000
  H   H29       1.0  0.7091194466885398  0.10669099629536301  0.5648676180359331  1.0000
  H   H30       1.0  0.2091202145024553  0.8933080282470343  0.43513273953239223  1.0000
  H   H31       1.0  0.7081982391738606  0.32840615424360914  0.6345286438460819  1.0000
  H   H32       1.0  0.20819920363889113  0.6715938222281963  0.36547041974821337  1.0000
  H   H33       1.0  0.6577769220659279  0.9333739104211104  0.4932794880447347  1.0000
  H   H34       1.0  0.1577795993818896  0.06662614729977182  0.5067194449892156  1.0000
  H   H35       1.0  0.7081534431648606  0.7171439012115783  0.41994837663441603  1.0000
  H   H36       1.0  0.2081559955839225  0.2828570217361629  0.5800507613515722  1.0000
  H   H37       1.0  0.9696777857794389  0.8474873384001851  0.19141916131745526  1.0000
  H   H38       1.0  0.4696837964468514  0.152512214691356  0.8085812624140944  1.0000
  H   H39       1.0  0.9414512885899953  0.0690359425022748  0.2575843356032267  1.0000
  H   H40       1.0  0.4414556877684035  0.9309627056304989  0.7424173066245177  1.0000
  C   C1        1.0  0.3491347145967297  0.6501587675272374  0.11085060819814174  1.0000
  C   C2        1.0  0.8491338723872561  0.34984003745167763  0.889148062786319  1.0000
  C   C3        1.0  0.377021232496503  0.6118416053314775  0.015021924531005532  1.0000
  C   C4        1.0  0.8770184621519521  0.38815809909678484  0.9849775762140853  1.0000
  C   C5        1.0  0.3312214345038029  0.4848237096533198  0.984480582306887  1.0000
  C   C6        1.0  0.8312206987738692  0.5151770149815319  0.015518874351023717  1.0000
  C   C7        1.0  0.355473450052564  0.4343846850716701  0.8945241985491565  1.0000
  C   C8        1.0  0.8554735888187041  0.5656150560970444  0.10547456335593354  1.0000
  C   C9        1.0  0.43316432088504087  0.5117532004567947  0.8305270493314085  1.0000
  C   C10       1.0  0.9331656236098382  0.4882473619225607  0.16947198825603496  1.0000
  C   C11       1.0  0.482613675924796  0.6379384833282556  0.8586404754184687  1.0000
  C   C12       1.0  0.9826152336299288  0.36206199936668776  0.14135869021504283  1.0000
  C   C13       1.0  0.45400986111417296  0.6912408048434742  0.9499611708846205  1.0000
  C   C14       1.0  0.954010541106797  0.3087587735001377  0.05003921226900591  1.0000
  C   C15       1.0  0.5255353634558801  0.1765591757375873  0.07433947662185152  1.0000
  C   C16       1.0  0.0255352163175218  0.8234401405984998  0.9256617716613251  1.0000
  C   C17       1.0  0.47270260841370515  0.2162365883648576  0.16763120366667292  1.0000
  C   C18       1.0  0.9727033861531211  0.7837629578365722  0.8323699109379279  1.0000
  C   C19       1.0  0.482932957306538  0.34700677069225344  0.19818315251450266  1.0000
  C   C20       1.0  0.9829325149808383  0.652991812619632  0.8018179140736736  1.0000
  C   C21       1.0  0.4249885709164261  0.39612950720317736  0.28510969336810643  1.0000
  C   C22       1.0  0.9249887521043051  0.6038701179066309  0.7148906146362108  1.0000
  C   C23       1.0  0.35093666567765774  0.3132458008467154  0.34659640081422793  1.0000
  C   C24       1.0  0.8509386211195107  0.6867558384212769  0.6534031814040449  1.0000
  C   C25       1.0  0.34175211298715885  0.18325914219639827  0.3187002704583719  1.0000
  C   C26       1.0  0.8417552593123077  0.8167415614257933  0.6813005795675409  1.0000
  C   C27       1.0  0.4042536442554123  0.13199889825570207  0.23114156368349376  1.0000
  C   C28       1.0  0.904257631409834  0.8679998138589087  0.7688586161284406  1.0000
  C   C29       1.0  0.8291950689068344  0.37973350380429577  0.42503137518624373  1.0000
  C   C30       1.0  0.3292003442517029  0.6202662756659976  0.5749686847739285  1.0000
  C   C31       1.0  0.8293916196871152  0.25821256594065284  0.3795109219519902  1.0000
  C   C32       1.0  0.3293968782781889  0.7417872152329608  0.6204884554698611  1.0000
  C   C33       1.0  0.7878454509186027  0.1546652566977613  0.42808983147579494  1.0000
  C   C34       1.0  0.2878496115532911  0.8453336450204816  0.5719093638580333  1.0000
  C   C35       1.0  0.7425400104286907  0.1814775434689722  0.5218643016317515  1.0000
  C   C36       1.0  0.24254166944033537  0.8185214292378262  0.47813545943073893  1.0000
  C   C37       1.0  0.7423536854135621  0.3060827059182927  0.5619029746935384  1.0000
  C   C38       1.0  0.2423569106563974  0.6939181598975495  0.4380969348997753  1.0000
  C   C39       1.0  0.7980128893498133  0.023272985239344696  0.38318123046852304  1.0000
  C   C40       1.0  0.2980169784218702  0.9767268444798277  0.6168187487459846  1.0000
  C   C41       1.0  0.7295335856863545  0.9200940199609705  0.42657458778612084  1.0000
  C   C42       1.0  0.2295384936083096  0.079905920107187  0.5734252141069619  1.0000
  C   C43       1.0  0.7546587791210938  0.7974206762211722  0.3846910188543689  1.0000
  C   C44       1.0  0.25466215293237576  0.20257827897572162  0.6153080905438133  1.0000
  C   C45       1.0  0.9015072693479168  0.8697482571746631  0.2586302342978258  1.0000
  C   C46       1.0  0.40151108609428127  0.13025330060079907  0.7413694788719881  1.0000
  C   C47       1.0  0.8837626493080891  0.995022891454276  0.29604273577894713  1.0000
  C   C48       1.0  0.3837666013357294  0.004976802105254299  0.7039567824312911  1.0000
  N   N1        1.0  0.38101855957980757  0.7634962089024384  0.15025369458539475  1.0000
  N   N2        1.0  0.8810148373818691  0.23650348908518032  0.8497458165092697  1.0000
  N   N3        1.0  0.5214021514724934  0.0601492187966954  0.03677149156100511  1.0000
  N   N4        1.0  0.02140191339317  0.9398510506048652  0.9632298205250154  1.0000
  N   N5        1.0  0.8410783193358782  0.7716460329843146  0.3023805095757269  1.0000
  N   N6        1.0  0.34108259080399245  0.22835467576281585  0.6976189726123965  1.0000
  N   N7        1.0  0.7867380074035281  0.40396978872861655  0.514723125262826  1.0000
  N   N8        1.0  0.2867422861712114  0.5960310055641216  0.4852768992620258  1.0000
  O   O1        1.0  0.4621377531613931  0.4656340050571047  0.7420421396819847  1.0000
  O   O2        1.0  0.9621384660635428  0.5343674570390816  0.25795704743506326  1.0000
  O   O3        1.0  0.5007472092433076  0.8116720470958751  0.9734267204802763  1.0000
  O   O4        1.0  0.0007462821057870999  0.1883273112052635  0.026573780567396506  1.0000
  O   O5        1.0  0.3481583873590282  0.7805441321339333  0.24463887664715867  1.0000
  O   O6        1.0  0.8481579761774827  0.21945562082294148  0.7553598663153667  1.0000
  O   O7        1.0  0.3976505747655352  0.007650088793397497  0.21037171655724055  1.0000
  O   O8        1.0  0.8976556913666088  0.9923514731757732  0.7896286696748619  1.0000
  O   O9        1.0  0.5725587116434241  0.0426007229596905  0.9435515730836174  1.0000
  O   O10       1.0  0.0725588758982951  0.9573994619862628  0.05645055451660851  1.0000
  O   O11       1.0  0.2914155511407301  0.353668853280773  0.43198951562084903  1.0000
  O   O12       1.0  0.7914195742377929  0.6463319354946648  0.5680098379685959  1.0000
