data_image0
_chemical_formula_structural       K2H46C38O22
_chemical_formula_sum              "K2 H46 C38 O22"
_cell_length_a       9.809966863046395
_cell_length_b       10.661584346499772
_cell_length_c       11.409
_cell_angle_alpha    96.65883541292828
_cell_angle_beta     92.2846646769173
_cell_angle_gamma    115.60534788384467

_space_group_name_H-M_alt    "P 1"
_space_group_IT_number       1

loop_
  _space_group_symop_operation_xyz
  'x, y, z'

loop_
  _atom_site_type_symbol
  _atom_site_label
  _atom_site_symmetry_multiplicity
  _atom_site_fract_x
  _atom_site_fract_y
  _atom_site_fract_z
  _atom_site_occupancy
  K   K1        1.0  0.9520039141048785  0.6967471995664738  0.7538432616172841  1.0000
  K   K2        1.0  0.048003626870702476  0.3032738858774806  0.24616585545647499  1.0000
  H   H1        1.0  0.2209229429771966  0.5655326396099554  0.025067625899701792  1.0000
  H   H2        1.0  0.7790761379172437  0.4344663613291075  0.9749282900825235  1.0000
  H   H3        1.0  0.38348400673171307  0.7167042304814615  0.10257432259916038  1.0000
  H   H4        1.0  0.6165160742051937  0.2832968737437795  0.8974201025731716  1.0000
  H   H5        1.0  0.2844695757547057  0.7313662384393567  0.9720637672778238  1.0000
  H   H6        1.0  0.7155320253858121  0.2686359174289805  0.027933453462537693  1.0000
  H   H7        1.0  0.138582407898987  0.5929226838836072  0.530944670977533  1.0000
  H   H8        1.0  0.8614197335425828  0.4070763170554557  0.4690522264125292  1.0000
  H   H9        1.0  0.2978106440739339  0.7631006203169336  0.5650552712373127  1.0000
  H   H10       1.0  0.7021909570665842  0.2369015355513966  0.43493932000003344  1.0000
  H   H11       1.0  0.2901531242482704  0.6426054583746748  0.4370500811912663  1.0000
  H   H12       1.0  0.7098505373969104  0.3573945942074772  0.5629461057627907  1.0000
  H   H13       1.0  0.6905549909787041  0.8159299109326668  0.6421314314146115  1.0000
  H   H14       1.0  0.309444549657151  0.1840743482218485  0.3578729586191116  1.0000
  H   H15       1.0  0.750820147670943  0.0014817651135175  0.6388634955260102  1.0000
  H   H16       1.0  0.24918141318975265  0.9985245973271759  0.3611385621657561  1.0000
  H   H17       1.0  0.8853917299297933  0.9398628941354518  0.6825776712106446  1.0000
  H   H18       1.0  0.1146078308459693  0.0601392617328784  0.3174168500888115  1.0000
  H   H19       1.0  0.5474349230501119  0.998351076217361  0.40408736413804297  1.0000
  H   H20       1.0  0.4525585166313846  0.0016510796509763002  0.5959104533517774  1.0000
  H   H21       1.0  0.3871421411824302  0.8589620945238893  0.3124509224139373  1.0000
  H   H22       1.0  0.6128533590037365  0.1410379580582628  0.6875458612895855  1.0000
  H   H23       1.0  0.5182377228642423  0.0080576893539899  0.2503214836009704  1.0000
  H   H24       1.0  0.481759297525535  0.9919434148712512  0.74967283666453  1.0000
  H   H25       1.0  0.7969137771721506  0.027876955024218802  0.9071111748713463  1.0000
  H   H26       1.0  0.20308678364607144  0.9721273041302894  0.09289062062829599  1.0000
  H   H27       1.0  0.6110770721525255  0.9889104762002887  0.9535647168325668  1.0000
  H   H28       1.0  0.3889229483646517  0.0110969378834938  0.0464321430113301  1.0000
  H   H29       1.0  0.6403293713224515  0.8625418876015445  0.8520038258551638  1.0000
  H   H30       1.0  0.3596691491310223  0.1374623715529708  0.1479952702035661  1.0000
  H   H31       1.0  0.48254306554765236  0.3866534082516893  0.6267237911898391  1.0000
  H   H32       1.0  0.5174642775053684  0.6133350762564831  0.3732800334381068  1.0000
  H   H33       1.0  0.609396108402926  0.5482772797926431  0.5786452266389617  1.0000
  H   H34       1.0  0.3906106742091211  0.4517164629309747  0.4213679135725457  1.0000
  H   H35       1.0  0.31340945830324063  0.49576453374693585  0.6294479497039305  1.0000
  H   H36       1.0  0.6865908240327769  0.5042155376165098  0.3705555977496857  1.0000
  H   H37       1.0  0.4650709377682034  0.6675472775352915  0.6590108144967459  1.0000
  H   H38       1.0  0.5349267639020069  0.3324359487574284  0.34099210986827433  1.0000
  H   H39       1.0  0.43809774955748537  0.6611627523371553  0.8609696666072892  1.0000
  H   H40       1.0  0.5619075128509506  0.3388299387433662  0.1390310365250969  1.0000
  H   H41       1.0  0.3084618763544427  0.48060404696448705  0.8348281273092938  1.0000
  H   H42       1.0  0.6915387851633454  0.5193896957591306  0.1651769145794759  1.0000
  H   H43       1.0  0.6192720370061976  0.5843360180554527  0.931976904174043  1.0000
  H   H44       1.0  0.3807301447151943  0.415658776311254  0.0680318097837684  1.0000
  H   H45       1.0  0.4985919702674479  0.4077051996231518  0.8637605401661048  1.0000
  H   H46       1.0  0.5014087113902476  0.5922864398142806  0.1362477805035169  1.0000
  C   C1        1.0  0.9593269560669241  0.7422223500552789  0.1619144461861666  1.0000
  C   C2        1.0  0.04067412491244939  0.2577808574561402  0.8380846236833293  1.0000
  C   C3        1.0  0.9635999814459524  0.731089656306736  0.2835252656210514  1.0000
  C   C4        1.0  0.036398059126199186  0.2689114479185051  0.7164717191164128  1.0000
  C   C5        1.0  0.8781457773349857  0.7966291053057049  0.3383413900921965  1.0000
  C   C6        1.0  0.121855783525703  0.2033772571349886  0.6616571615955351  1.0000
  C   C7        1.0  0.8219539083961109  0.8497633724174705  0.2492287914317259  1.0000
  C   C8        1.0  0.1780451523584219  0.1502377318077706  0.7507708577777167  1.0000
  C   C9        1.0  0.8691224238828781  0.8151506434031291  0.1395132011170119  1.0000
  C   C10       1.0  0.1308755965493589  0.1848525641082972  0.860484010843642  1.0000
  C   C11       1.0  0.04266542430568171  0.6959426926027774  0.07744149230977371  1.0000
  C   C12       1.0  0.957338156779862  0.3040657731240941  0.9225582330400429  1.0000
  C   C13       1.0  0.2730802213434629  0.6798041777468242  0.051473047900294895  1.0000
  C   C14       1.0  0.7269208797758253  0.3201969264784239  0.9485249182450203  1.0000
  C   C15       1.0  0.03906340909169607  0.6584673910980214  0.3427602002633918  1.0000
  C   C16       1.0  0.9609387524897883  0.3415295065548634  0.6572355934024756  1.0000
  C   C17       1.0  0.224021712635583  0.6807075391609558  0.4937520908566597  1.0000
  C   C18       1.0  0.7759804288059868  0.3192914617781142  0.5062430535313851  1.0000
  C   C19       1.0  0.853080545232757  0.8020482221474055  0.4631829514485943  1.0000
  C   C20       1.0  0.1469169550383356  0.19795603700710981  0.5368161096411939  1.0000
  C   C21       1.0  0.7823267141034407  0.9147265210032317  0.6245400517050186  1.0000
  C   C22       1.0  0.21766622555681886  0.0852745832220094  0.37545763468874327  1.0000
  C   C23       1.0  0.7384360101927924  0.9362915142025159  0.2704000105927733  1.0000
  C   C24       1.0  0.26156051017574805  0.0637085383796361  0.7295976845806962  1.0000
  C   C25       1.0  0.5055542835384443  0.9365155141806413  0.3153412269291493  1.0000
  C   C26       1.0  0.49444067634666317  0.063487693330778  0.6846558801246729  1.0000
  C   C27       1.0  0.8352599608503298  0.8520201984881693  0.02657331383102247  1.0000
  C   C28       1.0  0.16473805958190718  0.1479830090232568  0.9734247746306366  1.0000
  C   C29       1.0  0.690635820441301  0.9456195884089809  0.92897123088121  1.0000
  C   C30       1.0  0.3093621798510284  0.0543857223886235  0.0710262083026265  1.0000
  C   C31       1.0  0.5397868522881097  0.5024824298045303  0.6493080778724121  1.0000
  C   C32       1.0  0.46021945044261503  0.4975081579898132  0.3506985685127901  1.0000
  C   C33       1.0  0.4247495724657  0.5598001331274958  0.6794582867024985  1.0000
  C   C34       1.0  0.5752465888609848  0.4401841448083061  0.3205473283237196  1.0000
  C   C35       1.0  0.4188744700668394  0.5581353821163546  0.8145625311955982  1.0000
  C   C36       1.0  0.5811292721379928  0.44185625732107786  0.1854432648778328  1.0000
  C   C37       1.0  0.5465878568644484  0.5193202873152032  0.8516190674075119  1.0000
  C   C38       1.0  0.45341638536161344  0.4806724037653254  0.14839211876802944  1.0000
  O   O1        1.0  0.001925817181699955  0.6466300964793135  0.9722897280707983  1.0000
  O   O2        1.0  0.9980721428308073  0.3533794208906471  0.027709042060408296  1.0000
  O   O3        1.0  0.18071057037369087  0.7183500519169926  0.1294790912410519  1.0000
  O   O4        1.0  0.8192920106693791  0.2816563105237009  0.8705168659125987  1.0000
  O   O5        1.0  0.005065343240353584  0.5323732813457056  0.3193975861622746  1.0000
  O   O6        1.0  0.9949347578364609  0.46762571959335736  0.6806018707929269  1.0000
  O   O7        1.0  0.15204091548471144  0.746581410662472  0.426178212742613  1.0000
  O   O8        1.0  0.8479576452485844  0.25341864191968  0.573816046364712  1.0000
  O   O9        1.0  0.8669067879811718  0.7231844552007659  0.5292455994678775  1.0000
  O   O10       1.0  0.13309779314683823  0.27682611381228384  0.4707526350720456  1.0000
  O   O11       1.0  0.8106711794418046  0.9042616206167082  0.5016333108045643  1.0000
  O   O12       1.0  0.1893156592641105  0.0957373803223618  0.4983639385523446  1.0000
  O   O13       1.0  0.7936271272866193  0.0643279561595236  0.2739740546367173  1.0000
  O   O14       1.0  0.20637193346791347  0.9356731480657174  0.7260299770777578  1.0000
  O   O15       1.0  0.5912682379540186  0.8576464890185562  0.28726297591808964  1.0000
  O   O16       1.0  0.4087272420922332  0.1423556668497739  0.7127331585076034  1.0000
  O   O17       1.0  0.8982323695704294  0.8518477290214433  0.9354665798643111  1.0000
  O   O18       1.0  0.10176259031467788  0.1481554784899828  0.06452877418749378  1.0000
  O   O19       1.0  0.7175984450440467  0.8890758944001008  0.031025748003038704  1.0000
  O   O20       1.0  0.2823985350659086  0.11092941639750362  0.9689734092138664  1.0000
  O   O21       1.0  0.6417184242709979  0.5415246795130813  0.7556574162682069  1.0000
  O   O22       1.0  0.3582868381374383  0.45846801156744027  0.2443538048762761  1.0000
