data_image0
_chemical_formula_structural       Zr6H70C72O36
_chemical_formula_sum              "Zr6 H70 C72 O36"
_cell_length_a       14.828832500940683
_cell_length_b       14.844229676331537
_cell_length_c       14.709034816315448
_cell_angle_alpha    60.64053731388549
_cell_angle_beta     59.715902343536705
_cell_angle_gamma    59.76228049315646

_space_group_name_H-M_alt    "P 1"
_space_group_IT_number       1

loop_
  _space_group_symop_operation_xyz
  'x, y, z'

loop_
  _atom_site_type_symbol
  _atom_site_label
  _atom_site_symmetry_multiplicity
  _atom_site_fract_x
  _atom_site_fract_y
  _atom_site_fract_z
  _atom_site_occupancy
  Zr  Zr1       1.0  0.8879906374297308  0.8774209658064079  0.619074422372272  1.0000
  Zr  Zr2       1.0  0.12017055600812658  0.1208694331918068  0.38692463226251306  1.0000
  Zr  Zr3       1.0  0.1263867092232616  0.8785096464839981  0.6190104192115625  1.0000
  Zr  Zr4       1.0  0.8818744382444733  0.11928526390506275  0.38674793719626177  1.0000
  Zr  Zr5       1.0  0.12480192331494783  0.8849701331444707  0.37671189156517926  1.0000
  Zr  Zr6       1.0  0.8817290254243274  0.11399692981997599  0.6289270447361802  1.0000
  H   H1        1.0  0.10920541053788918  0.7191629318752817  0.5833062006892077  1.0000
  H   H2        1.0  0.09083359329954992  0.09770089741802222  0.22089123238382055  1.0000
  H   H3        1.0  0.0923433011807974  0.08697692444341239  0.6079358066307917  1.0000
  H   H4        1.0  0.720684539151094  0.09337745486281793  0.5970075273781885  1.0000
  H   H5        1.0  0.762272791996729  0.6250186696867814  0.9420276913141093  1.0000
  H   H6        1.0  0.8540593807466976  0.5253422326139726  0.871784036844687  1.0000
  H   H7        1.0  0.8313474011749092  0.37470583682119235  0.056291160827626634  1.0000
  H   H8        1.0  0.747313719334656  0.47452978757841896  0.1266800831065709  1.0000
  H   H9        1.0  0.2859830838553067  0.3430194044500752  0.4092124840212746  1.0000
  H   H10       1.0  0.21969861906122662  0.25372030807629636  0.4441894892274262  1.0000
  H   H11       1.0  0.2304421409874067  0.36129908685327894  0.3170200285512833  1.0000
  H   H12       1.0  0.7353909498282362  0.6138048173979768  0.636866370257735  1.0000
  H   H13       1.0  0.790650198434364  0.6384313449445357  0.7019182304829243  1.0000
  H   H14       1.0  0.7897953671267502  0.7219849879751193  0.5671001975376769  1.0000
  H   H15       1.0  0.25038968594299876  0.5241196196807819  0.2978913745319858  1.0000
  H   H16       1.0  0.20549254089461746  0.622639498032143  0.3603685730022973  1.0000
  H   H17       1.0  0.27776220825244013  0.48206453130470805  0.4189958682579941  1.0000
  H   H18       1.0  0.7896400101780615  0.37694412586531467  0.6942203549262729  1.0000
  H   H19       1.0  0.8868540636753367  0.3325223220824611  0.7545669661783593  1.0000
  H   H20       1.0  0.7822438691636365  0.4633386628377208  0.7508217263523136  1.0000
  H   H21       1.0  0.31845817380382624  0.2883315152052931  0.9512962554849193  1.0000
  H   H22       1.0  0.27174232110849067  0.22375211479086224  0.0969723634033102  1.0000
  H   H23       1.0  0.39226174783026835  0.2585348212583797  0.030963461403132542  1.0000
  H   H24       1.0  0.6203654947354668  0.7949981721622806  0.8709277148873014  1.0000
  H   H25       1.0  0.6999810625609586  0.7865343615336396  0.9332642575725457  1.0000
  H   H26       1.0  0.5825835736498208  0.7426899681182844  0.01824151171291523  1.0000
  H   H27       1.0  0.5745476839130672  0.23999391416570162  0.8561111631724003  1.0000
  H   H28       1.0  0.5882366835329195  0.21357782491612184  0.7450877656644009  1.0000
  H   H29       1.0  0.4562038358270259  0.2863783945492174  0.8232326851764424  1.0000
  H   H30       1.0  0.3873025453785604  0.7839387494357836  0.14394253649588512  1.0000
  H   H31       1.0  0.2928829548354488  0.8936842029666322  0.07865266202331603  1.0000
  H   H32       1.0  0.4202335332248311  0.8149070640245313  0.00045413407737290797  1.0000
  H   H33       1.0  0.8271094704449669  0.2136346854033135  0.8500773432737386  1.0000
  H   H34       1.0  0.760637394686974  0.1159964992236909  0.9269935434800158  1.0000
  H   H35       1.0  0.743240957847938  0.20090170700819956  0.991632082482816  1.0000
  H   H36       1.0  0.16531109210655606  0.7447603851613495  0.1498493675099369  1.0000
  H   H37       1.0  0.046804468822081446  0.7836226382169754  0.2606859457692251  1.0000
  H   H38       1.0  0.04833470180253838  0.7109844533351436  0.1936937653003881  1.0000
  H   H39       1.0  0.7885785483962023  0.20534160330112874  0.13047277350486305  1.0000
  H   H40       1.0  0.9248883918838972  0.20380239115690554  0.07798094289738335  1.0000
  H   H41       1.0  0.8554647129567032  0.25438422621772355  0.9844138199102729  1.0000
  H   H42       1.0  0.0590910585633821  0.7627173777816695  0.9349762371599012  1.0000
  H   H43       1.0  0.18023497314032305  0.770665625537134  0.9187366206575261  1.0000
  H   H44       1.0  0.10419775867818265  0.7018612615074957  0.04986366846181065  1.0000
  H   H45       1.0  0.5030630080367544  0.5547836243712823  0.24191990516080608  1.0000
  H   H46       1.0  0.3597139264707324  0.6045780646401011  0.31778716956855385  1.0000
  H   H47       1.0  0.4406136386157727  0.6872429395734655  0.2567399224043712  1.0000
  H   H48       1.0  0.6372651422335593  0.47016160964155773  0.6625072272999117  1.0000
  H   H49       1.0  0.7526600247263033  0.41474242668571987  0.558151402110056  1.0000
  H   H50       1.0  0.6981140868585316  0.558230704757136  0.5357253779289406  1.0000
  H   H51       1.0  0.6336392586863085  0.3671640460531122  0.2970314021067041  1.0000
  H   H52       1.0  0.5772293754446454  0.28886823815438595  0.43304879723618933  1.0000
  H   H53       1.0  0.4872786226387549  0.39908424528100983  0.3598846953814103  1.0000
  H   H54       1.0  0.5634025177985649  0.689633762868965  0.5440740413324575  1.0000
  H   H55       1.0  0.4215552676157729  0.7537521838640088  0.5559282338307341  1.0000
  H   H56       1.0  0.4623477756094801  0.6381585374357571  0.664786510844074  1.0000
  H   H57       1.0  0.2886876579909413  0.04856810332243107  0.736169991773046  1.0000
  H   H58       1.0  0.24343729970647127  0.9861227987062832  0.6972945683350815  1.0000
  H   H59       1.0  0.3370668012111295  0.9045402904123208  0.7702311551772566  1.0000
  H   H60       1.0  0.6895764212589911  0.07952254975416649  0.23330839788943086  1.0000
  H   H61       1.0  0.7759663564927237  0.9807161608085265  0.3128582348342803  1.0000
  H   H62       1.0  0.7213369175127016  0.9387419204815114  0.2626201294845956  1.0000
  H   H63       1.0  0.4943817701261606  0.9069763396970814  0.7707437321586209  1.0000
  H   H64       1.0  0.5821173686951938  0.9856204940079534  0.6955341506312321  1.0000
  H   H65       1.0  0.43539226114084795  0.05107943414122237  0.7343102079900701  1.0000
  H   H66       1.0  0.5625689002882907  0.9293594162518843  0.27617549965832927  1.0000
  H   H67       1.0  0.4259479405334261  0.02758385103851422  0.29455732636473897  1.0000
  H   H68       1.0  0.5421549246343319  0.07095560706246569  0.22264480829342403  1.0000
  H   H69       1.0  0.991858151010696  0.5237523104524371  0.2120701820727716  1.0000
  H   H70       1.0  0.22132444468660142  0.48822392014845656  0.7931690435813009  1.0000
  C   C1        1.0  0.007666914126687709  0.6963444289868903  0.4944108744421953  1.0000
  C   C2        1.0  0.29637099135625533  0.01406038792313777  0.18527957965748948  1.0000
  C   C3        1.0  0.0008290924262369613  0.2945340129398986  0.5238803190853075  1.0000
  C   C4        1.0  0.6953296024715245  0.9961247963677025  0.8053928338344322  1.0000
  C   C5        1.0  0.014068078275464468  0.689245732318291  0.8000595288589948  1.0000
  C   C6        1.0  0.7022122648810764  0.9952621480328646  0.4992384089115162  1.0000
  C   C7        1.0  0.9935645353001519  0.3128703701941688  0.2104297326235596  1.0000
  C   C8        1.0  0.31042303043364006  0.9975164867767388  0.4987656148636999  1.0000
  C   C9        1.0  0.3261949630598053  0.712505259189186  0.4761900076156493  1.0000
  C   C10       1.0  0.9876792591916297  0.9804979029564579  0.8241473968589119  1.0000
  C   C11       1.0  0.705589920998996  0.31144973499837647  0.5001509416504745  1.0000
  C   C12       1.0  0.9930662145062785  0.9946668444086838  0.20504814110078948  1.0000
  C   C13       1.0  0.01134671899847464  0.387021884391068  0.529984419812642  1.0000
  C   C14       1.0  0.009813295852431778  0.5905825200789394  0.5008193828176245  1.0000
  C   C15       1.0  0.10827385778674169  0.41585220183702626  0.4603070248488237  1.0000
  C   C16       1.0  0.91393219702357  0.5591901730682239  0.5735232229736054  1.0000
  C   C17       1.0  0.10801153225075683  0.5167132629351697  0.44777134668914437  1.0000
  C   C18       1.0  0.9203949537439869  0.4521990568296415  0.5975981669799423  1.0000
  C   C19       1.0  0.38092930364213373  0.023865234718009252  0.07039179579589928  1.0000
  C   C20       1.0  0.5819865685007745  0.00842797311620549  0.8917012155486216  1.0000
  C   C21       1.0  0.4138932654837505  0.11769174560738796  0.0024912356671507358  1.0000
  C   C22       1.0  0.5433581402985014  0.9180510343488917  0.9535577848471702  1.0000
  C   C23       1.0  0.5110543628605628  0.11230503129805672  0.9077720906831457  1.0000
  C   C24       1.0  0.43565862240572545  0.93128864568434  0.0327650240084126  1.0000
  C   C25       1.0  0.9706295429719916  0.9737358758658984  0.9365740496972774  1.0000
  C   C26       1.0  0.9794727671706274  0.9847077805514528  0.11648640937491452  1.0000
  C   C27       1.0  0.8992488649176522  0.0681552026041318  0.9718600685257001  1.0000
  C   C28       1.0  0.027354953701298295  0.8816504484763428  0.0994426572146025  1.0000
  C   C29       1.0  0.9156273963734165  0.07820013606362848  0.0523183375741496  1.0000
  C   C30       1.0  0.03046316053413995  0.8787071530077526  0.0034063297416864627  1.0000
  C   C31       1.0  0.4387019808999567  0.6235324208746107  0.4634902736323098  1.0000
  C   C32       1.0  0.6156838430497661  0.422028609844368  0.4844329386267957  1.0000
  C   C33       1.0  0.4749422371768121  0.5576215921731202  0.39877618427392736  1.0000
  C   C34       1.0  0.5980502219866822  0.5002604696475359  0.525503511413646  1.0000
  C   C35       1.0  0.5532625998684396  0.4510061538637302  0.420227912442563  1.0000
  C   C36       1.0  0.5049282511311051  0.5981676189852935  0.5218211281006759  1.0000
  C   C37       1.0  0.016479910997603247  0.5872194738470496  0.8991141784258047  1.0000
  C   C38       1.0  0.995096501346559  0.41402640298201016  0.11058100593297128  1.0000
  C   C39       1.0  0.9317647764097077  0.5437599687470182  0.9526849904147666  1.0000
  C   C40       1.0  0.07854083808438624  0.4620132533822101  0.060716344771712685  1.0000
  C   C41       1.0  0.9240596828472577  0.4570744124315522  0.05278742935523449  1.0000
  C   C42       1.0  0.09610563678197072  0.5379770538757286  0.9521946544560221  1.0000
  C   C43       1.0  0.8326521938834831  0.5479472061972359  0.9428718506661582  1.0000
  C   C44       1.0  0.8223395789429375  0.45210050748769237  0.05712958544867065  1.0000
  C   C45       1.0  0.4122190203840152  0.9962875731225294  0.49869888130848494  1.0000
  C   C46       1.0  0.6011736993405422  0.993526906945362  0.4999694319089515  1.0000
  C   C47       1.0  0.41300944312011034  0.9880008774244898  0.5981947783369607  1.0000
  C   C48       1.0  0.601160608654283  0.9990950692775228  0.4015413511425481  1.0000
  C   C49       1.0  0.5081350156246746  0.9878783780614522  0.5983275879845635  1.0000
  C   C50       1.0  0.5052124709498287  0.0024521986734384843  0.3999822477965579  1.0000
  C   C51       1.0  0.21612486803019243  0.33907977251406857  0.40530454084073136  1.0000
  C   C52       1.0  0.8019248825557738  0.637183593960131  0.6226518811706254  1.0000
  C   C53       1.0  0.2157145782837803  0.5387884867795307  0.3773177080401169  1.0000
  C   C54       1.0  0.8385128961992052  0.40525105329150785  0.7037446129987116  1.0000
  C   C55       1.0  0.34506087924878415  0.22657796454833345  0.022833378615693838  1.0000
  C   C56       1.0  0.6148105904134343  0.8044926164178036  0.9433868665649923  1.0000
  C   C57       1.0  0.533911676937656  0.21771206815646593  0.8286294327435754  1.0000
  C   C58       1.0  0.3816389193640009  0.8512576419355252  0.06653791028855242  1.0000
  C   C59       1.0  0.8030766925152337  0.15488523510920538  0.9325798006189526  1.0000
  C   C60       1.0  0.07384779438817213  0.775526479475502  0.1803789503902635  1.0000
  C   C61       1.0  0.8681389340408856  0.1913382388740957  0.061906709692280584  1.0000
  C   C62       1.0  0.09553863395489517  0.7732891865654353  0.9761604801755934  1.0000
  C   C63       1.0  0.44181724344200324  0.6023396543659131  0.29939252058965593  1.0000
  C   C64       1.0  0.6762521727485122  0.4840771215070204  0.5724483876208452  1.0000
  C   C65       1.0  0.5634192389885869  0.3727950938672891  0.37508433934069524  1.0000
  C   C66       1.0  0.4860960398645987  0.6746873778322067  0.5738399376491258  1.0000
  C   C67       1.0  0.31492189907385204  0.9822856400005049  0.7048356235229034  1.0000
  C   C68       1.0  0.7024485407198426  0.9989116342097331  0.29816611586251435  1.0000
  C   C69       1.0  0.5057147213765989  0.9834084159733862  0.7039999733024301  1.0000
  C   C70       1.0  0.5078665515766404  0.007960226884939938  0.2935494392739386  1.0000
  C   C71       1.0  0.1389798960824038  0.44470927190251786  0.1293848988156014  1.0000
  C   C72       1.0  0.20922939812048466  0.552117339652611  0.887906816582408  1.0000
  O   O1        1.0  0.9353966313633891  0.7332369849591202  0.5758244882446278  1.0000
  O   O2        1.0  0.26593404526796866  0.08089697320003345  0.23484977588088185  1.0000
  O   O3        1.0  0.06749080911573914  0.2630826946200173  0.4382906739432072  1.0000
  O   O4        1.0  0.7418768408507221  0.9180342543598315  0.7640166702935358  1.0000
  O   O5        1.0  0.09026763282020087  0.7286150407529205  0.7608929779914887  1.0000
  O   O6        1.0  0.7335561983922575  0.0782495506677847  0.43042169152164433  1.0000
  O   O7        1.0  0.9212288508932718  0.27165637712209884  0.241794831243496  1.0000
  O   O8        1.0  0.2724434344978733  0.9198136973775277  0.5723737792978196  1.0000
  O   O9        1.0  0.2795725528417421  0.7490495936231483  0.4054441500688312  1.0000
  O   O10       1.0  0.9173538616123267  0.06008402547865893  0.7778084585509716  1.0000
  O   O11       1.0  0.7361952625035785  0.2657609085258414  0.5846346562184265  1.0000
  O   O12       1.0  0.07946804923474107  0.9283384135149575  0.2324807892316443  1.0000
  O   O13       1.0  0.0741890745638758  0.9129031049454426  0.775483087881632  1.0000
  O   O14       1.0  0.7477241024318177  0.26685428937926736  0.42547977855088703  1.0000
  O   O15       1.0  0.9176339077640139  0.07049963176094552  0.24865379270225677  1.0000
  O   O16       1.0  0.27784846311676153  0.7421668951772489  0.5626853453115146  1.0000
  O   O17       1.0  0.9332031646720369  0.7304701906649599  0.7663041994136889  1.0000
  O   O18       1.0  0.2665869871738665  0.07662491771097998  0.4263846216237112  1.0000
  O   O19       1.0  0.06925062020170716  0.2730434182583394  0.25099501930903045  1.0000
  O   O20       1.0  0.7495420862524184  0.9146390614084653  0.5681882233898392  1.0000
  O   O21       1.0  0.7402596794175693  0.06503255951121632  0.7752390925077108  1.0000
  O   O22       1.0  0.07697243827111319  0.743866876707365  0.41375126708597065  1.0000
  O   O23       1.0  0.26226840302783233  0.932597181036449  0.23242747164334795  1.0000
  O   O24       1.0  0.923547128384847  0.2547181199208878  0.5995087499627799  1.0000
  O   O25       1.0  0.8011335924966617  0.0649555035204585  0.5722078566236846  1.0000
  O   O26       1.0  0.06928254820081754  0.062280646938425895  0.5755649011267393  1.0000
  O   O27       1.0  0.06619848603357073  0.07268404282190491  0.3012419455162885  1.0000
  O   O28       1.0  0.07716605991521448  0.7986335062351271  0.5622290869943926  1.0000
  O   O29       1.0  0.1522410360839146  0.9532095862797973  0.45008985204923857  1.0000
  O   O30       1.0  0.9546811583286116  0.9508363849480047  0.4511022486981843  1.0000
  O   O31       1.0  0.9516317018774744  0.1469892745989015  0.45878259693258616  1.0000
  O   O32       1.0  0.9559576664714703  0.9455775611615492  0.6511998118118854  1.0000
  O   O33       1.0  0.06807661265249719  0.4943668322407789  0.2103877454339269  1.0000
  O   O34       1.0  0.2370738659851099  0.40234137764114297  0.11549610519480775  1.0000
  O   O35       1.0  0.2681491633920318  0.5107774665207216  0.8006491659256055  1.0000
  O   O36       1.0  0.2531015722948739  0.584301245012554  0.9108490711896308  1.0000
