data_image0
_chemical_formula_structural       Pr2H32C18O16
_chemical_formula_sum              "Pr2 H32 C18 O16"
_cell_length_a       8.68644780151318
_cell_length_b       9.924383218738217
_cell_length_c       11.734822431244504
_cell_angle_alpha    72.52497379942457
_cell_angle_beta     69.77691529364357
_cell_angle_gamma    85.15391648863901

_space_group_name_H-M_alt    "P 1"
_space_group_IT_number       1

loop_
  _space_group_symop_operation_xyz
  'x, y, z'

loop_
  _atom_site_type_symbol
  _atom_site_label
  _atom_site_symmetry_multiplicity
  _atom_site_fract_x
  _atom_site_fract_y
  _atom_site_fract_z
  _atom_site_occupancy
  Pr  Pr1       1.0  0.7447705403466858  0.9828422280388761  0.008735933152628854  1.0000
  Pr  Pr2       1.0  0.255222201760418  0.017157269456078005  0.9912632979775108  1.0000
  H   H1        1.0  0.28286915666750184  0.9868667524054753  0.6687762592499382  1.0000
  H   H2        1.0  0.26974995319459083  0.8063079749960094  0.7430481951801652  1.0000
  H   H3        1.0  0.10207984104297911  0.7673790918066742  0.6188306729147612  1.0000
  H   H4        1.0  0.0792702930798583  0.9502041182857465  0.5620191813968916  1.0000
  H   H5        1.0  0.3848803811369308  0.9825449785068227  0.4522785688978743  1.0000
  H   H6        1.0  0.40942516004424345  0.7991244534473265  0.5004746219210857  1.0000
  H   H7        1.0  0.19384205632891144  0.9426829360735807  0.33864861443053945  1.0000
  H   H8        1.0  0.25042756789734005  0.7630898887920379  0.37203286840767896  1.0000
  H   H9        1.0  0.7237999820900713  0.46757846811733117  0.22025737224701206  1.0000
  H   H10       1.0  0.70594800151887  0.46815590686828285  0.07432937643314827  1.0000
  H   H11       1.0  0.025049851573641  0.5137456995754944  0.11945029983178304  1.0000
  H   H12       1.0  0.9672058817369164  0.35674703907665145  0.10272647194896935  1.0000
  H   H13       1.0  0.9955721993992981  0.24752770497842388  0.8541303290274342  1.0000
  H   H14       1.0  0.9113462050417741  0.23212802476695765  0.7568511839969714  1.0000
  H   H15       1.0  0.6991871902200586  0.2761742971887457  0.9674091695966139  1.0000
  H   H16       1.0  0.510684352311472  0.24692914946121647  0.025529073016954743  1.0000
  H   H17       1.0  0.7171308814235645  0.013130449791738398  0.33122932678969613  1.0000
  H   H18       1.0  0.7302476027188618  0.1936881525787157  0.25695913413101573  1.0000
  H   H19       1.0  0.8979250803884542  0.23261711008137798  0.38117134737721864  1.0000
  H   H20       1.0  0.9207358563165401  0.049792102570997095  0.4379816682846139  1.0000
  H   H21       1.0  0.6151305352500105  0.017445897806396694  0.547724896456664  1.0000
  H   H22       1.0  0.5905734982753259  0.20086660841743503  0.49952426042337084  1.0000
  H   H23       1.0  0.806161937221134  0.05732484787598218  0.6613525806971338  1.0000
  H   H24       1.0  0.7495653898707533  0.23691800093080664  0.6279668597086071  1.0000
  H   H25       1.0  0.27620385624571503  0.5324231352202985  0.7797385205405047  1.0000
  H   H26       1.0  0.2940583988734745  0.5318499008965745  0.925665709609234  1.0000
  H   H27       1.0  0.974955321989647  0.48626010897007876  0.8805450994992512  1.0000
  H   H28       1.0  0.0327992918263718  0.6432587694689146  0.8972689273820577  1.0000
  H   H29       1.0  0.004426765819310691  0.7524750764128637  0.1458614136112289  1.0000
  H   H30       1.0  0.08865512941235922  0.7678715462606218  0.24314242482533646  1.0000
  H   H31       1.0  0.30081174193541227  0.7238273290210911  0.032587119023638395  1.0000
  H   H32       1.0  0.48931460381986375  0.7530734739349612  0.9744695281963871  1.0000
  C   C1        1.0  0.05302202104027029  0.9173806918994383  0.806770438342518  1.0000
  C   C2        1.0  0.20103795206115654  0.8938155782814472  0.7007103046762282  1.0000
  C   C3        1.0  0.1655834320507381  0.8701084525815188  0.5896783945395254  1.0000
  C   C4        1.0  0.3226246652640157  0.8805322926933669  0.47591980608388706  1.0000
  C   C5        1.0  0.2915535352693581  0.8711003437498092  0.3582140499200293  1.0000
  C   C6        1.0  0.5590641541072972  0.09283472663812378  0.760706660663068  1.0000
  C   C7        1.0  0.7558978183199445  0.6698571711519107  0.08649268604889934  1.0000
  C   C8        1.0  0.777659837655044  0.5118551808892348  0.11635183250424325  1.0000
  C   C9        1.0  0.9586909431059356  0.47234353503403526  0.07193353333581606  1.0000
  C   C10       1.0  0.9469743171314067  0.08261559445109869  0.1932303456826218  1.0000
  C   C11       1.0  0.7989620871658263  0.10618164366515256  0.2992944240415766  1.0000
  C   C12       1.0  0.8344202648234574  0.1298877895860144  0.41032222439742566  1.0000
  C   C13       1.0  0.6773801979925057  0.11946173707750762  0.5240853049184436  1.0000
  C   C14       1.0  0.7084416045927642  0.12889701956532917  0.6417859306995054  1.0000
  C   C15       1.0  0.44093220804023764  0.9071625568987611  0.23929643595516134  1.0000
  C   C16       1.0  0.24409990643869153  0.3301453740274168  0.9135096577404269  1.0000
  C   C17       1.0  0.22234285486653962  0.4881495727832287  0.8836444527764941  1.0000
  C   C18       1.0  0.04131673888264939  0.5276643848191325  0.9280607206730875  1.0000
  O   O1        1.0  0.5784332979039849  0.05780898552394119  0.870145088986497  1.0000
  O   O2        1.0  0.58336143107406  0.9033100165130318  0.24589906977847426  1.0000
  O   O3        1.0  0.8444727661722028  0.7441874237761678  0.11372670907699238  1.0000
  O   O4        1.0  0.6522646934962425  0.730998249262292  0.034240083364082505  1.0000
  O   O5        1.0  0.9089769621039923  0.91604790808784  0.8034756920126398  1.0000
  O   O6        1.0  0.0754737017632721  0.9415184413865983  0.9020204369277424  1.0000
  O   O7        1.0  0.6140419519678204  0.22265104095780686  0.0446082136679423  1.0000
  O   O8        1.0  0.8893176121872416  0.2246053512182938  0.8455186519816422  1.0000
  O   O9        1.0  0.42156178832686925  0.942186284671578  0.12985455305604174  1.0000
  O   O10       1.0  0.4166373379157805  0.09668529083914729  0.7540979177544639  1.0000
  O   O11       1.0  0.1555262401826738  0.2558172334914701  0.8862748026788481  1.0000
  O   O12       1.0  0.347728065771264  0.26900212692267184  0.9657666042901524  1.0000
  O   O13       1.0  0.091020494498288  0.08394417149334998  0.1965249588917075  1.0000
  O   O14       1.0  0.924522745942767  0.0584820707019702  0.09797930960772305  1.0000
  O   O15       1.0  0.3859569505322397  0.7773494893187444  0.9553900489684037  1.0000
  O   O16       1.0  0.1106826882588763  0.7754016353809304  0.154472597200531  1.0000
