data_image0
_chemical_formula_structural       Cd2H16C24N20
_chemical_formula_sum              "Cd2 H16 C24 N20"
_cell_length_a       6.920782624377068
_cell_length_b       10.126420205925104
_cell_length_c       10.126425465198446
_cell_angle_alpha    70.09831841115475
_cell_angle_beta     81.64031953567196
_cell_angle_gamma    81.64032011331072

_space_group_name_H-M_alt    "P 1"
_space_group_IT_number       1

loop_
  _space_group_symop_operation_xyz
  'x, y, z'

loop_
  _atom_site_type_symbol
  _atom_site_label
  _atom_site_symmetry_multiplicity
  _atom_site_fract_x
  _atom_site_fract_y
  _atom_site_fract_z
  _atom_site_occupancy
  Cd  Cd1       1.0  0.2500001202129383  0.38123938631812143  0.6187632179179302  1.0000
  Cd  Cd2       1.0  0.7499986010552677  0.6187607804025675  0.3812385413154755  1.0000
  H   H1        1.0  0.823485537798618  0.9572408711016823  0.9218159560777932  1.0000
  H   H2        1.0  0.6765087995750891  0.0781818667445151  0.04276157129322655  1.0000
  H   H3        1.0  0.17651008386877717  0.0427603624737429  0.07818180927323937  1.0000
  H   H4        1.0  0.3234923506011924  0.9218214866999619  0.9572339255517192  1.0000
  H   H5        1.0  0.9614858256346821  0.7833704467528052  0.7980973331258951  1.0000
  H   H6        1.0  0.5385126867837968  0.20190171559494982  0.21663226784485082  1.0000
  H   H7        1.0  0.03851172831653569  0.21662761375343834  0.20190328186929915  1.0000
  H   H8        1.0  0.46148910146340677  0.7980974010218989  0.7833685453008881  1.0000
  H   H9        1.0  0.3168267912228727  0.09960066498970833  0.5121666728716932  1.0000
  H   H10       1.0  0.18318100406850135  0.48783953592672474  0.9004003601462428  1.0000
  H   H11       1.0  0.6831795307826951  0.9003973993744767  0.4878340325929641  1.0000
  H   H12       1.0  0.8168213395221998  0.5121659103314756  0.09960023291295532  1.0000
  H   H13       1.0  0.9506973890313902  0.19699142173158898  0.8353631824337523  1.0000
  H   H14       1.0  0.5492971519857903  0.16463769916165213  0.803011627172843  1.0000
  H   H15       1.0  0.04929824568472441  0.803009805143482  0.16463655890529336  1.0000
  H   H16       1.0  0.4507010907292184  0.8353656451797565  0.1969861448349731  1.0000
  C   C1        1.0  0.9334671125087796  0.985505353797102  0.8313047667248907  1.0000
  C   C2        1.0  0.5665245457682319  0.1686922676380647  0.014498290415787042  1.0000
  C   C3        1.0  0.0665283496408833  0.014496938985232103  0.16869166955093814  1.0000
  C   C4        1.0  0.43347238316079034  0.831310022995446  0.9854989842666269  1.0000
  C   C5        1.0  0.007929283599175125  0.8890301865614489  0.7621966087021403  1.0000
  C   C6        1.0  0.49207154990924107  0.2378041262677543  0.11096959504427416  1.0000
  C   C7        1.0  0.992072804110414  0.11096682169213072  0.23780389861197188  1.0000
  C   C8        1.0  0.5079286055165114  0.7621960550550142  0.8890280626256765  1.0000
  C   C9        1.0  0.14886010369829705  0.9272667781289532  0.6451630901034731  1.0000
  C   C10       1.0  0.35114319339789557  0.3548411418000726  0.07273451736102736  1.0000
  C   C11       1.0  0.8511434507906516  0.07273022797580352  0.3548382556172243  1.0000
  C   C12       1.0  0.6488552284079248  0.6451611332838852  0.927267547704012  1.0000
  C   C13       1.0  0.2079138084098986  0.0636418713942319  0.6021324802358023  1.0000
  C   C14       1.0  0.2920861174844944  0.39786785579639883  0.9363607741505999  1.0000
  C   C15       1.0  0.7920911998096827  0.9363551392620622  0.3978677279034599  1.0000
  C   C16       1.0  0.7079124573146985  0.6021333634308379  0.06364163199562253  1.0000
  C   C17       1.0  0.003083140369021496  0.11773744804030883  0.7840061955690345  1.0000
  C   C18       1.0  0.4969208474541489  0.215997066633186  0.8822627869884697  1.0000
  C   C19       1.0  0.9969201146575415  0.8822616664277163  0.21599545598328965  1.0000
  C   C20       1.0  0.5030788489914926  0.784006282259753  0.11773384743791132  1.0000
  C   C21       1.0  0.23733863568455862  0.8207601309904008  0.5807894886470066  1.0000
  C   C22       1.0  0.2626626229486959  0.4192100986834932  0.17924282037617434  1.0000
  C   C23       1.0  0.7626709193421134  0.17923582071286154  0.41921258779918685  1.0000
  C   C24       1.0  0.7373291160799766  0.5807879436166132  0.8207623449447468  1.0000
  N   N1        1.0  0.13809095528209525  0.1554280552524645  0.6716234718533227  1.0000
  N   N2        1.0  0.3619133207106486  0.3283782262642347  0.844573104117053  1.0000
  N   N3        1.0  0.8619108133920291  0.8445710714149331  0.3283743773103821  1.0000
  N   N4        1.0  0.6380894688114439  0.6716240591241489  0.15542653619769442  1.0000
  N   N5        1.0  0.37046338637858167  0.8376706935778488  0.46627449815652966  1.0000
  N   N6        1.0  0.12953369845021706  0.5337229281925461  0.16233409596796375  1.0000
  N   N7        1.0  0.629539709130249  0.16232948009708545  0.5337258243205978  1.0000
  N   N8        1.0  0.8704622553013549  0.4662761802687072  0.8376683035214822  1.0000
  N   N9        1.0  0.4166521383433448  0.7080707557548112  0.4569282856315836  1.0000
  N   N10       1.0  0.0833458642027196  0.5430694479458538  0.29193310849619536  1.0000
  N   N11       1.0  0.5833496499038588  0.2919283608620447  0.5430725275141555  1.0000
  N   N12       1.0  0.9166490882739707  0.45692649174386474  0.7080704638242422  1.0000
  N   N13       1.0  0.3138964886119595  0.6172706556462304  0.561905133660474  1.0000
  N   N14       1.0  0.1861004747093205  0.4380923415094744  0.3827327111950253  1.0000
  N   N15       1.0  0.6861023660765254  0.3827284652682721  0.438094002672095  1.0000
  N   N16       1.0  0.8138970922906239  0.5619057122964082  0.617269879788182  1.0000
  N   N17       1.0  0.20085951935464413  0.6844453137625736  0.6410446170143088  1.0000
  N   N18       1.0  0.29913786134589054  0.35895288230698713  0.3155573352848009  1.0000
  N   N19       1.0  0.7991424218859323  0.315552746997554  0.358956537212613  1.0000
  N   N20       1.0  0.70085708460644  0.641043060732912  0.6844452490416227  1.0000
