data_image0
_chemical_formula_structural       Ag4H20C16N16O12
_chemical_formula_sum              "Ag4 H20 C16 N16 O12"
_cell_length_a       3.7154628750867107
_cell_length_b       12.670492294929705
_cell_length_c       15.288154754087145
_cell_angle_alpha    89.99963496768508
_cell_angle_beta     90.00017921181478
_cell_angle_gamma    98.91074709460786

_space_group_name_H-M_alt    "P 1"
_space_group_IT_number       1

loop_
  _space_group_symop_operation_xyz
  'x, y, z'

loop_
  _atom_site_type_symbol
  _atom_site_label
  _atom_site_symmetry_multiplicity
  _atom_site_fract_x
  _atom_site_fract_y
  _atom_site_fract_z
  _atom_site_occupancy
  Ag  Ag1       1.0  0.576207641307171  0.5089716398940496  0.6172682704512125  1.0000
  Ag  Ag2       1.0  0.4237963381728349  0.4910302005580931  0.11726416394940027  1.0000
  Ag  Ag3       1.0  0.984964712228944  0.9982148217643925  0.509335210124469  1.0000
  Ag  Ag4       1.0  0.015027503431149097  0.0017877751720404998  0.0093353329491421  1.0000
  H   H1        1.0  0.7731221397696474  0.39242997716308997  0.4598278067824209  1.0000
  H   H2        1.0  0.2268773418556621  0.6075757235387657  0.9598226270339223  1.0000
  H   H3        1.0  0.9199647965920545  0.21294724690940112  0.4162586553778027  1.0000
  H   H4        1.0  0.08003967942424611  0.7870587872000245  0.9162537280053511  1.0000
  H   H5        1.0  0.5741781391633224  0.09176109272382858  0.6607356992676968  1.0000
  H   H6        1.0  0.4258451038118807  0.9082404848694451  0.16072939780589476  1.0000
  H   H7        1.0  0.3677239822342385  0.6192311831734257  0.46012271040691377  1.0000
  H   H8        1.0  0.6322472848736924  0.38076645717249863  0.9601203390852502  1.0000
  H   H9        1.0  0.14365429384429262  0.7883452817091124  0.41558770207283396  1.0000
  H   H10       1.0  0.8563176800966584  0.21164949596823848  0.9155883526255693  1.0000
  H   H11       1.0  0.3377207109492347  0.907686729688564  0.6678441960463246  1.0000
  H   H12       1.0  0.6622887238012181  0.0923139583788739  0.16784956390100086  1.0000
  H   H13       1.0  0.2704219968215469  0.3397941225515525  0.7340021125528935  1.0000
  H   H14       1.0  0.729579161931241  0.6602044618983101  0.2339960381193933  1.0000
  H   H15       1.0  0.30369097928488026  0.2054118070502398  0.7589826027617477  1.0000
  H   H16       1.0  0.696320792640229  0.7945858273126306  0.2589771039249839  1.0000
  H   H17       1.0  0.7143617012160918  0.6749848510574027  0.7495866665610149  1.0000
  H   H18       1.0  0.2856372997970169  0.32501441073875276  0.24958790844956974  1.0000
  H   H19       1.0  0.6434603790886797  0.806908700181701  0.768827332702642  1.0000
  H   H20       1.0  0.35654228411214456  0.19309202665872502  0.2688293226785774  1.0000
  C   C1        1.0  0.7239585984778857  0.32483719342310735  0.504637821294061  1.0000
  C   C2        1.0  0.27604554361803213  0.6751678653565419  0.004630017375824  1.0000
  C   C3        1.0  0.8076528197412856  0.22655250900916707  0.48007726657007044  1.0000
  C   C4        1.0  0.19236301868777175  0.7734530904809632  0.9800711874495676  1.0000
  C   C5        1.0  0.61232452249358  0.1581687055650889  0.6149733124037198  1.0000
  C   C6        1.0  0.38769830406347694  0.8418332059296106  0.1149666776487166  1.0000
  C   C7        1.0  0.5180195140282039  0.25852719024904763  0.6404868830750485  1.0000
  C   C8        1.0  0.48199236714999927  0.7414737052298718  0.1404795396980276  1.0000
  C   C9        1.0  0.36471522053405897  0.6841312470245599  0.5065532562912409  1.0000
  C   C10       1.0  0.6352772902008182  0.31586658492840064  0.0065535021938955985  1.0000
  C   C11       1.0  0.24030444623708994  0.776683946812497  0.48135110147831023  1.0000
  C   C12       1.0  0.7596728007468272  0.223314352977944  0.9813529258397151  1.0000
  C   C13       1.0  0.3515541381549454  0.8442026220323983  0.6207268442876526  1.0000
  C   C14       1.0  0.6484467815742078  0.15579838655639122  0.12073186746425787  1.0000
  C   C15       1.0  0.4865981239717243  0.749838621781663  0.6472110461883318  1.0000
  C   C16       1.0  0.5133976458877997  0.25016217806881974  0.14721285416927535  1.0000
  N   N1        1.0  0.5888117208951156  0.3426148774685842  0.5844347964020427  1.0000
  N   N2        1.0  0.4111946552299486  0.6573872103128763  0.08442849635585499  1.0000
  N   N3        1.0  0.7587956555093596  0.143700550088262  0.5374140129823529  1.0000
  N   N4        1.0  0.24121877486765445  0.8563027028758229  0.03740915373455069  1.0000
  N   N5        1.0  0.3662171268780697  0.27012343842591957  0.7186603890472226  1.0000
  N   N6        1.0  0.6337973693926885  0.7298752967421863  0.21865387547416046  1.0000
  N   N7        1.0  0.02216994614495618  0.9943229659289872  0.3076872381359763  1.0000
  N   N8        1.0  0.9778283960294298  0.0056734754318057004  0.8076864484544328  1.0000
  N   N9        1.0  0.0325868278399852  0.5010506969233218  0.8129169428107657  1.0000
  N   N10       1.0  0.9674123535993926  0.4989473039596247  0.3129158215764746  1.0000
  N   N11       1.0  0.22858097318718523  0.8562294001613396  0.5403488514099803  1.0000
  N   N12       1.0  0.771413032612372  0.1437705817061499  0.0403540307768466  1.0000
  N   N13       1.0  0.6136241362019276  0.7417051128855192  0.7283118121471331  1.0000
  N   N14       1.0  0.38637467122473623  0.2582943041363209  0.22831413548006907  1.0000
  N   N15       1.0  0.4806273656459367  0.668566286177274  0.5888216082143528  1.0000
  N   N16       1.0  0.5193624820426805  0.3314349241982557  0.08882233872320457  1.0000
  O   O1        1.0  0.19590934133680799  0.0716957477676559  0.3512829593941547  1.0000
  O   O2        1.0  0.8040759204111225  0.928300336728199  0.8512811057205167  1.0000
  O   O3        1.0  0.8418733980433899  0.9150957178055493  0.34758661974119315  1.0000
  O   O4        1.0  0.15811262176910648  0.08490199132234011  0.8475893725891337  1.0000
  O   O5        1.0  0.02893934805353374  0.9964534608226853  0.22523778187768775  1.0000
  O   O6        1.0  0.9710779035190525  0.0035452340887829003  0.7252369983014046  1.0000
  O   O7        1.0  0.03974874092990893  0.4640925887166318  0.7343280947355666  1.0000
  O   O8        1.0  0.9602712887824012  0.5359060476258223  0.23432677352418096  1.0000
  O   O9        1.0  0.9023338862983508  0.5858910027201318  0.8262731398157043  1.0000
  O   O10       1.0  0.09765463499807236  0.4141068696728994  0.32627638709231377  1.0000
  O   O11       1.0  0.15474296127862167  0.4514164391630473  0.8744850468647981  1.0000
  O   O12       1.0  0.8452502774782006  0.5485842845924297  0.374482263852407  1.0000
