data_image0
_chemical_formula_structural       Tb8H72C114O66F36
_chemical_formula_sum              "Tb8 H72 C114 O66 F36"
_cell_length_a       7.9227539707278085
_cell_length_b       21.38297355491601
_cell_length_c       23.005017179511803
_cell_angle_alpha    82.10291112526491
_cell_angle_beta     82.76411018824604
_cell_angle_gamma    79.56444662664936

_space_group_name_H-M_alt    "P 1"
_space_group_IT_number       1

loop_
  _space_group_symop_operation_xyz
  'x, y, z'

loop_
  _atom_site_type_symbol
  _atom_site_label
  _atom_site_symmetry_multiplicity
  _atom_site_fract_x
  _atom_site_fract_y
  _atom_site_fract_z
  _atom_site_occupancy
  Tb  Tb1       1.0  0.7292724316265053  0.0953754680196326  0.5347915880316589  1.0000
  Tb  Tb2       1.0  0.969053866493894  0.24656916541530194  0.5959084751367312  1.0000
  Tb  Tb3       1.0  0.6802822155253382  0.5798100519046302  0.21318718889989433  1.0000
  Tb  Tb4       1.0  0.12059760618047481  0.5266152175668707  0.06759090184259257  1.0000
  Tb  Tb5       1.0  0.27073285900660676  0.9046228770501373  0.46520750196560084  1.0000
  Tb  Tb6       1.0  0.030943352055565802  0.7534330111353995  0.4040909233651531  1.0000
  Tb  Tb7       1.0  0.31971479550040266  0.4201926012238746  0.7868130281386382  1.0000
  Tb  Tb8       1.0  0.8794013328761779  0.47338599414011645  0.9324111503521946  1.0000
  H   H1        1.0  0.40832458927418014  0.03149317723427462  0.5549762856223166  1.0000
  H   H2        1.0  0.36456089125243807  0.1025549015070624  0.5751172091528785  1.0000
  H   H3        1.0  0.8912646288990729  0.9565962051321294  0.5739146839791402  1.0000
  H   H4        1.0  0.6946878004566488  0.9546305609596145  0.5688090167314355  1.0000
  H   H5        1.0  0.33062170531243135  0.26215360318354913  0.5413594871124587  1.0000
  H   H6        1.0  0.3254203574020239  0.2649453746978381  0.6121815472040522  1.0000
  H   H7        1.0  0.9668956454693288  0.3694567841595743  0.63779309824082  1.0000
  H   H8        1.0  0.11550153987079173  0.36396242664583406  0.5855164581686478  1.0000
  H   H9        1.0  0.5963198786683818  0.3160957415478904  0.6110576235280971  1.0000
  H   H10       1.0  0.7138921030125828  0.36491363949767214  0.5753872768288273  1.0000
  H   H11       1.0  0.2906989183997266  0.6022542616074135  0.2476313129138318  1.0000
  H   H12       1.0  0.3155816250028565  0.5746913501270255  0.18757763205922368  1.0000
  H   H13       1.0  0.9856645164942182  0.5796505959054201  0.27729085553058747  1.0000
  H   H14       1.0  0.011238535905469844  0.5199962675029114  0.24265816232819046  1.0000
  H   H15       1.0  0.49643046475706865  0.503369664358665  0.304478105640392  1.0000
  H   H16       1.0  0.6734108376658057  0.4972842648903893  0.3293435320540181  1.0000
  H   H17       1.0  0.44107631727439417  0.5716405766364687  0.09713916001440029  1.0000
  H   H18       1.0  0.5002016161547971  0.532086086850569  0.044825589008461  1.0000
  H   H19       1.0  0.1100635558914149  0.23670210744494827  0.3794509621537613  1.0000
  H   H20       1.0  0.7105733968975658  0.2545753011060228  0.263477255508782  1.0000
  H   H21       1.0  0.4936164860987161  0.2545709875370648  0.3504036376367025  1.0000
  H   H22       1.0  0.9184337080058425  0.35888074136497755  0.25463671940491384  1.0000
  H   H23       1.0  0.967663575171805  0.2857170158311391  0.057693407688802295  1.0000
  H   H24       1.0  0.06006520274989669  0.2084973833391217  0.14137793265253856  1.0000
  H   H25       1.0  0.8548355139469592  0.9038680320909335  0.28486219242240907  1.0000
  H   H26       1.0  0.5878592806636789  0.09615365898605432  0.24026470736823305  1.0000
  H   H27       1.0  0.6500348712898828  0.1250552215370604  0.3340406484079707  1.0000
  H   H28       1.0  0.4641687997308353  0.9331765614395665  0.2909436032317742  1.0000
  H   H29       1.0  0.7412396762040386  0.7502699710652367  0.1835590211385493  1.0000
  H   H30       1.0  0.7956779773165862  0.8585659779009164  0.14350364555482997  1.0000
  H   H31       1.0  0.8328864620680393  0.2902604776252958  0.9344739804268227  1.0000
  H   H32       1.0  0.7293959554736419  0.13317447350680567  0.8521060760213286  1.0000
  H   H33       1.0  0.8312236413237529  0.18604541073131028  0.7553545613547354  1.0000
  H   H34       1.0  0.48119809536448327  0.2691422812019156  0.9111169962286352  1.0000
  H   H35       1.0  0.49206413424030887  0.30982966423424324  0.11721851669040716  1.0000
  H   H36       1.0  0.6633900155852359  0.21054699264468726  0.08259040837482699  1.0000
  H   H37       1.0  0.5916773065064973  0.9685070816901062  0.4450235826061188  1.0000
  H   H38       1.0  0.6354486361525388  0.8974453562744101  0.42488188777020497  1.0000
  H   H39       1.0  0.10873959773717704  0.04340453187393221  0.4260850212059422  1.0000
  H   H40       1.0  0.30531306429998045  0.0453720785919032  0.4311958135540762  1.0000
  H   H41       1.0  0.6693802003600882  0.7378466523480824  0.45864168517675086  1.0000
  H   H42       1.0  0.674582171808005  0.7350563192355326  0.38781854709661434  1.0000
  H   H43       1.0  0.033103932644898755  0.6305429921594552  0.36220867177866  1.0000
  H   H44       1.0  0.8845046279854999  0.6360368644150611  0.4144868209203948  1.0000
  H   H45       1.0  0.4036805403989235  0.683904993202333  0.38894355402697295  1.0000
  H   H46       1.0  0.2861042679892378  0.6350875808836705  0.4246118447636177  1.0000
  H   H47       1.0  0.7092993839302864  0.397745516221498  0.7523700785217924  1.0000
  H   H48       1.0  0.6844130739846506  0.4253079499991729  0.8124239785228224  1.0000
  H   H49       1.0  0.01433018908785038  0.42034870195895024  0.7227116244253152  1.0000
  H   H50       1.0  0.9887544590612477  0.4800039918124241  0.7573429679955834  1.0000
  H   H51       1.0  0.5035616694728803  0.4966296433109677  0.6955210090262295  1.0000
  H   H52       1.0  0.32658108904042404  0.5027155193570323  0.6706564011492517  1.0000
  H   H53       1.0  0.5589217610454893  0.42835968342482295  0.9028608765232347  1.0000
  H   H54       1.0  0.49980283449158264  0.46791416792312635  0.9551754710746106  1.0000
  H   H55       1.0  0.889950006788162  0.7632890636927883  0.6205447538069887  1.0000
  H   H56       1.0  0.28942042020489117  0.745428791561125  0.7365220518504143  1.0000
  H   H57       1.0  0.506380108913234  0.7454297506119048  0.649596838853732  1.0000
  H   H58       1.0  0.08156862357231638  0.6411214257534396  0.7453654974931749  1.0000
  H   H59       1.0  0.032325783081354635  0.7142913826269249  0.9423072930893779  1.0000
  H   H60       1.0  0.9399205314107061  0.7915076760665942  0.8586190015291063  1.0000
  H   H61       1.0  0.14516043114922178  0.09613127670362333  0.7151358845611495  1.0000
  H   H62       1.0  0.41212353344123903  0.9038437352259195  0.759735494158711  1.0000
  H   H63       1.0  0.3499528087526327  0.8749426533914006  0.6659579738087016  1.0000
  H   H64       1.0  0.5358186374842049  0.0668246706418856  0.7090524335867484  1.0000
  H   H65       1.0  0.25876924414983904  0.2497288426599198  0.8164433272077144  1.0000
  H   H66       1.0  0.20432583990044145  0.14143284186378932  0.8564971884560035  1.0000
  H   H67       1.0  0.1671415799272182  0.7097325817049908  0.06552955268679028  1.0000
  H   H68       1.0  0.27060896201034973  0.8668219418815254  0.14789892435788227  1.0000
  H   H69       1.0  0.16877618291523086  0.8139510073038136  0.24465022874982614  1.0000
  H   H70       1.0  0.5188109981757094  0.730861804655767  0.08888250726757714  1.0000
  H   H71       1.0  0.5079237806705309  0.6901705932042219  0.8827841421064233  1.0000
  H   H72       1.0  0.33660361281084783  0.7894547016796378  0.9174109480211852  1.0000
  C   C1        1.0  0.5445153636928451  0.23042455333935402  0.4652151110804396  1.0000
  C   C2        1.0  0.6790723142942455  0.23930609048725426  0.4135471245551299  1.0000
  C   C3        1.0  0.8537694134080668  0.23681628036811733  0.42064693930200986  1.0000
  C   C4        1.0  0.9765397077793664  0.2392308498452351  0.37134998255950774  1.0000
  C   C5        1.0  0.9284080432451772  0.2427447197072752  0.3143974495338567  1.0000
  C   C6        1.0  0.7522565448851353  0.24950677279021963  0.3074946672152024  1.0000
  C   C7        1.0  0.6296114348751659  0.24890957690362112  0.3563816791732675  1.0000
  C   C8        1.0  0.9093563297163386  0.23275836359258054  0.48078173614796055  1.0000
  C   C9        1.0  0.05843417031404389  0.23396984462089426  0.25938323115517636  1.0000
  C   C10       1.0  0.9981084680003751  0.2782555079615321  0.20475231659782608  1.0000
  C   C11       1.0  0.9343885732768701  0.34268936742917333  0.21109419905188523  1.0000
  C   C12       1.0  0.8930787880881966  0.38739872645440687  0.16253902536084294  1.0000
  C   C13       1.0  0.9057599795004024  0.36635021580671895  0.10666482394368872  1.0000
  C   C14       1.0  0.9603359969377223  0.30140464797856475  0.10106210187472438  1.0000
  C   C15       1.0  0.010861893410549266  0.2578673797020628  0.1488392813808517  1.0000
  C   C16       1.0  0.8334335945909002  0.4552771265580589  0.17563326188260214  1.0000
  C   C17       1.0  0.8751507971335147  0.4090534074650379  0.05080720229562976  1.0000
  C   C18       1.0  0.2389594045116182  0.2484920442137195  0.26778067333245287  1.0000
  C   C19       1.0  0.0808727833286298  0.16174195769858102  0.24990461741474942  1.0000
  C   C20       1.0  0.7879033283039193  0.048206523331636206  0.42328738788616244  1.0000
  C   C21       1.0  0.7887412901924193  0.031664267557744104  0.36208827615362066  1.0000
  C   C22       1.0  0.8468735361287116  0.9691792807101649  0.34752673937594364  1.0000
  C   C23       1.0  0.811836912963834  0.953131341009012  0.2940844877727215  1.0000
  C   C24       1.0  0.7158060717681138  0.9974387602091074  0.2552799884847871  1.0000
  C   C25       1.0  0.6614351793125195  0.059994814983888006  0.2695235883278143  1.0000
  C   C26       1.0  0.6977014734996628  0.07674307401837409  0.3225482499829794  1.0000
  C   C27       1.0  0.9292184227527115  0.9176254996287908  0.3909233345750493  1.0000
  C   C28       1.0  0.6749444978123262  0.9736368017474321  0.19922746933690408  1.0000
  C   C29       1.0  0.6383836613441289  0.9045909446878045  0.21507112216531238  1.0000
  C   C30       1.0  0.525816961533387  0.8938798435012887  0.26612036850494286  1.0000
  C   C31       1.0  0.4911074254439426  0.8330668399811432  0.28788475493041676  1.0000
  C   C32       1.0  0.5738887915622756  0.7799866173555898  0.2590588142712704  1.0000
  C   C33       1.0  0.6783360774430133  0.7911142631652981  0.20629496973353406  1.0000
  C   C34       1.0  0.710564839628418  0.8526348205445942  0.18412801800148762  1.0000
  C   C35       1.0  0.35578844829009887  0.8292007525820962  0.3393057206205441  1.0000
  C   C36       1.0  0.5689667436798375  0.7123161419926732  0.28689204073791785  1.0000
  C   C37       1.0  0.8336870887684428  0.9799268456890218  0.15302632342064723  1.0000
  C   C38       1.0  0.5110808714163824  0.0141742094339534  0.17347664031570528  1.0000
  C   C39       1.0  0.9407771738230866  0.29765956987621683  0.7288832655400339  1.0000
  C   C40       1.0  0.8897645201398631  0.2669172315521067  0.7895287706429739  1.0000
  C   C41       1.0  0.8899407091209922  0.29588818687794577  0.8408375215219761  1.0000
  C   C42       1.0  0.8329807405847092  0.2662197175031054  0.8956706585456614  1.0000
  C   C43       1.0  0.774573690999148  0.20727045979932518  0.9011184391703109  1.0000
  C   C44       1.0  0.7747475288580078  0.17851487811131514  0.8501244425558735  1.0000
  C   C45       1.0  0.8329245441758746  0.2080127464700752  0.7951799661034539  1.0000
  C   C46       1.0  0.9619509843970205  0.35612294527511784  0.8400729925842466  1.0000
  C   C47       1.0  0.7094875073370942  0.17965641818398842  0.963797251016302  1.0000
  C   C48       1.0  0.5895173694420706  0.23379952823990643  0.9934162008365558  1.0000
  C   C49       1.0  0.48411553044416417  0.2772186932173497  0.9566271617701714  1.0000
  C   C50       1.0  0.38928550162008685  0.3331996354236111  0.9758351347252797  1.0000
  C   C51       1.0  0.3963163121659504  0.3456529715778132  0.03383721552178539  1.0000
  C   C52       1.0  0.48915040393964665  0.29979391242125075  0.07221133425831987  1.0000
  C   C53       1.0  0.5863433030002767  0.2441320524422251  0.05232034220460948  1.0000
  C   C54       1.0  0.2875383825753702  0.3780023030691595  0.9317225654206635  1.0000
  C   C55       1.0  0.322750660558171  0.410234579338237  0.0511909628628331  1.0000
  C   C56       1.0  0.8724815349831518  0.15272636623614494  0.9967101099498519  1.0000
  C   C57       1.0  0.6038552433501537  0.12466941161969913  0.9643062567171936  1.0000
  C   C58       1.0  0.45550987634559437  0.7695690002904105  0.5347828324720607  1.0000
  C   C59       1.0  0.32093275659237014  0.7606956038190943  0.586452422852467  1.0000
  C   C60       1.0  0.1462365393635991  0.7631806213972753  0.5793549113284369  1.0000
  C   C61       1.0  0.023462816200684133  0.7607651089488031  0.6286469218114445  1.0000
  C   C62       1.0  0.07159681488773367  0.757251716037537  0.6855997264806746  1.0000
  C   C63       1.0  0.24774214048584747  0.7504949313273884  0.6925021178992592  1.0000
  C   C64       1.0  0.3703874942896448  0.7510916381961151  0.6436190689607455  1.0000
  C   C65       1.0  0.0906498051671392  0.7672409387774694  0.519217196071814  1.0000
  C   C66       1.0  0.9415632119281269  0.7660290019187954  0.740608320258623  1.0000
  C   C67       1.0  0.001878764988226978  0.7217461995668019  0.7952449734442694  1.0000
  C   C68       1.0  0.06560760668763513  0.657312323875381  0.7889079145118384  1.0000
  C   C69       1.0  0.10692119944525298  0.6126029671059855  0.8374616158328863  1.0000
  C   C70       1.0  0.09423703482261912  0.6336524361908645  0.8933358277817687  1.0000
  C   C71       1.0  0.03965804747214458  0.6985989613252954  0.8989389950693859  1.0000
  C   C72       1.0  0.9891257753755341  0.7421362360203079  0.8511603573309043  1.0000
  C   C73       1.0  0.16656620520252108  0.544725036794631  0.8243708059693373  1.0000
  C   C74       1.0  0.12484833159586368  0.5909530707198982  0.9491941784837434  1.0000
  C   C75       1.0  0.7610324849581572  0.7515048843386581  0.7322131006932293  1.0000
  C   C76       1.0  0.9191226840717449  0.8382583257389624  0.7500868375905012  1.0000
  C   C77       1.0  0.21210152749806355  0.9517927816792165  0.5767107310628388  1.0000
  C   C78       1.0  0.21126122486213453  0.9683345627641631  0.6379087017779455  1.0000
  C   C79       1.0  0.15312536006327088  0.030821945698726004  0.6524696618888013  1.0000
  C   C80       1.0  0.18816646186114377  0.046865572823477905  0.705913128194595  1.0000
  C   C81       1.0  0.2841892530878313  0.0025591090527897005  0.744719601174239  1.0000
  C   C82       1.0  0.3385584603399892  0.9400011385465278  0.7304767515731142  1.0000
  C   C83       1.0  0.30228853177021653  0.9232581493887365  0.6774507174378854  1.0000
  C   C84       1.0  0.07079467172467699  0.08237524829547033  0.6090707616454265  1.0000
  C   C85       1.0  0.32504825336057047  0.026363946585767906  0.8007696979673253  1.0000
  C   C86       1.0  0.3616082521729709  0.09540884408328762  0.7849270722902517  1.0000
  C   C87       1.0  0.4741751726965617  0.10611946416834431  0.7338787461616789  1.0000
  C   C88       1.0  0.508889373794439  0.1669334227209518  0.7121144683364377  1.0000
  C   C89       1.0  0.4261192591293366  0.2200141162517326  0.7409415919784547  1.0000
  C   C90       1.0  0.32166942168016993  0.20888647346179573  0.7937046793484794  1.0000
  C   C91       1.0  0.2894387535784801  0.14736448145247752  0.8158714611113635  1.0000
  C   C92       1.0  0.6442111090740854  0.17079616238730475  0.6606920636559862  1.0000
  C   C93       1.0  0.431035161992682  0.2876841135389512  0.7131091315512915  1.0000
  C   C94       1.0  0.16630480922859903  0.020075816871767  0.846971075221681  1.0000
  C   C95       1.0  0.4889067964033488  0.9858265381532973  0.826521620774649  1.0000
  C   C96       1.0  0.059220943097834336  0.7023378084789584  0.2711206096193307  1.0000
  C   C97       1.0  0.11024273149698866  0.7330796607869915  0.21047650137981574  1.0000
  C   C98       1.0  0.11007713745874532  0.7041077492738097  0.1591656646029591  1.0000
  C   C99       1.0  0.1670390307286667  0.7337747783580538  0.10433392804860381  1.0000
  C   C100      1.0  0.22544586619594753  0.7927245149014582  0.09888609658674596  1.0000
  C   C101      1.0  0.2252614235023457  0.82148105616956  0.14988087503825645  1.0000
  C   C102      1.0  0.1670854566612762  0.7919836696642121  0.20482394048961783  1.0000
  C   C103      1.0  0.038050946687405926  0.6438744330740676  0.15993027957897965  1.0000
  C   C104      1.0  0.2905222869426823  0.8203433426632072  0.0362088517348127  1.0000
  C   C105      1.0  0.410489188049759  0.7662016868478433  0.006583341305180556  1.0000
  C   C106      1.0  0.5158958995798246  0.7227830003250589  0.04337167043514966  1.0000
  C   C107      1.0  0.6107157485084543  0.6668020611505555  0.02416414630460647  1.0000
  C   C108      1.0  0.6036830198235208  0.6543501630251213  0.9661615344126202  1.0000
  C   C109      1.0  0.5108440588149464  0.7002087425961037  0.9277885602994258  1.0000
  C   C110      1.0  0.41365518473882906  0.7558701248604297  0.9476785655072814  1.0000
  C   C111      1.0  0.7124688106767536  0.6219974777615463  0.0682762598588411  1.0000
  C   C112      1.0  0.677242955615128  0.5897699876448714  0.9488100324068609  1.0000
  C   C113      1.0  0.12751977023283007  0.8472724429773348  0.0032951831363803178  1.0000
  C   C114      1.0  0.3961443545477648  0.8753303579138391  0.03569812142384877  1.0000
  O   O1        1.0  0.5399072400566355  0.172013841760517  0.48713621700410653  1.0000
  O   O2        1.0  0.4569708317875437  0.06693500018578652  0.5674900322106992  1.0000
  O   O3        1.0  0.44476630968806313  0.2785049136830438  0.4818938799274404  1.0000
  O   O4        1.0  0.7731017341977163  0.9823654104730651  0.5755884866922969  1.0000
  O   O5        1.0  0.844524804772803  0.19553893319839938  0.5235200800938314  1.0000
  O   O6        1.0  0.2594742054654517  0.2552998784438357  0.5813442156509935  1.0000
  O   O7        1.0  0.01536959235021128  0.2670990525560414  0.4905024560040089  1.0000
  O   O8        1.0  0.9915064162664392  0.36505109824364723  0.5948382014424209  1.0000
  O   O9        1.0  0.6950758558625055  0.467356678114065  0.2096853780138232  1.0000
  O   O10       1.0  0.7037700895706748  0.3198809028184115  0.5837825978227398  1.0000
  O   O11       1.0  0.9239944418813479  0.4995882824679115  0.15698289986019626  1.0000
  O   O12       1.0  0.37638125501856484  0.5741820478653994  0.22270603876864198  1.0000
  O   O13       1.0  0.9345148625083438  0.46199227968374856  0.0414796557390957  1.0000
  O   O14       1.0  0.929198183790724  0.5433485900032624  0.2708471109971383  1.0000
  O   O15       1.0  0.802916868950753  0.39124750464633  0.01137030686005858  1.0000
  O   O16       1.0  0.5793672769534338  0.5283110032995779  0.31359792606829007  1.0000
  O   O17       1.0  0.8940926460360856  0.0801405700242626  0.4378952850288157  1.0000
  O   O18       1.0  0.4113841518405934  0.5365063759219594  0.07927299370677329  1.0000
  O   O19       1.0  0.6630803885540429  0.0328277759302154  0.46031573350592936  1.0000
  O   O20       1.0  0.999319677939134  0.9344269823513898  0.4317262020835456  1.0000
  O   O21       1.0  0.9158345622749806  0.8602009729618485  0.385599905110652  1.0000
  O   O22       1.0  0.3442545167354397  0.8691225109314971  0.37626624491574023  1.0000
  O   O23       1.0  0.2546675388940257  0.7892246242644703  0.3407781894272758  1.0000
  O   O24       1.0  0.5757164482359939  0.6995639344979382  0.34213472807885376  1.0000
  O   O25       1.0  0.5661010541682643  0.6700628681190609  0.25283134648240235  1.0000
  O   O26       1.0  0.014785472404305732  0.261370701146582  0.691081655942476  1.0000
  O   O27       1.0  0.9023084340790747  0.35920726213574744  0.7168871371085498  1.0000
  O   O28       1.0  0.11945386106236106  0.35448603435541765  0.8212820940792295  1.0000
  O   O29       1.0  0.8616202525243043  0.4042620923595876  0.8596389820959442  1.0000
  O   O30       1.0  0.3746580564353934  0.39316651372151074  0.8819349880382031  1.0000
  O   O31       1.0  0.12848036193401668  0.39497351632653743  0.9435753136606733  1.0000
  O   O32       1.0  0.3304197916015711  0.4580096452036956  0.010644983543407682  1.0000
  O   O33       1.0  0.251965422538845  0.418491167355782  0.10278922954883288  1.0000
  O   O34       1.0  0.4601041800755113  0.8279878551746407  0.5128613111404332  1.0000
  O   O35       1.0  0.5430331962504839  0.933063341870202  0.4325104179504179  1.0000
  O   O36       1.0  0.5552323987638914  0.7214967825181519  0.5181059479955079  1.0000
  O   O37       1.0  0.2269046256622431  0.017636277799731204  0.42441317804686907  1.0000
  O   O38       1.0  0.15547918136690697  0.8044622916946126  0.4764760967586381  1.0000
  O   O39       1.0  0.7405276780924411  0.7447032531393275  0.4186552914511238  1.0000
  O   O40       1.0  0.9846494772572283  0.7328969001804708  0.5094941537139589  1.0000
  O   O41       1.0  0.008499952519016935  0.6349477185012875  0.4051633897361241  1.0000
  O   O42       1.0  0.3049222333155726  0.532646446689597  0.7903173402059874  1.0000
  O   O43       1.0  0.2962341601465539  0.6801198262712448  0.4162201501708294  1.0000
  O   O44       1.0  0.07599726178109723  0.5004148521470172  0.8430170560664788  1.0000
  O   O45       1.0  0.6236178816699649  0.4258186906565414  0.777293890828723  1.0000
  O   O46       1.0  0.06548913448956033  0.538011809951641  0.9585192027955426  1.0000
  O   O47       1.0  0.07079608366292692  0.4566516689331053  0.7291539632235597  1.0000
  O   O48       1.0  0.19708376423484  0.6087527512642765  0.9886309215322199  1.0000
  O   O49       1.0  0.42062464975279573  0.4716887809478436  0.6864020071349797  1.0000
  O   O50       1.0  0.105904350834173  0.9198592194927786  0.5621018156406163  1.0000
  O   O51       1.0  0.5886181787712205  0.463492923061338  0.9207278455699278  1.0000
  O   O52       1.0  0.3369195881212192  0.9671710528877995  0.539682226005624  1.0000
  O   O53       1.0  0.0006978453137804947  0.06557807549648942  0.5682662867128625  1.0000
  O   O54       1.0  0.08417219614600667  0.1397997678099401  0.6143979491205867  1.0000
  O   O55       1.0  0.6557446166558095  0.13087822872136462  0.6237332499946999  1.0000
  O   O56       1.0  0.7453422026292389  0.21077515467737842  0.6592209583330156  1.0000
  O   O57       1.0  0.4242930923581128  0.3004363187598785  0.6578661075919426  1.0000
  O   O58       1.0  0.4339031856571224  0.32993786436333755  0.7471700974503859  1.0000
  O   O59       1.0  0.9852056232406952  0.7386281212769034  0.3089201737859851  1.0000
  O   O60       1.0  0.09768841365219319  0.6407901154674818  0.2831172288408083  1.0000
  O   O61       1.0  0.8805446464604431  0.6455161361617388  0.17871942175422348  1.0000
  O   O62       1.0  0.1383765853151218  0.5957352886363909  0.14036407979263996  1.0000
  O   O63       1.0  0.6253442609872908  0.6068327897854503  0.11806411249078502  1.0000
  O   O64       1.0  0.8715155864594448  0.6050257913370988  0.05642319800981708  1.0000
  O   O65       1.0  0.6695818679461921  0.5419939686118412  0.9893531686607202  1.0000
  O   O66       1.0  0.7480313710713277  0.5815119657432604  0.8972105019655671  1.0000
  F   F1        1.0  0.32553839548096875  0.20246143259351612  0.30593773499887067  1.0000
  F   F2        1.0  0.3440014568246923  0.25209052800241943  0.21639709770312263  1.0000
  F   F3        1.0  0.22527679249750318  0.3054499239795447  0.2897374133644845  1.0000
  F   F4        1.0  0.10744341956225872  0.122175758379683  0.3004622367620725  1.0000
  F   F5        1.0  0.21663321425805998  0.14462360861433873  0.20940911168229084  1.0000
  F   F6        1.0  0.9369729364734739  0.14906811419002958  0.23026714942952956  1.0000
  F   F7        1.0  0.9729305436303691  0.9360720490171205  0.16882278891721106  1.0000
  F   F8        1.0  0.8809704051040157  0.038428620774141116  0.14962411156880503  1.0000
  F   F9        1.0  0.8054579970083042  0.9712209520348055  0.09794071240940375  1.0000
  F   F10       1.0  0.46214194423657795  0.9861462722753129  0.13029960960490433  1.0000
  F   F11       1.0  0.5337817512533789  0.07456871880016541  0.1498197205204689  1.0000
  F   F12       1.0  0.3754816605832403  0.0199946760079257  0.21618595276967764  1.0000
  F   F13       1.0  0.989876164657595  0.11321869606031501  0.9646519342473068  1.0000
  F   F14       1.0  0.83631603733636  0.11951848117287511  0.05014397119525428  1.0000
  F   F15       1.0  0.9537333156911529  0.20110388016154707  0.006289401101653904  1.0000
  F   F16       1.0  0.5271397476027248  0.10847283957036075  0.019114336645358797  1.0000
  F   F17       1.0  0.7017863587305867  0.07050570528797101  0.9459267475887995  1.0000
  F   F18       1.0  0.47507654960643453  0.14372588369553088  0.9282867179275908  1.0000
  F   F19       1.0  0.6744733949012558  0.7975335896177072  0.6940497498995482  1.0000
  F   F20       1.0  0.6559687594352823  0.747912157964592  0.7835947343874988  1.0000
  F   F21       1.0  0.7747276496216242  0.6945445967857325  0.7102600221019413  1.0000
  F   F22       1.0  0.8925546106629767  0.8778187812441728  0.6995289589158131  1.0000
  F   F23       1.0  0.7833522883314995  0.8553790671504591  0.7905842206061204  1.0000
  F   F24       1.0  0.06302381990024493  0.8509321632139618  0.7697264229072825  1.0000
  F   F25       1.0  0.027058613125511485  0.0639253500854977  0.8311745239728193  1.0000
  F   F26       1.0  0.11902578804961912  0.9615730660067568  0.8503797407426246  1.0000
  F   F27       1.0  0.19452921812930407  0.0287864985492732  0.9020567247539188  1.0000
  F   F28       1.0  0.5378417306051162  0.013852073582363301  0.869702607579185  1.0000
  F   F29       1.0  0.4662116323825245  0.9254305964069046  0.8501762952346041  1.0000
  F   F30       1.0  0.6245073037707485  0.9800089314190717  0.7838166726474893  1.0000
  F   F31       1.0  0.010103221259001148  0.8867695549741232  0.035367826655900055  1.0000
  F   F32       1.0  0.16368081619300057  0.8804961052410932  0.9498686604824724  1.0000
  F   F33       1.0  0.04629467025030457  0.7988891983943133  0.993706742334204  1.0000
  F   F34       1.0  0.4728519913634769  0.8915274144693657  0.9808890232161215  1.0000
  F   F35       1.0  0.29820455480259495  0.9294907165308575  0.0540780005503265  1.0000
  F   F36       1.0  0.524931734987156  0.8562743642866766  0.07171634728089765  1.0000
