data_image0
_chemical_formula_structural       Er4H20C24N8O24
_chemical_formula_sum              "Er4 H20 C24 N8 O24"
_cell_length_a       5.9698005521001765
_cell_length_b       9.572297157852379
_cell_length_c       14.794279480988585
_cell_angle_alpha    92.83770022026086
_cell_angle_beta     90.00017662192975
_cell_angle_gamma    90.00024971236982

_space_group_name_H-M_alt    "P 1"
_space_group_IT_number       1

loop_
  _space_group_symop_operation_xyz
  'x, y, z'

loop_
  _atom_site_type_symbol
  _atom_site_label
  _atom_site_symmetry_multiplicity
  _atom_site_fract_x
  _atom_site_fract_y
  _atom_site_fract_z
  _atom_site_occupancy
  Er  Er1       1.0  0.5699033256587  0.8720075649471398  0.24836725971670862  1.0000
  Er  Er2       1.0  0.06989618855644858  0.6279901795337254  0.2516304179100786  1.0000
  Er  Er3       1.0  0.4300968570056368  0.1279872183324287  0.7516321957764018  1.0000
  Er  Er4       1.0  0.9300989688500678  0.3720077406231681  0.7483677851937854  1.0000
  H   H1        1.0  0.7663099337668839  0.9150709158295954  0.6097267604628838  1.0000
  H   H2        1.0  0.26630789158853924  0.5849249852422248  0.8902687582172247  1.0000
  H   H3        1.0  0.23369862447322018  0.0849301421716717  0.3902715421456834  1.0000
  H   H4        1.0  0.733690616043539  0.4150771161790274  0.10972619780277167  1.0000
  H   H5        1.0  0.1460426239025381  0.1119925001143258  0.966600990383256  1.0000
  H   H6        1.0  0.6460471203537566  0.38800758638841876  0.5333988089657993  1.0000
  H   H7        1.0  0.8539575590184543  0.8880148383411139  0.0334035948395979  1.0000
  H   H8        1.0  0.3539580875532168  0.6119840589822233  0.46660054700978987  1.0000
  H   H9        1.0  0.8622694493133808  0.125679591016933  0.22003771063959476  1.0000
  H   H10       1.0  0.3622707607712172  0.37432572362147454  0.2799638731448937  1.0000
  H   H11       1.0  0.1377257081025078  0.8743193745879339  0.7799598496822284  1.0000
  H   H12       1.0  0.637726071872855  0.6256784748911883  0.7200379087527435  1.0000
  H   H13       1.0  0.680017060469389  0.17325096624358596  0.29596309004236326  1.0000
  H   H14       1.0  0.18001850979263884  0.32675353390444434  0.2040393566736043  1.0000
  H   H15       1.0  0.3199764219205363  0.8267500938736917  0.7040379163902059  1.0000
  H   H16       1.0  0.8199783227777786  0.6732475251695009  0.7959602978498806  1.0000
  H   H17       1.0  0.2744512731419703  0.7782105411952002  0.3835563403002595  1.0000
  H   H18       1.0  0.7744473355470946  0.7217889064863101  0.1164391246676928  1.0000
  H   H19       1.0  0.7255455593833844  0.22178633557104632  0.6164452093979944  1.0000
  H   H20       1.0  0.22555284724710128  0.27821528891982444  0.8835586015073389  1.0000
  C   C1        1.0  0.8741680203537141  0.8440692357457918  0.4303463535558336  1.0000
  C   C2        1.0  0.37416773701087186  0.6559305618164474  0.06965238574698418  1.0000
  C   C3        1.0  0.1258405379149821  0.1559307793865017  0.5696559716016764  1.0000
  C   C4        1.0  0.6258357959620467  0.3440725876141785  0.9303453072543773  1.0000
  C   C5        1.0  0.6760173805577879  0.925289523276909  0.4678533353690142  1.0000
  C   C6        1.0  0.1760220550404341  0.5747074766600448  0.03214284285004959  1.0000
  C   C7        1.0  0.3239911776256221  0.07470944124941781  0.532142873036733  1.0000
  C   C8        1.0  0.8239848280942396  0.4252935808312942  0.9678547838063023  1.0000
  C   C9        1.0  0.6465304202279682  0.9518362774098748  0.5606503957746156  1.0000
  C   C10       1.0  0.1465299882796387  0.5481636038581925  0.9393494446256696  1.0000
  C   C11       1.0  0.3534831633395683  0.048166872501333606  0.4393479731731489  1.0000
  C   C12       1.0  0.8534718696275762  0.4518405925736745  0.060649633454957594  1.0000
  C   C13       1.0  0.21558789807856016  0.0700940769958507  0.1510654980758446  1.0000
  C   C14       1.0  0.7155807017807021  0.4299028532463394  0.34893801891197995  1.0000
  C   C15       1.0  0.7844139597969999  0.9299048932277432  0.8489381458217409  1.0000
  C   C16       1.0  0.28440943040821043  0.5700950720861542  0.6510669437291695  1.0000
  C   C17       1.0  0.3617386679473568  0.031815202588660406  0.06999422188514608  1.0000
  C   C18       1.0  0.8617462303670251  0.4681838379008454  0.4300044597911921  1.0000
  C   C19       1.0  0.6382598398396125  0.9681931782258315  0.9300056648365567  1.0000
  C   C20       1.0  0.13826735307646487  0.5318088554674247  0.5699976331634389  1.0000
  C   C21       1.0  0.30433538926286013  0.06177728364008322  0.9814133811169441  1.0000
  C   C22       1.0  0.8043461712564905  0.43821855486510247  0.5185847467886546  1.0000
  C   C23       1.0  0.6956597682436366  0.9382258673672722  0.018586339750378  1.0000
  C   C24       1.0  0.1956623868028657  0.5617699531182867  0.48141518562396607  1.0000
  N   N1        1.0  0.5285301295156515  0.9731619870552138  0.40805332969243574  1.0000
  N   N2        1.0  0.028527927081491104  0.5268423230656085  0.0919446044654464  1.0000
  N   N3        1.0  0.47148512911758195  0.026840115854760406  0.5919436541760562  1.0000
  N   N4        1.0  0.971478956087097  0.47316082635327933  0.9080530885335917  1.0000
  N   N5        1.0  0.5571388203025336  0.9691866726939934  0.0878311809823131  1.0000
  N   N6        1.0  0.057147278744231804  0.5308101167483059  0.4121685090643936  1.0000
  N   N7        1.0  0.44285633722851253  0.030817524792936996  0.912169249009736  1.0000
  N   N8        1.0  0.942862954471444  0.46918152963633025  0.5878321988144677  1.0000
  O   O1        1.0  0.8515374187437601  0.795188987902371  0.3474688045224923  1.0000
  O   O2        1.0  0.35153552002618227  0.7048161985578361  0.1525308080468335  1.0000
  O   O3        1.0  0.1484661142028258  0.20481207011650332  0.6525294980895707  1.0000
  O   O4        1.0  0.6484696880316534  0.2951838155545943  0.8474701652062463  1.0000
  O   O5        1.0  0.04240520968333069  0.8299492704100402  0.478882171580338  1.0000
  O   O6        1.0  0.5424192685639895  0.6700444864131756  0.021120143240892703  1.0000
  O   O7        1.0  0.9575899477629194  0.1700496972580297  0.5211180925550067  1.0000
  O   O8        1.0  0.4575809141927394  0.32995552720105803  0.9788801540622956  1.0000
  O   O9        1.0  0.26577877619598667  0.013343819999377603  0.22429945134857118  1.0000
  O   O10       1.0  0.7657650364337415  0.48665798997773635  0.2757061895980613  1.0000
  O   O11       1.0  0.7342230817929618  0.9866593371740964  0.7757083809546541  1.0000
  O   O12       1.0  0.23422174565366297  0.5133462106333297  0.7242982961200823  1.0000
  O   O13       1.0  0.05871124086409201  0.15754250399059092  0.14160241155901324  1.0000
  O   O14       1.0  0.558713209078121  0.3424576208885313  0.3584061214887768  1.0000
  O   O15       1.0  0.9412721908299417  0.8424481006505645  0.8584036707941747  1.0000
  O   O16       1.0  0.4412769234089566  0.6575549520631796  0.6416047131781895  1.0000
  O   O17       1.0  0.7453023333965234  0.09189409270695852  0.2625243747215009  1.0000
  O   O18       1.0  0.24530376310377733  0.4081078565555032  0.23747588704868858  1.0000
  O   O19       1.0  0.2546861236712985  0.908108010296907  0.7374726091656213  1.0000
  O   O20       1.0  0.7546846939323829  0.5918890202400889  0.7625256626553848  1.0000
  O   O21       1.0  0.3373499670236981  0.7413243123819414  0.3260620260322895  1.0000
  O   O22       1.0  0.8373484893076651  0.7586736491534654  0.1739339942902376  1.0000
  O   O23       1.0  0.6626502156482275  0.25867047141342436  0.6739381054141944  1.0000
  O   O24       1.0  0.16265671871980197  0.24132636289576936  0.8260642751493208  1.0000
