data_image0
_chemical_formula_structural       Na16H32C32O48
_chemical_formula_sum              "Na16 H32 C32 O48"
_cell_length_a       10.015132794
_cell_length_b       10.07273233
_cell_length_c       13.0688
_cell_angle_alpha    90.0
_cell_angle_beta     90.0
_cell_angle_gamma    90.0

_space_group_name_H-M_alt    "P 1"
_space_group_IT_number       1

loop_
  _space_group_symop_operation_xyz
  'x, y, z'

loop_
  _atom_site_type_symbol
  _atom_site_label
  _atom_site_symmetry_multiplicity
  _atom_site_fract_x
  _atom_site_fract_y
  _atom_site_fract_z
  _atom_site_occupancy
  Na  Na1       1.0  0.5312410838114374  0.025754680209992397  0.37332501836434767  1.0000
  Na  Na2       1.0  0.4687596356997473  0.4742466933001452  0.8733250183643475  1.0000
  Na  Na3       1.0  0.9687599954553363  0.5257540681615609  0.6266749816356523  1.0000
  Na  Na4       1.0  0.031239725566841497  0.9742460812517209  0.1266749816356523  1.0000
  Na  Na5       1.0  0.4687596356997473  0.9742460812517209  0.6266749816356523  1.0000
  Na  Na6       1.0  0.5312410838114374  0.5257540681615609  0.1266749816356523  1.0000
  Na  Na7       1.0  0.031239725566841497  0.4742457005208607  0.37332501836434767  1.0000
  Na  Na8       1.0  0.9687599954553363  0.0257536874307078  0.8733250183643475  1.0000
  Na  Na9       1.0  0.0412236171493774  0.9489470867335186  0.6282298298237023  1.0000
  Na  Na10      1.0  0.9587771023618075  0.5510530626797632  0.1282298298237023  1.0000
  Na  Na11      1.0  0.4587767426062115  0.448947698781943  0.3717701701762977  1.0000
  Na  Na12      1.0  0.5412239769049663  0.0510536747281947  0.8717701701762975  1.0000
  Na  Na13      1.0  0.9587761038728003  0.0510536747281947  0.3717701701762977  1.0000
  Na  Na14      1.0  0.0412236171493774  0.44894670600265846  0.8717701701762975  1.0000
  Na  Na15      1.0  0.5412229784159592  0.5510540554590548  0.6282298298237023  1.0000
  Na  Na16      1.0  0.4587767426062115  0.9489470867335186  0.1282298298237023  1.0000
  H   H1        1.0  0.7118667467166516  0.3010970509925173  0.6868258753672905  1.0000
  H   H2        1.0  0.2881329743055261  0.1989033297383358  0.18682587536729048  1.0000
  H   H3        1.0  0.7881323355721078  0.8010964389440858  0.3131741246327095  1.0000
  H   H4        1.0  0.2118673854500699  0.6989017249106197  0.8131741246327093  1.0000
  H   H5        1.0  0.2881329743055261  0.698903710469196  0.3131741246327095  1.0000
  H   H6        1.0  0.7118677452056587  0.801098424502662  0.8131741246327093  1.0000
  H   H7        1.0  0.2118673854500699  0.19890233695905118  0.6868258753672905  1.0000
  H   H8        1.0  0.7881333340611149  0.3010980437718018  0.1868266405484817  1.0000
  H   H9        1.0  0.7988571059979463  0.1964471937873853  0.5290516344270344  1.0000
  H   H10       1.0  0.2011426150242244  0.3035531869434678  0.029051634427034394  1.0000
  H   H11       1.0  0.7011429747798131  0.6964475745182455  0.47094836557296554  1.0000
  H   H12       1.0  0.29885774473136445  0.8035525748950363  0.9709483655729654  1.0000
  H   H13       1.0  0.2011426150242244  0.8035535676743208  0.47094836557296554  1.0000
  H   H14       1.0  0.7988571059979463  0.6964475745182455  0.9709483655729654  1.0000
  H   H15       1.0  0.2988567462423574  0.3035531869434678  0.5290516344270344  1.0000
  H   H16       1.0  0.7011429747798131  0.1964471937873853  0.029052399608225695  1.0000
  H   H17       1.0  0.495491183399281  0.2475306518941309  0.6985691111655257  1.0000
  H   H18       1.0  0.5045095361118968  0.2524707216160067  0.1985691111655257  1.0000
  H   H19       1.0  0.0045091763563079  0.7475300398456994  0.3014308888344743  1.0000
  H   H20       1.0  0.9954905446658627  0.7524681240090061  0.801430123653283  1.0000
  H   H21       1.0  0.5045095361118968  0.7524701095675823  0.3014308888344743  1.0000
  H   H22       1.0  0.495490184910274  0.7475310326249911  0.8014308888344743  1.0000
  H   H23       1.0  0.9954905446658627  0.2524687360574376  0.6985691111655257  1.0000
  H   H24       1.0  0.0045101748453149  0.24753164467341554  0.1985691111655257  1.0000
  H   H25       1.0  0.7364335702486713  0.985822880493437  0.5166947233104793  1.0000
  H   H26       1.0  0.2635671492625065  0.5141772689198447  0.0166947233104793  1.0000
  H   H27       1.0  0.7635665105290883  0.48582249976258407  0.4833052766895207  1.0000
  H   H28       1.0  0.2364342089820894  0.014177880968269102  0.9833052766895207  1.0000
  H   H29       1.0  0.2635661507734994  0.014177880968269102  0.4833052766895207  1.0000
  H   H30       1.0  0.7364345687376783  0.48582249976258407  0.9833052766895207  1.0000
  H   H31       1.0  0.23643321049308236  0.5141772689198447  0.5166947233104793  1.0000
  H   H32       1.0  0.7635655120400813  0.9858218877141525  0.0166947233104793  1.0000
  C   C1        1.0  0.7865247682705884  0.1071129426110744  0.7242501224289908  1.0000
  C   C2        1.0  0.21347595124058927  0.3928864453404941  0.22424935724779968  1.0000
  C   C3        1.0  0.7134753125071711  0.607114316121212  0.2757514079333987  1.0000
  C   C4        1.0  0.2865244085149996  0.8928858332920697  0.7757506427522002  1.0000
  C   C5        1.0  0.21347595124058927  0.8928868260713543  0.2757506427522003  1.0000
  C   C6        1.0  0.7865237697815814  0.607114316121212  0.7757491123898106  1.0000
  C   C7        1.0  0.2865234100259926  0.3928854525612095  0.7242493572477997  1.0000
  C   C8        1.0  0.7134753125071711  0.107113935390359  0.22424935724779968  1.0000
  C   C9        1.0  0.685253020719955  0.1971063992325881  0.6694600881488738  1.0000
  C   C10       1.0  0.3147467003022157  0.3028949742775495  0.1694608533300652  1.0000
  C   C11       1.0  0.8147470600578044  0.6971057871841637  0.330539911851126  1.0000
  C   C12       1.0  0.1852516624753591  0.8028963477876941  0.8305399118511261  1.0000
  C   C13       1.0  0.3147467003022157  0.802894362229118  0.3305391466699348  1.0000
  C   C14       1.0  0.6852520222309479  0.6971038016255946  0.8305399118511261  1.0000
  C   C15       1.0  0.1852516624753591  0.3028969598361186  0.6694600881488738  1.0000
  C   C16       1.0  0.8147480585468116  0.1971034208947344  0.1694608533300652  1.0000
  C   C17       1.0  0.6950222371659577  0.1763533410601426  0.5524524057296745  1.0000
  C   C18       1.0  0.30497648536720584  0.3236460468914331  0.052452405729674495  1.0000
  C   C19       1.0  0.8049768451228019  0.6763537217909956  0.4475475942703255  1.0000
  C   C20       1.0  0.195023874388383  0.8236454348430015  0.9475475942703255  1.0000
  C   C21       1.0  0.30497648536720584  0.823646427622286  0.4475475942703255  1.0000
  C   C22       1.0  0.6950242341439717  0.6763537217909956  0.9475475942703255  1.0000
  C   C23       1.0  0.195023874388383  0.3236460468914331  0.5524524057296745  1.0000
  C   C24       1.0  0.8049768451228019  0.1763533410601426  0.052452405729674495  1.0000
  C   C25       1.0  0.6046729608645832  0.2765148431180435  0.4961281831537717  1.0000
  C   C26       1.0  0.39532676015758733  0.2234865303920941  0.9961281831537718  1.0000
  C   C27       1.0  0.8953271199131763  0.7765152238488966  0.5038718168462282  1.0000
  C   C28       1.0  0.10467459808700849  0.7234859183436697  0.0038710516650369  1.0000
  C   C29       1.0  0.3953257616685803  0.7234859183436697  0.5038718168462282  1.0000
  C   C30       1.0  0.6046739593535903  0.776514231069612  0.0038718168462282  1.0000
  C   C31       1.0  0.10467359959800149  0.2234835520542404  0.49612894833496307  1.0000
  C   C32       1.0  0.8953261214241691  0.2765148431180435  0.9961281831537718  1.0000
  O   O1        1.0  0.909764272467619  0.1192456982523638  0.6986892446131279  1.0000
  O   O2        1.0  0.0902354485545516  0.3807546824784964  0.1986884794319295  1.0000
  O   O3        1.0  0.5902358083101404  0.6192450862039323  0.3013115205680705  1.0000
  O   O4        1.0  0.4097639127120303  0.8807540704300649  0.8013107553868721  1.0000
  O   O5        1.0  0.0902354485545516  0.8807540704300649  0.3013107553868721  1.0000
  O   O6        1.0  0.9097632739786121  0.6192450862039323  0.8013107553868721  1.0000
  O   O7        1.0  0.4097639127120303  0.3807546824784964  0.6986884794319295  1.0000
  O   O8        1.0  0.5902358083101404  0.1192456982523638  0.1986892446131279  1.0000
  O   O9        1.0  0.7465872049624238  0.026517134700831904  0.7912363797747304  1.0000
  O   O10       1.0  0.2534135145487539  0.47348423880931284  0.2912371449559288  1.0000
  O   O11       1.0  0.7534138743043426  0.5265165226524005  0.2087628550440712  1.0000
  O   O12       1.0  0.2465868452068349  0.9734836267608813  0.7087636202252694  1.0000
  O   O13       1.0  0.2534135145487539  0.9734836267608813  0.20876362022526956  1.0000
  O   O14       1.0  0.7465862064734168  0.5265204937695387  0.7087613246816815  1.0000
  O   O15       1.0  0.2465868452068349  0.4734832460300283  0.7912371449559288  1.0000
  O   O16       1.0  0.7534128758153357  0.026516141921540295  0.2912371449559288  1.0000
  O   O17       1.0  0.5539786754823552  0.166612190716279  0.7051687989715985  1.0000
  O   O18       1.0  0.4460210455398154  0.3333881900145741  0.2051687989715987  1.0000
  O   O19       1.0  0.9460204068063971  0.6666115786678475  0.2948312010284013  1.0000
  O   O20       1.0  0.053980312704780396  0.8333875779661497  0.7948312010284013  1.0000
  O   O21       1.0  0.4460210455398154  0.8333885707454343  0.2948312010284013  1.0000
  O   O22       1.0  0.5539806724603693  0.6666115786678475  0.7948319662095997  1.0000
  O   O23       1.0  0.053980312704780396  0.3333881900145741  0.7051680337904  1.0000
  O   O24       1.0  0.9460204068063971  0.1666111979369944  0.2051687989715987  1.0000
  O   O25       1.0  0.6560661885518257  0.0438073787273936  0.5277691907443653  1.0000
  O   O26       1.0  0.34393453095935195  0.4561930020034595  0.027769190744365298  1.0000
  O   O27       1.0  0.8439348907149408  0.5438077594582538  0.47223157443682595  1.0000
  O   O28       1.0  0.1560658287962369  0.956192389955028  0.9722308092556344  1.0000
  O   O29       1.0  0.34393453095935195  0.956192389955028  0.4722308092556347  1.0000
  O   O30       1.0  0.6560661885518257  0.5438077594582538  0.9722308092556344  1.0000
  O   O31       1.0  0.1560658287962369  0.45619200922417497  0.527768425563174  1.0000
  O   O32       1.0  0.8439338922259338  0.0438073787273936  0.027769190744365298  1.0000
  O   O33       1.0  0.632189320923743  0.3999957377999764  0.5065101616062719  1.0000
  O   O34       1.0  0.3678104000984277  0.10000365015159932  0.0065101616062648  1.0000
  O   O35       1.0  0.8678107598540166  0.8999951257515448  0.49348983839373517  1.0000
  O   O36       1.0  0.1321899596571612  0.6000050236617369  0.9934898383937281  1.0000
  O   O37       1.0  0.3678104000984277  0.6000050236617369  0.49348983839373517  1.0000
  O   O38       1.0  0.632189320923743  0.8999951257515448  0.9934898383937281  1.0000
  O   O39       1.0  0.13218796267914706  0.10000464293088379  0.5065124571498529  1.0000
  O   O40       1.0  0.8678107598540166  0.3999957377999764  0.0065101616062648  1.0000
  O   O41       1.0  0.5075958656330143  0.2345798461220525  0.4437737206170453  1.0000
  O   O42       1.0  0.49240385538915626  0.2654205346088077  0.9437729554358469  1.0000
  O   O43       1.0  0.9924042151447452  0.7345802268529056  0.5562270445641531  1.0000
  O   O44       1.0  0.0075965043664326  0.7654209153396607  0.05622704456415309  1.0000
  O   O45       1.0  0.49240385538915626  0.7654199225603762  0.5562270445641531  1.0000
  O   O46       1.0  0.5075968641220213  0.734579234073621  0.05622704456415309  1.0000
  O   O47       1.0  0.0075975028554396  0.2654185490502385  0.4437737206170453  1.0000
  O   O48       1.0  0.9924032166557382  0.2345798461220525  0.9437729554358469  1.0000
