data_image0
_chemical_formula_structural       Co2H8C12N12O8
_chemical_formula_sum              "Co2 H8 C12 N12 O8"
_cell_length_a       6.005115860649753
_cell_length_b       6.004983459421286
_cell_length_c       14.155060808436744
_cell_angle_alpha    102.16763660797717
_cell_angle_beta     102.16650630723751
_cell_angle_gamma    90.03984240076996

_space_group_name_H-M_alt    "P 1"
_space_group_IT_number       1

loop_
  _space_group_symop_operation_xyz
  'x, y, z'

loop_
  _atom_site_type_symbol
  _atom_site_label
  _atom_site_symmetry_multiplicity
  _atom_site_fract_x
  _atom_site_fract_y
  _atom_site_fract_z
  _atom_site_occupancy
  Co  Co1       1.0  0.12498493164397222  0.8750154142713811  0.2500020293460636  1.0000
  Co  Co2       1.0  0.8750050950557052  0.12499435523253062  0.7499976895799776  1.0000
  H   H1        1.0  0.2822438059051535  0.7646836922489657  0.028720170363193614  1.0000
  H   H2        1.0  0.7650724908858421  0.7472252702094694  0.5286857451649922  1.0000
  H   H3        1.0  0.7472354917150809  0.7650669434812941  0.02867755838362741  1.0000
  H   H4        1.0  0.7646917259671042  0.28224885869295957  0.5287292240585728  1.0000
  H   H5        1.0  0.717752720823249  0.2353192635265985  0.9712774008741505  1.0000
  H   H6        1.0  0.2353116640261774  0.7177557697650129  0.4712761812607482  1.0000
  H   H7        1.0  0.2527540530449599  0.23493259644920533  0.9713204884959623  1.0000
  H   H8        1.0  0.23493074056391813  0.25277595048570595  0.47131863220832326  1.0000
  C   C1        1.0  0.6197795379217013  0.8699441700042814  0.23980663530220173  1.0000
  C   C2        1.0  0.8699506384692698  0.6197803713389122  0.739805997254379  1.0000
  C   C3        1.0  0.3802168207995678  0.13005536858098313  0.7601920256764743  1.0000
  C   C4        1.0  0.13005090210833714  0.3802208622625687  0.2601954030110534  1.0000
  C   C5        1.0  0.42846130875518196  0.7955350974962132  0.09044338822952373  1.0000
  C   C6        1.0  0.7955124201605627  0.6622173795170953  0.5903804943649789  1.0000
  C   C7        1.0  0.6622143860114633  0.7954994234694938  0.0903736286615739  1.0000
  C   C8        1.0  0.7955470486070199  0.4284690262833097  0.5904470347892854  1.0000
  C   C9        1.0  0.5715245024735793  0.20445761815378216  0.9095544133958455  1.0000
  C   C10       1.0  0.2044582255018597  0.5715390315986753  0.40955461073036764  1.0000
  C   C11       1.0  0.33778344942571453  0.20449501413399673  0.9096211732876398  1.0000
  C   C12       1.0  0.2044908239073493  0.3377838537480784  0.4096210594252269  1.0000
  N   N1        1.0  0.6713355107008  0.9215679603268117  0.34320284359811387  1.0000
  N   N2        1.0  0.9215624208865948  0.6713239810459015  0.8432028343200741  1.0000
  N   N3        1.0  0.32866937809016156  0.07843158914690214  0.6567937614213123  1.0000
  N   N4        1.0  0.0784420447319931  0.3286670223095385  0.1567972009484464  1.0000
  N   N5        1.0  0.40310886461357137  0.8429220891264961  0.18581433373372389  1.0000
  N   N6        1.0  0.8430737120363644  0.7825949400035412  0.6857189652604916  1.0000
  N   N7        1.0  0.782583634346594  0.8430766046806328  0.18571608916784751  1.0000
  N   N8        1.0  0.8429198434256193  0.4031068504583431  0.685812065461306  1.0000
  N   N9        1.0  0.5968874877986182  0.1570774431737618  0.8141857390365033  1.0000
  N   N10       1.0  0.15708194600815523  0.5968995057861052  0.314188406087915  1.0000
  N   N11       1.0  0.21740931423951787  0.15692293143474254  0.8142829706570609  1.0000
  N   N12       1.0  0.1569262058999641  0.2174079993869071  0.3142824425052808  1.0000
  O   O1        1.0  0.8770864636352088  0.9436794659040757  0.38755552696439105  1.0000
  O   O2        1.0  0.9440494247317733  0.50990079081911  0.8876949669411546  1.0000
  O   O3        1.0  0.5099098836883799  0.9440476658920861  0.38769113657802023  1.0000
  O   O4        1.0  0.9436897532156227  0.8770756266148543  0.8875667601862604  1.0000
  O   O5        1.0  0.12292137227849759  0.05630987532110512  0.6124347717876759  1.0000
  O   O6        1.0  0.05632644043713239  0.12291192891360943  0.1124417925589825  1.0000
  O   O7        1.0  0.4900953316532437  0.0559587085347459  0.6123054066460724  1.0000
  O   O8        1.0  0.055953641865386296  0.4900970158282477  0.11230979427770652  1.0000
