data_image0
_chemical_formula_structural       Al2H22C32N2O12
_chemical_formula_sum              "Al2 H22 C32 N2 O12"
_cell_length_a       6.860938681560991
_cell_length_b       16.989591280747753
_cell_length_c       17.530011314332185
_cell_angle_alpha    81.95238406789558
_cell_angle_beta     82.828166835776
_cell_angle_gamma    82.02406339463765

_space_group_name_H-M_alt    "P 1"
_space_group_IT_number       1

loop_
  _space_group_symop_operation_xyz
  'x, y, z'

loop_
  _atom_site_type_symbol
  _atom_site_label
  _atom_site_symmetry_multiplicity
  _atom_site_fract_x
  _atom_site_fract_y
  _atom_site_fract_z
  _atom_site_occupancy
  Al  Al1       1.0  0.4999656911475582  0.5000740285658553  0.49998825682691733  1.0000
  Al  Al2       1.0  0.9999840096692266  0.5000947213366516  0.5000073044153055  1.0000
  H   H1        1.0  0.7582514268205359  0.5643828860810629  0.41200299423385894  1.0000
  H   H2        1.0  0.24176258005169157  0.43564482400099536  0.5879399206850097  1.0000
  H   H3        1.0  0.14698564685644297  0.2610820599181167  0.4966076016533307  1.0000
  H   H4        1.0  0.2077627168170508  0.11310149916059231  0.4965243996130795  1.0000
  H   H5        1.0  0.5812083358037583  0.10680604354845968  0.4983849095847717  1.0000
  H   H6        1.0  0.41882021101292105  0.8933365639008031  0.5016044684946194  1.0000
  H   H7        1.0  0.7923410047257776  0.8870441798118875  0.5033641163599968  1.0000
  H   H8        1.0  0.8530747304784042  0.7390548769903235  0.5033323462944425  1.0000
  H   H9        1.0  0.6489781167394427  0.4959071434717898  0.2803537882151161  1.0000
  H   H10       1.0  0.7280488097624344  0.4959220287187094  0.13810727283415497  1.0000
  H   H11       1.0  0.033646329390492676  0.49664324777115354  0.2562838701467314  1.0000
  H   H12       1.0  0.9655379642189599  0.5055551236762241  0.743433039999161  1.0000
  H   H13       1.0  0.3518669148010076  0.5010524402702289  0.7200680766888325  1.0000
  H   H14       1.0  0.2732782685629545  0.4998142731251249  0.8624551010156266  1.0000
  H   H15       1.0  0.4862649417722197  0.3184270712449973  0.4967139284737101  1.0000
  H   H16       1.0  0.5138146410298106  0.6816980126213039  0.5032910689749528  1.0000
  H   H17       1.0  0.99323835697912  0.44275841923626297  0.11483028390765068  1.0000
  H   H18       1.0  0.13159948798853804  0.49657269653320646  0.03759226665329151  1.0000
  H   H19       1.0  0.959485592063679  0.5497412855051704  0.10204941973031367  1.0000
  H   H20       1.0  0.03608218676909297  0.4509080543975585  0.9008071456818314  1.0000
  H   H21       1.0  0.8666403594243521  0.5092577822024253  0.9616085480682058  1.0000
  H   H22       1.0  0.010684215498649403  0.5576910162399785  0.8822781161879973  1.0000
  C   C1        1.0  0.29306477706755624  0.4997881848345712  0.36192066149595803  1.0000
  C   C2        1.0  0.19902466910370015  0.6445268119176503  0.5007050532743236  1.0000
  C   C3        1.0  0.7068811930173025  0.5002330106849724  0.6380875600405745  1.0000
  C   C4        1.0  0.801003367993438  0.3556024731938762  0.4992992738917081  1.0000
  C   C5        1.0  0.8307360705625085  0.2684256248818357  0.4975353295716403  1.0000
  C   C6        1.0  0.023951473392344304  0.22692828752324348  0.4969957954143993  1.0000
  C   C7        1.0  0.05890832626729289  0.14500939414912042  0.4970251711534601  1.0000
  C   C8        1.0  0.8967705390242601  0.1018312103256207  0.49796590160404725  1.0000
  C   C9        1.0  0.7041357091773863  0.14125927550225728  0.4978807493972255  1.0000
  C   C10       1.0  0.6686508170446075  0.2245840884866296  0.4974297261037819  1.0000
  C   C11       1.0  0.2958884355786325  0.8589016764986751  0.5020889534289239  1.0000
  C   C12       1.0  0.10327726124707934  0.8983261382941448  0.5019712550660316  1.0000
  C   C13       1.0  0.941166588548903  0.8551507743573481  0.5028929359961795  1.0000
  C   C14       1.0  0.9760798493714304  0.7732278785564546  0.5029521862172359  1.0000
  C   C15       1.0  0.16930457606179775  0.7317246969703887  0.5024326138001243  1.0000
  C   C16       1.0  0.3313896115454469  0.7755755143799734  0.502553965708735  1.0000
  C   C17       1.0  0.33553429844796057  0.49742853169689033  0.27683462357570227  1.0000
  C   C18       1.0  0.5325679162216163  0.49656231195960016  0.24331425170385051  1.0000
  C   C19       1.0  0.5767950743341146  0.49635587903831174  0.16432514746883703  1.0000
  C   C20       1.0  0.4271288974059431  0.497038423908556  0.11603610431697582  1.0000
  C   C21       1.0  0.22820533828252107  0.49667061130254797  0.14936059166976182  1.0000
  C   C22       1.0  0.1859320273990405  0.4968470536460999  0.22945071566026337  1.0000
  C   C23       1.0  0.4777601775451927  0.4983888408442423  0.03504963413202231  1.0000
  C   C24       1.0  0.5228065841186832  0.5002191855410771  0.9651615095878867  1.0000
  C   C25       1.0  0.5732099409227586  0.5018042120261013  0.8841340198117676  1.0000
  C   C26       1.0  0.7714903245601691  0.5040411734716201  0.8505610991244907  1.0000
  C   C27       1.0  0.8137019241621672  0.5040665485983169  0.7704416562691137  1.0000
  C   C28       1.0  0.6645023959304338  0.5022076679065182  0.7232291148539929  1.0000
  C   C29       1.0  0.46802090328671403  0.5013584735107414  0.756965012225713  1.0000
  C   C30       1.0  0.42400554077181596  0.5009612083870892  0.8360317194764094  1.0000
  C   C31       1.0  0.06934214501157497  0.496418223962614  0.09821034650255461  1.0000
  C   C32       1.0  0.9299316531949486  0.5056923053383356  0.9015221881915424  1.0000
  N   N1        1.0  0.9126307148917476  0.017749923852207403  0.4989917919599449  1.0000
  N   N2        1.0  0.08745191267512799  0.9823854788337558  0.5009435111217186  1.0000
  O   O1        1.0  0.4431468591334421  0.5035721195669327  0.3971349410006724  1.0000
  O   O2        1.0  0.05016607105589802  0.6087721191215677  0.49684012503212216  1.0000
  O   O3        1.0  0.8846815054251778  0.5014240001641355  0.6065529746601115  1.0000
  O   O4        1.0  0.6206147789080773  0.39084301941670657  0.4978031008489694  1.0000
  O   O5        1.0  0.5568176558932835  0.49652233827512043  0.6028409649677826  1.0000
  O   O6        1.0  0.9497862373408382  0.3913829449252546  0.503205345786867  1.0000
  O   O7        1.0  0.11521840396961382  0.49877295247272696  0.3934450435015862  1.0000
  O   O8        1.0  0.3794439012190694  0.6092967900955413  0.5021829809942489  1.0000
  O   O9        1.0  0.7484181238323517  0.5375405204406503  0.4646706912026559  1.0000
  O   O10       1.0  0.25153882336361033  0.4625935091782765  0.535311818670408  1.0000
  O   O11       1.0  0.47980702255637914  0.2597589435980082  0.49728454986942694  1.0000
  O   O12       1.0  0.5202376229697805  0.7403748794932953  0.5027240714448311  1.0000
