data_image0
_chemical_formula_structural       Mg6H24C51N15Cl3O18
_chemical_formula_sum              "Mg6 H24 C51 N15 Cl3 O18"
_cell_length_a       6.714879108592401
_cell_length_b       28.545490559005206
_cell_length_c       28.54561466791079
_cell_angle_alpha    119.40113828584467
_cell_angle_beta     94.5104451570389
_cell_angle_gamma    94.46921675555045

_space_group_name_H-M_alt    "P 1"
_space_group_IT_number       1

loop_
  _space_group_symop_operation_xyz
  'x, y, z'

loop_
  _atom_site_type_symbol
  _atom_site_label
  _atom_site_symmetry_multiplicity
  _atom_site_fract_x
  _atom_site_fract_y
  _atom_site_fract_z
  _atom_site_occupancy
  Mg  Mg1       1.0  0.7503032928006305  0.3187863696246751  0.6949969172354713  1.0000
  Mg  Mg2       1.0  0.43144293008784024  0.37612716284969844  0.6811059014483476  1.0000
  Mg  Mg3       1.0  0.05545849528579792  0.3048608940203579  0.6238048148246592  1.0000
  Mg  Mg4       1.0  0.834633020856437  0.6756073326794267  0.37404198805086236  1.0000
  Mg  Mg5       1.0  0.15897065211355255  0.6986938709761575  0.3243123240792228  1.0000
  Mg  Mg6       1.0  0.4606397663561808  0.6258870329254621  0.30124093960845494  1.0000
  H   H1        1.0  0.8767625849976426  0.06576252279002401  0.5609529572315637  1.0000
  H   H2        1.0  0.8115695256070765  0.4947590152392963  0.9341417854656624  1.0000
  H   H3        1.0  0.3157910900628664  0.4394042188807887  0.5051767287373536  1.0000
  H   H4        1.0  0.9450532639843628  0.1584371300805145  0.5973913310363699  1.0000
  H   H5        1.0  0.7865006472324153  0.4387730723955841  0.8413966630733467  1.0000
  H   H6        1.0  0.347783652404857  0.4027918200305082  0.5613140485137933  1.0000
  H   H7        1.0  0.2535100648169362  0.15797763255974223  0.5226193373138628  1.0000
  H   H8        1.0  0.09539318541843757  0.36476383147175534  0.8420974372880536  1.0000
  H   H9        1.0  0.7304492842818249  0.4773474944944241  0.6354530397486258  1.0000
  H   H10       1.0  0.383901886695746  0.0700449040376938  0.4944942493786754  1.0000
  H   H11       1.0  0.31453146429901574  0.4241396523723252  0.9298977050222986  1.0000
  H   H12       1.0  0.8891700823868688  0.5056527032043479  0.5758470380480532  1.0000
  H   H13       1.0  0.12871942596557778  0.9654257800129431  0.4482108944540214  1.0000
  H   H14       1.0  0.164204641486883  0.4824206710114254  0.03463629973278867  1.0000
  H   H15       1.0  0.6804378135270923  0.5523050677361783  0.5174330240784643  1.0000
  H   H16       1.0  0.23213920336135643  0.8325540919497387  0.43181515063301384  1.0000
  H   H17       1.0  0.39988063937258295  0.5991555884545577  0.16733503600642052  1.0000
  H   H18       1.0  0.8011363595505046  0.5684668761835142  0.4009228243073792  1.0000
  H   H19       1.0  0.5405516632731349  0.8486152508969981  0.3713558357517356  1.0000
  H   H20       1.0  0.6924579107022099  0.5227367450136527  0.15147739477921354  1.0000
  H   H21       1.0  0.169304773504699  0.6289269950000503  0.4770084035648096  1.0000
  H   H22       1.0  0.8038891393383097  0.9291983221694196  0.4123938896424376  1.0000
  H   H23       1.0  0.87532969814265  0.482901492381636  0.0708906096168747  1.0000
  H   H24       1.0  0.3910340455024651  0.5878770273555389  0.516695648173588  1.0000
  C   C1        1.0  0.6309558954387454  0.9297177490582129  0.5172887693860061  1.0000
  C   C2        1.0  0.701425293979689  0.587297146231677  0.07013815178958535  1.0000
  C   C3        1.0  0.11360862981338467  0.4828772812616151  0.4127550018041858  1.0000
  C   C4        1.0  0.6360913425889051  0.010164112093676203  0.5210975004018721  1.0000
  C   C5        1.0  0.6264868174477128  0.5105365696326061  0.9897627455317347  1.0000
  C   C6        1.0  0.11479603332949051  0.47924644861038984  0.4894897650787939  1.0000
  C   C7        1.0  0.6686214094028173  0.1082578111587793  0.546522208679356  1.0000
  C   C8        1.0  0.5607093746285089  0.437975263819766  0.8916310253818196  1.0000
  C   C9        1.0  0.12201108404677542  0.45364822508933866  0.5620376463734331  1.0000
  C   C10       1.0  0.7926972147065571  0.15772525183057703  0.5803450743312908  1.0000
  C   C11       1.0  0.6350504077736616  0.4223830950875966  0.842136725504318  1.0000
  C   C12       1.0  0.21232855078003612  0.41976676400847174  0.5776002438542349  1.0000
  C   C13       1.0  0.7228530175215865  0.20791063385379263  0.5959319402348626  1.0000
  C   C14       1.0  0.5148224173136241  0.3878283582327455  0.7919816447730738  1.0000
  C   C15       1.0  0.12669585717978293  0.4040303303794134  0.6120576055677772  1.0000
  C   C16       1.0  0.5189499736082936  0.20713943563924186  0.5762276876877621  1.0000
  C   C17       1.0  0.3116352821238451  0.3690226864242804  0.7927997618284053  1.0000
  C   C18       1.0  0.9422829018732698  0.42365315561608713  0.6309142720546745  1.0000
  C   C19       1.0  0.4055279102540794  0.15709107204850167  0.5383630860102357  1.0000
  C   C20       1.0  0.24841852411521612  0.38119730205085034  0.8428796376760204  1.0000
  C   C21       1.0  0.8667389375580469  0.46162425381711364  0.6188410596787506  1.0000
  C   C22       1.0  0.4761791057251584  0.10810182976463521  0.5226727793110939  1.0000
  C   C23       1.0  0.36847100112478154  0.41431793561874025  0.8918197584096886  1.0000
  C   C24       1.0  0.9532604678464267  0.47744558582392227  0.5856926859275831  1.0000
  C   C25       1.0  0.4129863379584293  0.25500376232959354  0.5974220365956883  1.0000
  C   C26       1.0  0.15792664742482285  0.3424280782979351  0.7449110074626331  1.0000
  C   C27       1.0  0.8151923337255695  0.40234023085688625  0.6574676766955319  1.0000
  C   C28       1.0  0.36310449711227477  0.9461360844868594  0.47859741408147716  1.0000
  C   C29       1.0  0.4174446448014422  0.5321766477187212  0.05382077934224573  1.0000
  C   C30       1.0  0.8843893202468394  0.5216800686167815  0.46777722720709386  1.0000
  C   C31       1.0  0.03527661388620381  0.8862171723988228  0.4259961265479575  1.0000
  C   C32       1.0  0.14947996310853282  0.5395967574183301  0.11376006649760469  1.0000
  C   C33       1.0  0.6093517676498053  0.5742658230161555  0.4602390868204864  1.0000
  C   C34       1.0  0.08180391691838192  0.836499483227648  0.41843876077804504  1.0000
  C   C35       1.0  0.24554803308010517  0.5819095022172576  0.16342263474938784  1.0000
  C   C36       1.0  0.6638257842050096  0.5817714646768409  0.4180761909674331  1.0000
  C   C37       1.0  0.9358541353482722  0.7901447975375648  0.393114981441954  1.0000
  C   C38       1.0  0.1459054204227641  0.6030703422323925  0.2097785321025469  1.0000
  C   C39       1.0  0.5432359872478402  0.6069861138522584  0.3968839645976842  1.0000
  C   C40       1.0  0.7341425071394025  0.7951942406398728  0.377527494269337  1.0000
  C   C41       1.0  0.9391521810287173  0.5824625321577274  0.20474937295087858  1.0000
  C   C42       1.0  0.3570393734889308  0.6226230842588977  0.4174667130916489  1.0000
  C   C43       1.0  0.6937529426863236  0.845781049419557  0.38442610123207277  1.0000
  C   C44       1.0  0.8483785542956781  0.5386488543943955  0.15423572888921191  1.0000
  C   C45       1.0  0.30948421273615884  0.615800513407912  0.4611618323318679  1.0000
  C   C46       1.0  0.8398570045579351  0.8905013441490869  0.40736950688007306  1.0000
  C   C47       1.0  0.9498733383380726  0.5167004944036436  0.10951554439113653  1.0000
  C   C48       1.0  0.4323665771141663  0.5928568770635466  0.48302385546920573  1.0000
  C   C49       1.0  0.5661546601372862  0.7506522108250168  0.3550528591185084  1.0000
  C   C50       1.0  0.8155832824002118  0.6046138464879932  0.24927811251957616  1.0000
  C   C51       1.0  0.21143553916950705  0.6450385127750734  0.3953267650908287  1.0000
  N   N1        1.0  0.73705576464846  0.9776773468737759  0.5341314138368672  1.0000
  N   N2        1.0  0.7597806399813649  0.5560865318931791  0.022214958789433567  1.0000
  N   N3        1.0  0.202885536172424  0.4661501832635793  0.4439835862625614  1.0000
  N   N4        1.0  0.7406227456475918  0.06073995914354671  0.5395598325697009  1.0000
  N   N5        1.0  0.6804167175865388  0.4784194374638632  0.9391630999372963  1.0000
  N   N6        1.0  0.2009836640809796  0.460766720745177  0.5215918309651784  1.0000
  N   N7        1.0  0.45273586244367453  0.9962777747730416  0.4928881132298385  1.0000
  N   N8        1.0  0.45715759698273933  0.4962449916273998  0.0036995065521807707  1.0000
  N   N9        1.0  0.9595731639655438  0.5074518238502675  0.5037159603871898  1.0000
  N   N10       1.0  0.174635439926739  0.9334395878035552  0.45047287514285017  1.0000
  N   N11       1.0  0.24186473372333236  0.5167393404523111  0.06657194619489099  1.0000
  N   N12       1.0  0.7241551261152779  0.5498782523588944  0.48312761261009024  1.0000
  N   N13       1.0  0.4451663646543907  0.9108746650396714  0.490241492266712  1.0000
  N   N14       1.0  0.5344345001811206  0.5791398640862155  0.08899632609725211  1.0000
  N   N15       1.0  0.9548935534386943  0.5099338630072198  0.420864875163879  1.0000
  Cl  Cl1       1.0  0.7471088290391562  0.8860589976561003  0.5325397010349632  1.0000
  Cl  Cl2       1.0  0.8609920087429259  0.6462483556824309  0.11370622982665403  1.0000
  Cl  Cl3       1.0  0.21480179508262856  0.4674679067995342  0.35386522161198997  1.0000
  O   O1        1.0  0.23205696182410662  0.25177794405232135  0.5777751660139572  1.0000
  O   O2        1.0  0.9802773304861886  0.32596476360554033  0.7480740047321958  1.0000
  O   O3        1.0  0.6540164844330789  0.4220114176253631  0.6739543671592898  1.0000
  O   O4        1.0  0.5032160274991072  0.2998832154125851  0.6388178713474345  1.0000
  O   O5        1.0  0.20339646432357478  0.339043187855509  0.700076123485637  1.0000
  O   O6        1.0  0.864072936001037  0.36090003934332776  0.6608638671874374  1.0000
  O   O7        1.0  0.8450003095808827  0.25407933263070254  0.6299698996854914  1.0000
  O   O8        1.0  0.5906424156343775  0.37562826896149903  0.7457735379282012  1.0000
  O   O9        1.0  0.21479586147691523  0.36997819391394426  0.6241664360027741  1.0000
  O   O10       1.0  0.3898440954303126  0.7570710151886715  0.3411676536449518  1.0000
  O   O11       1.0  0.6329705715999339  0.5842691037568174  0.2428567775113421  1.0000
  O   O12       1.0  0.04891452599317601  0.6588712212191156  0.41557510332293635  1.0000
  O   O13       1.0  0.5987688210163498  0.7044086408909466  0.350541186776958  1.0000
  O   O14       1.0  0.894143269152039  0.64642653025318  0.2954944925699365  1.0000
  O   O15       1.0  0.2484339006540709  0.6494873810172807  0.3535650440619733  1.0000
  O   O16       1.0  0.996460157372816  0.7431549180675533  0.38436018809093747  1.0000
  O   O17       1.0  0.2533558525276903  0.6413711128516085  0.25676355575456  1.0000
  O   O18       1.0  0.6124770839471267  0.61559823790018  0.3585601121498171  1.0000
