data_image0
_chemical_formula_structural       K4Fe2H40C48S8
_chemical_formula_sum              "K4 Fe2 H40 C48 S8"
_cell_length_a       12.041813775903911
_cell_length_b       12.0062
_cell_length_c       12.053050978402002
_cell_angle_alpha    63.300504408166816
_cell_angle_beta     84.25275411035582
_cell_angle_gamma    116.72626694430973

_space_group_name_H-M_alt    "P 1"
_space_group_IT_number       1

loop_
  _space_group_symop_operation_xyz
  'x, y, z'

loop_
  _atom_site_type_symbol
  _atom_site_label
  _atom_site_symmetry_multiplicity
  _atom_site_fract_x
  _atom_site_fract_y
  _atom_site_fract_z
  _atom_site_occupancy
  K   K1        1.0  0.2044173953265158  0.32935919097482724  0.6250181778328637  1.0000
  K   K2        1.0  0.045460691144128894  0.6702846312592  0.12506036663162942  1.0000
  K   K3        1.0  0.6250031296795555  0.8293481675572207  0.04550469379977788  1.0000
  K   K4        1.0  0.1250892326927158  0.1703954070693499  0.20441528453797989  1.0000
  Fe  Fe1       1.0  0.24996950614036  0.5001074404673744  0.24993152287395756  1.0000
  Fe  Fe2       1.0  5.1235199514100004e-05  5.32295214839e-05  8.64880982334e-05  1.0000
  H   H1        1.0  0.8919214407410863  0.217804081261974  0.26769538981003643  1.0000
  H   H2        1.0  0.5140638535581559  0.7819923670755099  0.32641443141965  1.0000
  H   H3        1.0  0.2681218359441999  0.1600408617719324  0.5137970351552923  1.0000
  H   H4        1.0  0.3263390871552403  0.840872566156861  0.8915461273021634  1.0000
  H   H5        1.0  0.3587569038822309  0.3413760649163109  0.9232205592302377  1.0000
  H   H6        1.0  0.7358921752132019  0.6594981627169431  0.9822145813990347  1.0000
  H   H7        1.0  0.9825956885375646  0.7178922913300879  0.3583288010505399  1.0000
  H   H8        1.0  0.9233838716889268  0.2818246511685202  0.735999281574017  1.0000
  H   H9        1.0  0.7050204559773903  0.24777876921145028  0.23525685318451658  1.0000
  H   H10       1.0  0.516875761860824  0.7521785863580703  0.5428973197624316  1.0000
  H   H11       1.0  0.2353192529149837  0.9398179566887207  0.5166806305836502  1.0000
  H   H12       1.0  0.5428931970957436  0.06046043673534739  0.7046799375357152  1.0000
  H   H13       1.0  0.5455925888818385  0.5608792772428045  0.7066704944278541  1.0000
  H   H14       1.0  0.73320383415642  0.43938882041107513  0.014890356663251218  1.0000
  H   H15       1.0  0.014870263199753698  0.7478781844384199  0.5451273921777541  1.0000
  H   H16       1.0  0.7066197978915909  0.2518879023197797  0.7334641032764253  1.0000
  H   H17       1.0  0.6312779347022328  0.35373458284200854  0.33940788816784834  1.0000
  H   H18       1.0  0.3071831502080045  0.6464575062774214  0.7220581906782755  1.0000
  H   H19       1.0  0.33907655959880856  0.9697476945262195  0.30720317068840336  1.0000
  H   H20       1.0  0.7221219618853424  0.029501120788630278  0.6313682710979266  1.0000
  H   H21       1.0  0.6187353569391689  0.529538179102758  0.527766997771664  1.0000
  H   H22       1.0  0.9429848516436935  0.46973550321300167  0.9107813924828676  1.0000
  H   H23       1.0  0.9104484907295927  0.853732873755433  0.6187472350542365  1.0000
  H   H24       1.0  0.5275125911243705  0.1463503502184905  0.9430655786062374  1.0000
  H   H25       1.0  0.744949754797652  0.4241143479177935  0.4819028700163628  1.0000
  H   H26       1.0  0.0944184358079312  0.5761343567411359  0.6786179779559589  1.0000
  H   H27       1.0  0.4814792712798095  0.22636521694156636  0.09464332572521532  1.0000
  H   H28       1.0  0.6786815449808259  0.7726330746938714  0.7453425186059236  1.0000
  H   H29       1.0  0.5046837936003001  0.27244328254571576  0.5715188365177324  1.0000
  H   H30       1.0  0.1555812086850779  0.7266071121370531  0.7681531285184988  1.0000
  H   H31       1.0  0.7677664969806557  0.9239334185241644  0.5051169387413167  1.0000
  H   H32       1.0  0.5713468158369039  0.07636651510841826  0.15544511118319798  1.0000
  H   H33       1.0  0.9265795416820596  0.38554666491666  0.5208804777512341  1.0000
  H   H34       1.0  0.0936619631563076  0.6144826298634173  0.45884171249177536  1.0000
  H   H35       1.0  0.5208208722233039  0.44786624953518833  0.09381988358325084  1.0000
  H   H36       1.0  0.4588232669776247  0.5517547831577544  0.9269736499504688  1.0000
  H   H37       1.0  0.3229897115635652  0.0517793577443442  0.7913077734271283  1.0000
  H   H38       1.0  0.1561357543739277  0.9478594959867971  0.7291679057746095  1.0000
  H   H39       1.0  0.7291602718419341  0.8855228130337665  0.3234632226795639  1.0000
  H   H40       1.0  0.7913618132739088  0.11468953602169302  0.15591001250216865  1.0000
  C   C1        1.0  0.9229398332931495  0.2986380603451407  0.3974790770418153  1.0000
  C   C2        1.0  0.3036991566411372  0.7013388143900982  0.3759351247089526  1.0000
  C   C3        1.0  0.3977087154647307  0.32087423894068223  0.3036540850435472  1.0000
  C   C4        1.0  0.3759397833423463  0.6794800931621408  0.9229694512926585  1.0000
  C   C5        1.0  0.3272291731703021  0.17979338023027938  0.8739024119998787  1.0000
  C   C6        1.0  0.9461152218727449  0.8205419209164758  0.8524774013741662  1.0000
  C   C7        1.0  0.8527345500078809  0.7986990950664178  0.3271997146939398  1.0000
  C   C8        1.0  0.874132780392614  0.20143448014011506  0.9460674501481136  1.0000
  C   C9        1.0  0.8580188078399758  0.26006752269304184  0.3171796301745077  1.0000
  C   C10       1.0  0.422507556640646  0.7398220637208726  0.4023727639744479  1.0000
  C   C11       1.0  0.3174151209342284  0.17540620501611667  0.4223386508281664  1.0000
  C   C12       1.0  0.4023449987147529  0.8250997755392433  0.8578238903154087  1.0000
  C   C13       1.0  0.3924465590912405  0.3255463604755773  0.8473010361984024  1.0000
  C   C14       1.0  0.8274233568368317  0.6749420588171162  0.9328345365820425  1.0000
  C   C15       1.0  0.9330562736675247  0.7601670027474154  0.3921587266539461  1.0000
  C   C16       1.0  0.8474412506699878  0.23969729946597335  0.8275110848707997  1.0000
  C   C17       1.0  0.7531363359903835  0.27803017265946295  0.2981476309935402  1.0000
  C   C18       1.0  0.4237663351698515  0.721946602402049  0.5249865124761826  1.0000
  C   C19       1.0  0.2981647504820089  0.05098089319901076  0.42363563208538585  1.0000
  C   C20       1.0  0.52497695105437  0.9491318015080736  0.7529698844415975  1.0000
  C   C21       1.0  0.49725368505919926  0.4494614819822117  0.7246727966560229  1.0000
  C   C22       1.0  0.8262961824475497  0.5506391458243415  0.9519869744771227  1.0000
  C   C23       1.0  0.9519469931113989  0.778118884390025  0.4969971273457646  1.0000
  C   C24       1.0  0.724647555837791  0.22173248109590551  0.8264390235083355  1.0000
  C   C25       1.0  0.7111234723899429  0.3368744830407522  0.35702616146537025  1.0000
  C   C26       1.0  0.3062890457459204  0.6632258331226523  0.6255390891789786  1.0000
  C   C27       1.0  0.3568019294067071  0.067591182705776  0.3062843542952223  1.0000
  C   C28       1.0  0.6255606892036667  0.9319585080232144  0.7112017894158029  1.0000
  C   C29       1.0  0.5389330175569356  0.4320600435524896  0.6243032204424565  1.0000
  C   C30       1.0  0.9438026056123832  0.567498131822994  0.8931176772016797  1.0000
  C   C31       1.0  0.8928798403554978  0.8368658785968748  0.5389577882268881  1.0000
  C   C32       1.0  0.6241602604169856  0.16318130867750089  0.9438474246619607  1.0000
  C   C33       1.0  0.7746249814330781  0.3757108921568386  0.43698592778073214  1.0000
  C   C34       1.0  0.1875338901694334  0.6244042598102196  0.6008021634236015  1.0000
  C   C35       1.0  0.4367378821523715  0.21130618125231138  0.18766450329793122  1.0000
  C   C36       1.0  0.6008110740037509  0.7880811922244603  0.7748861522060364  1.0000
  C   C37       1.0  0.4752024570336175  0.2880413659017904  0.6492555711201149  1.0000
  C   C38       1.0  0.0624175329593299  0.7113677968148407  0.8130411094763731  1.0000
  C   C39       1.0  0.8128243388109695  0.8755772132433888  0.4754833326744786  1.0000
  C   C40       1.0  0.6491459593793678  0.12458615226100987  0.06235616779081004  1.0000
  C   C41       1.0  0.8779563327327224  0.3553974512427303  0.45822155465652503  1.0000
  C   C42       1.0  0.1864087250036661  0.6445939782151201  0.4774069932105078  1.0000
  C   C43       1.0  0.45821246303049173  0.3364007998523634  0.18651330263296023  1.0000
  C   C44       1.0  0.47738045531878726  0.6633800413168912  0.8782146367975017  1.0000
  C   C45       1.0  0.3718540273341446  0.16347750943840822  0.7726572250654868  1.0000
  C   C46       1.0  0.0634040617028901  0.8363069709674489  0.7917631793723459  1.0000
  C   C47       1.0  0.7918088655049473  0.8553626454279877  0.3721313052220268  1.0000
  C   C48       1.0  0.7726961268631881  0.14477743578889588  0.0633036489560439  1.0000
  S   S1        1.0  0.0573281698077324  0.27891025151695464  0.42024221573258547  1.0000
  S   S2        1.0  0.3005346296124145  0.7214631160865537  0.22194320218098088  1.0000
  S   S3        1.0  0.42058372512953207  0.4784819081018766  0.3005485010481408  1.0000
  S   S4        1.0  0.22202422094730417  0.5222739436906353  0.05728615472424541  1.0000
  S   S5        1.0  0.192995964282197  0.0226624519455427  0.027836180648016306  1.0000
  S   S6        1.0  0.9490677758211347  0.9780100585779367  0.8298437248242365  1.0000
  S   S7        1.0  0.8300313289532043  0.7789218771662687  0.19290339369353393  1.0000
  S   S8        1.0  0.028346125283363197  0.22164622542423734  0.9490415343263051  1.0000
