data_image0
_chemical_formula_structural       Cd2H16C32N8
_chemical_formula_sum              "Cd2 H16 C32 N8"
_cell_length_a       7.351966589828397
_cell_length_b       8.270175459677146
_cell_length_c       12.475078080606806
_cell_angle_alpha    103.20494450742702
_cell_angle_beta     107.11918450136643
_cell_angle_gamma    90.03585634426017

_space_group_name_H-M_alt    "P 1"
_space_group_IT_number       1

loop_
  _space_group_symop_operation_xyz
  'x, y, z'

loop_
  _atom_site_type_symbol
  _atom_site_label
  _atom_site_symmetry_multiplicity
  _atom_site_fract_x
  _atom_site_fract_y
  _atom_site_fract_z
  _atom_site_occupancy
  Cd  Cd1       1.0  8.01270385860135e-06  4.32840013789406e-06  0.5000017312691087  1.0000
  Cd  Cd2       1.0  0.4999979642487276  0.5000008296174343  0.49999986584978745  1.0000
  H   H1        1.0  0.8828347460998671  0.7677646568506518  0.22299918421915527  1.0000
  H   H2        1.0  0.6593311862668472  0.7324092215274189  0.7767291054130329  1.0000
  H   H3        1.0  0.11716571487912829  0.23222459131950754  0.7769968741521254  1.0000
  H   H4        1.0  0.34066576546288024  0.26758599356329416  0.2232777640659337  1.0000
  H   H5        1.0  0.598927253371457  0.6002219896506773  0.07687739517287889  1.0000
  H   H6        1.0  0.5213737979549649  0.9007198557847714  0.9224582276763871  1.0000
  H   H7        1.0  0.4010794536637903  0.39977346055469093  0.9231207146979516  1.0000
  H   H8        1.0  0.4786237597740596  0.09928430906490598  0.07754138209174503  1.0000
  H   H9        1.0  0.25073593901272057  0.8833306318739176  0.2694745106832316  1.0000
  H   H10       1.0  0.9807863244604036  0.6165898245619345  0.7305454841864079  1.0000
  H   H11       1.0  0.7492717801017719  0.11667321528499029  0.7305371631643567  1.0000
  H   H12       1.0  0.0192042156608636  0.3834156361666246  0.2694523659753187  1.0000
  H   H13       1.0  0.5491490622096009  0.037585580881305695  0.4059763348187461  1.0000
  H   H14       1.0  0.1427730414314112  0.4619047852345659  0.5942274090175985  1.0000
  H   H15       1.0  0.45086352451569667  0.9624109845478372  0.5940269452150275  1.0000
  H   H16       1.0  0.857219850832145  0.5380943530220321  0.4057730094908153  1.0000
  C   C1        1.0  0.7395238984640998  0.7903128341510096  0.22925820597959765  1.0000
  C   C2        1.0  0.5097027706158669  0.7099345263860855  0.7704956254925721  1.0000
  C   C3        1.0  0.2604814658280645  0.20968390960182856  0.7707382875084224  1.0000
  C   C4        1.0  0.4902890323707751  0.2900683531458411  0.22950522140110516  1.0000
  C   C5        1.0  0.5809683814681463  0.6964396538670811  0.1480334524407922  1.0000
  C   C6        1.0  0.43234447537250986  0.8041360517982239  0.8515145288808416  1.0000
  C   C7        1.0  0.4190304721485774  0.30356328122037013  0.8519653709769631  1.0000
  C   C8        1.0  0.5676449754718363  0.19587315020566354  0.1484837496661484  1.0000
  C   C9        1.0  0.39938586095851764  0.7245161535929725  0.16243687313211555  1.0000
  C   C10       1.0  0.2364275395649358  0.7758229841207651  0.8372459238011133  1.0000
  C   C11       1.0  0.6006099408058602  0.27548428177796314  0.8375618361834185  1.0000
  C   C12       1.0  0.7635660367902305  0.22418499758606458  0.16275123955177415  1.0000
  C   C13       1.0  0.3870528740557404  0.8537338552072242  0.25520720325527446  1.0000
  C   C14       1.0  0.13130257570288958  0.6463168647054687  0.7446738611932633  1.0000
  C   C15       1.0  0.6129557000587766  0.14626656960256668  0.7447920285411274  1.0000
  C   C16       1.0  0.8686906829268679  0.3536873603625849  0.2553234386517503  1.0000
  C   C17       1.0  0.5540787210198701  0.9399721744042893  0.3316202883060839  1.0000
  C   C18       1.0  0.2219758012047706  0.5598321022341395  0.6683745265776367  1.0000
  C   C19       1.0  0.44593268271775344  0.060028259870662695  0.6683786146465922  1.0000
  C   C20       1.0  0.7780174244026625  0.44017077139949373  0.3316265563497113  1.0000
  C   C21       1.0  0.23339983356530775  0.6253790923582015  0.08998829393450339  1.0000
  C   C22       1.0  0.1431783125071249  0.8748337363236299  0.9098469689419134  1.0000
  C   C23       1.0  0.7666325475833347  0.3746309864668546  0.9100244952949765  1.0000
  C   C24       1.0  0.8568121477364343  0.1251704367557593  0.09015226156895308  1.0000
  C   C25       1.0  0.0826464615269629  0.5440457349194076  0.03230166961914447  1.0000
  C   C26       1.0  0.05035506363847728  0.9560344068431589  0.9677022626349442  1.0000
  C   C27       1.0  0.9173332563179033  0.4559335497744357  0.9676925161412417  1.0000
  C   C28       1.0  0.9496397813788633  0.043951970695616197  0.032307625965884816  1.0000
  C   C29       1.0  0.8535869920557602  0.22767560159130074  0.5564074745229208  1.0000
  C   C30       1.0  0.2970137897936809  0.2727062581086912  0.443675353952152  1.0000
  C   C31       1.0  0.1464233692603258  0.772328510173736  0.4435942595482062  1.0000
  C   C32       1.0  0.7029796910653232  0.7273004572107098  0.5563223888388152  1.0000
  N   N1        1.0  0.7278158840458244  0.9077979641587176  0.320796653057947  1.0000
  N   N2        1.0  0.4065502555513945  0.5920374525246146  0.6791687323071542  1.0000
  N   N3        1.0  0.2721883110917105  0.09220123322027969  0.6792016491644832  1.0000
  N   N4        1.0  0.5934414363206315  0.40796418188163125  0.3208318931135495  1.0000
  N   N5        1.0  0.7709742759665943  0.3428452109163657  0.5847314705017866  1.0000
  N   N6        1.0  0.1865115822326686  0.15713606412604258  0.41545454000915794  1.0000
  N   N7        1.0  0.22902721628091885  0.6571552008613964  0.4152681829484096  1.0000
  N   N8        1.0  0.813491047932544  0.8428619365490563  0.5845417028845079  1.0000
