data_image0
_chemical_formula_structural       Co6H36C24O20
_chemical_formula_sum              "Co6 H36 C24 O20"
_cell_length_a       5.675655032640267
_cell_length_b       12.201236071551435
_cell_length_c       12.078206964552704
_cell_angle_alpha    73.22640541294845
_cell_angle_beta     81.34290025950575
_cell_angle_gamma    84.11263263109798

_space_group_name_H-M_alt    "P 1"
_space_group_IT_number       1

loop_
  _space_group_symop_operation_xyz
  'x, y, z'

loop_
  _atom_site_type_symbol
  _atom_site_label
  _atom_site_symmetry_multiplicity
  _atom_site_fract_x
  _atom_site_fract_y
  _atom_site_fract_z
  _atom_site_occupancy
  Co  Co1       1.0  0.7706335184185987  0.755774874925045  0.9479115551562246  1.0000
  Co  Co2       1.0  0.22975868622830117  0.24402880731297932  0.05200016990194459  1.0000
  Co  Co3       1.0  0.49996116052666667  0.4999055994881729  6.836501687242417e-05  1.0000
  Co  Co4       1.0  0.22954937100231376  0.7463746439996799  0.05156028750680256  1.0000
  Co  Co5       1.0  0.7708665214594036  0.25353299534825174  0.9484565611658909  1.0000
  Co  Co6       1.0  0.0002305915919223611  0.9999090711465184  0.9999697861840888  1.0000
  H   H1        1.0  0.21172607694006731  0.7251891633339582  0.6481444674559073  1.0000
  H   H2        1.0  0.789172948589801  0.27451419881496264  0.3517801327164563  1.0000
  H   H3        1.0  0.9224501005966134  0.73767295302725  0.724367336423839  1.0000
  H   H4        1.0  0.07846352307367971  0.2625305923836621  0.2753854536361473  1.0000
  H   H5        1.0  0.3130529834311987  0.5668329364162261  0.5567583341616  1.0000
  H   H6        1.0  0.6857725655048554  0.43293298931316576  0.4428574997309127  1.0000
  H   H7        1.0  0.1832722093287771  0.43282756481992374  0.6225432465991005  1.0000
  H   H8        1.0  0.8155362759189944  0.5670114794191932  0.3775197827109693  1.0000
  H   H9        1.0  0.3804701549001237  0.4829635985230779  0.6957645895707785  1.0000
  H   H10       1.0  0.6191465621168817  0.5169661369626084  0.3037914793083871  1.0000
  H   H11       1.0  0.6690348698959523  0.6425854745511826  0.6521905561025322  1.0000
  H   H12       1.0  0.33057921933351503  0.35767113101020004  0.3482754207502409  1.0000
  H   H13       1.0  0.7794849011701074  0.5271948249366432  0.5920673795942123  1.0000
  H   H14       1.0  0.2192189877072437  0.47304530893460855  0.40828540967694954  1.0000
  H   H15       1.0  0.898762497253017  0.6640578913954513  0.5309705966587543  1.0000
  H   H16       1.0  0.10024672876122759  0.33608360885305905  0.469234106683146  1.0000
  H   H17       1.0  0.9723063828403513  0.09538029750039098  0.579200445672697  1.0000
  H   H18       1.0  0.02769138094696907  0.9048623017573046  0.4206380692943272  1.0000
  H   H19       1.0  0.8935307066426363  0.956399054949138  0.6672248569518827  1.0000
  H   H20       1.0  0.10638145921223699  0.04373722597407689  0.33229831457209974  1.0000
  H   H21       1.0  0.7540192411708944  0.024015773615794003  0.5399120459359495  1.0000
  H   H22       1.0  0.24574157198971852  0.9765121191241591  0.4597429700988371  1.0000
  H   H23       1.0  0.392545030299722  0.2521087734598524  0.6536323335989211  1.0000
  H   H24       1.0  0.6073752808645452  0.747878742714171  0.3468594033570512  1.0000
  H   H25       1.0  0.6840758017561583  0.26840332265067707  0.5769150221056237  1.0000
  H   H26       1.0  0.3155516441609052  0.7317938925872198  0.4232689848189395  1.0000
  H   H27       1.0  0.47414659423856886  0.19736511144997587  0.5304942971447417  1.0000
  H   H28       1.0  0.5251843707660626  0.8028906656118834  0.4698014706873863  1.0000
  H   H29       1.0  0.24724077784151888  0.0690930751021313  0.7516748489744245  1.0000
  H   H30       1.0  0.7530057840609886  0.9308277049123678  0.24845698638084457  1.0000
  H   H31       1.0  0.3721669574464529  0.9883550112560541  0.6543263292229896  1.0000
  H   H32       1.0  0.627945803905469  0.0116760045691322  0.3456872903569206  1.0000
  H   H33       1.0  0.7761043600731271  0.8222074259452654  0.12061392431909472  1.0000
  H   H34       1.0  0.22423376184107013  0.17764164213144798  0.8793001917265145  1.0000
  H   H35       1.0  0.5831780456837948  0.6183646058426859  0.12543871398371917  1.0000
  H   H36       1.0  0.4171235830183094  0.38161231923309913  0.8745977889055825  1.0000
  C   C1        1.0  0.022517594565975723  0.569131184596948  0.6957434140436548  1.0000
  C   C2        1.0  0.9772335414086086  0.4308716669588861  0.3042574396726678  1.0000
  C   C3        1.0  0.1933434307842035  0.6563797346612006  0.8316832320722939  1.0000
  C   C4        1.0  0.8069651607688115  0.3434768196072752  0.16827553009237312  1.0000
  C   C5        1.0  0.08286170359606612  0.679939454454157  0.720517312247459  1.0000
  C   C6        1.0  0.9176447133754239  0.31999883768449416  0.2793634759003467  1.0000
  C   C7        1.0  0.23818987313529763  0.5091737375447637  0.6396955583099242  1.0000
  C   C8        1.0  0.7610252249829089  0.4907189180751246  0.3600882613346387  1.0000
  C   C9        1.0  0.8295673782711362  0.6026680575365688  0.6129235523148537  1.0000
  C   C10       1.0  0.16967292226564007  0.39750476172902444  0.387350246532435  1.0000
  C   C11       1.0  0.7181518771683456  0.1101141259746967  0.7930593489237481  1.0000
  C   C12       1.0  0.28231457650683467  0.8898023833070283  0.20689591497936272  1.0000
  C   C13       1.0  0.6255866650383268  0.09434681893605298  0.6847507699756434  1.0000
  C   C14       1.0  0.3745160436803944  0.9057066073367538  0.31523477694008756  1.0000
  C   C15       1.0  0.8241507502308425  0.03863259847042849  0.614175253408888  1.0000
  C   C16       1.0  0.1757861845699225  0.9616259623341393  0.385556171373139  1.0000
  C   C17       1.0  0.5382720172012442  0.2099634101963446  0.6072208115144235  1.0000
  C   C18       1.0  0.46146589713985975  0.7901658078240745  0.3930278901148227  1.0000
  C   C19       1.0  0.4071076897153531  0.018450640434792796  0.7276271725518485  1.0000
  C   C20       1.0  0.5931352590506478  0.9815117218406896  0.2724110248011939  1.0000
  C   C21       1.0  0.4427037116009132  0.915020632315603  0.8292412074217947  1.0000
  C   C22       1.0  0.557727191398712  0.0849085996855337  0.1707394107487872  1.0000
  C   C23       1.0  0.9128587879423407  0.4863246217475987  0.8100287486219104  1.0000
  C   C24       1.0  0.08714878306579983  0.5137333331209035  0.19007978222582275  1.0000
  O   O1        1.0  0.8670511522710456  0.032944050306056696  0.8424161133040898  1.0000
  O   O2        1.0  0.1332996683131213  0.9669032012671652  0.15751832621864978  1.0000
  O   O3        1.0  0.3632627926197785  0.5820629850239811  0.8485785228127299  1.0000
  O   O4        1.0  0.6366311641463085  0.41758480979433443  0.15151491325063657  1.0000
  O   O5        1.0  0.11017978079259191  0.7158450842384312  0.9046828548212958  1.0000
  O   O6        1.0  0.8903521297079849  0.284102574104395  0.09520835087333523  1.0000
  O   O7        1.0  0.6044868989029338  0.8380436091731909  0.8134872851812603  1.0000
  O   O8        1.0  0.3959504442381458  0.1619048405733139  0.18641864701147878  1.0000
  O   O9        1.0  0.8179699934969024  0.5288995930501059  0.8919300162264961  1.0000
  O   O10       1.0  0.18182780154605638  0.4712771800079381  0.10805823154666434  1.0000
  O   O11       1.0  0.9213485428195511  0.3805422281211008  0.8140140909216242  1.0000
  O   O12       1.0  0.07898729082123168  0.6194988182337015  0.18621438981666918  1.0000
  O   O13       1.0  0.6358018114493547  0.19800396777877438  0.8263954041968447  1.0000
  O   O14       1.0  0.36484031701081676  0.8018906183597068  0.17365807075492515  1.0000
  O   O15       1.0  0.31609416254315914  0.90808528071598  0.9278577330716543  1.0000
  O   O16       1.0  0.6843562856878265  0.09180360249401792  0.07214135762466609  1.0000
  O   O17       1.0  0.8839609906143409  0.8382068801501316  0.04750032138994692  1.0000
  O   O18       1.0  0.1164121345227471  0.1616198131841315  0.9524343005822759  1.0000
  O   O19       1.0  0.5449782795599631  0.6468309059202186  0.045396163815091414  1.0000
  O   O20       1.0  0.4553163499188885  0.353050092239286  0.9546410235829086  1.0000
