data_image0
_chemical_formula_structural       Ho4P4H44C36S4N4O36
_chemical_formula_sum              "Ho4 P4 H44 C36 S4 N4 O36"
_cell_length_a       6.701265500008243
_cell_length_b       13.325340416526013
_cell_length_c       14.943678753439613
_cell_angle_alpha    90.53327392548299
_cell_angle_beta     89.99992961300622
_cell_angle_gamma    89.99983598139289

_space_group_name_H-M_alt    "P 1"
_space_group_IT_number       1

loop_
  _space_group_symop_operation_xyz
  'x, y, z'

loop_
  _atom_site_type_symbol
  _atom_site_label
  _atom_site_symmetry_multiplicity
  _atom_site_fract_x
  _atom_site_fract_y
  _atom_site_fract_z
  _atom_site_occupancy
  Ho  Ho1       1.0  0.8753621124485987  0.5472522250405945  0.6190603550555734  1.0000
  Ho  Ho2       1.0  0.37535944738378646  0.4527478113960157  0.8809383758083837  1.0000
  Ho  Ho3       1.0  0.12463883200182119  0.45274744548333257  0.3809389075492362  1.0000
  Ho  Ho4       1.0  0.6246370202950826  0.5472533594925153  0.1190615695039199  1.0000
  P   P1        1.0  0.8702245036846534  0.378143015690739  0.8033648605306851  1.0000
  P   P2        1.0  0.37022735410381097  0.621857779888046  0.6966325416416054  1.0000
  P   P3        1.0  0.1297704717390715  0.6218574035108945  0.19663641636404347  1.0000
  P   P4        1.0  0.6297691135820712  0.3781418918449759  0.303365382616377  1.0000
  H   H1        1.0  0.858495615464598  0.2253139496954262  0.9445804576168297  1.0000
  H   H2        1.0  0.3585024633308364  0.7746861100133272  0.5554196210864574  1.0000
  H   H3        1.0  0.14150085222220807  0.7746834669736702  0.0554214613871551  1.0000
  H   H4        1.0  0.6415014656271366  0.22531506207563015  0.4445789858756512  1.0000
  H   H5        1.0  0.8603181987909565  0.03783531559746929  0.9386589918627948  1.0000
  H   H6        1.0  0.3603239678224454  0.9621654907425352  0.5613424309290735  1.0000
  H   H7        1.0  0.13967826889676618  0.9621621016745434  0.06134225796714789  1.0000
  H   H8        1.0  0.6396829456394286  0.03783718049975699  0.43865819708651793  1.0000
  H   H9        1.0  0.8570135841574282  0.8778955394159597  0.8456797723414127  1.0000
  H   H10       1.0  0.3570163985355207  0.1221045212413259  0.6543216455453162  1.0000
  H   H11       1.0  0.14298736029513037  0.12210338062583759  0.15431948349731064  1.0000
  H   H12       1.0  0.6429875304209317  0.8778958979538131  0.34567963134688984  1.0000
  H   H13       1.0  0.8616832845836413  0.7977212111419334  0.6953779334890342  1.0000
  H   H14       1.0  0.3616807559848638  0.20227734057016994  0.8046248065866095  1.0000
  H   H15       1.0  0.1383191521225413  0.20227770769293577  0.3046226606973619  1.0000
  H   H16       1.0  0.6383157116955331  0.7977223275453299  0.1953771327156559  1.0000
  H   H17       1.0  0.8646870917708752  0.8997915082041316  0.5594422599542382  1.0000
  H   H18       1.0  0.36468327700840314  0.10020628926909578  0.9405598024908244  1.0000
  H   H19       1.0  0.1353108681689363  0.1002074106339848  0.4405583342334154  1.0000
  H   H20       1.0  0.6353087139086782  0.899792628970431  0.059441460872562885  1.0000
  H   H21       1.0  0.8669799870787923  0.0889363198605295  0.5701970350161288  1.0000
  H   H22       1.0  0.3669790672274757  0.9110614754878766  0.9298036877893878  1.0000
  H   H23       1.0  0.1330164806055691  0.9110625989786739  0.4298035591719511  1.0000
  H   H24       1.0  0.6330174004568861  0.0889374433513268  0.07019690639868509  1.0000
  H   H25       1.0  0.8665093966990511  0.23143264790708426  0.6622371932926256  1.0000
  H   H26       1.0  0.36650953666914177  0.7685658992087526  0.8377628673695198  1.0000
  H   H27       1.0  0.133490055495308  0.7685662703270282  0.3377640700686584  1.0000
  H   H28       1.0  0.633489915526745  0.23143377191917838  0.16223572606166664  1.0000
  H   H29       1.0  0.0559269233637707  0.6096000994451173  0.790961409921074  1.0000
  H   H30       1.0  0.5559257541638516  0.39040115239847495  0.7090361691659836  1.0000
  H   H31       1.0  0.9440725288290608  0.39040032156202636  0.2090378594502482  1.0000
  H   H32       1.0  0.4440707135144136  0.6095992661991545  0.29096577690236797  1.0000
  H   H33       1.0  0.836524118582865  0.6504619146065309  0.8095098597181547  1.0000
  H   H34       1.0  0.3365255448014607  0.34953742772560764  0.6904888862399118  1.0000
  H   H35       1.0  0.16347533360691097  0.349539256279833  0.19049008559330355  1.0000
  H   H36       1.0  0.6634724151362194  0.6504622415946456  0.30951171471383526  1.0000
  H   H37       1.0  0.7100894531399289  0.3678996205487407  0.5510869118732629  1.0000
  H   H38       1.0  0.21008707754112516  0.6321029072583287  0.9489119323185163  1.0000
  H   H39       1.0  0.2899144758201828  0.6321008010580728  0.4489116883227523  1.0000
  H   H40       1.0  0.789915359151024  0.36790126555440844  0.0510880400564702  1.0000
  H   H41       1.0  0.6658559051069943  0.44349313699573395  0.4763351921209348  1.0000
  H   H42       1.0  0.1658551230520047  0.5565091109180855  0.023663267741461897  1.0000
  H   H43       1.0  0.33414653159674396  0.5565072840092498  0.5236640772495491  1.0000
  H   H44       1.0  0.8341443291310566  0.4434950631026595  0.976335366286264  1.0000
  C   C1        1.0  0.8621338885843881  0.24019252239178712  0.8011494995788766  1.0000
  C   C2        1.0  0.3621359510458148  0.759807532641716  0.698849907903778  1.0000
  C   C3        1.0  0.13786407135237508  0.7598071463255422  0.1988517705489201  1.0000
  C   C4        1.0  0.6378664856588402  0.24019288896618457  0.30114869229266356  1.0000
  C   C5        1.0  0.8620444003446579  0.1849363495560326  0.881086702702369  1.0000
  C   C6        1.0  0.362049353138758  0.8150644554845029  0.6189133807699818  1.0000
  C   C7        1.0  0.1379535595985146  0.8150610677149003  0.1189145471271544  1.0000
  C   C8        1.0  0.6379560680725334  0.18493746708550424  0.381085232957794  1.0000
  C   C9        1.0  0.8616492508490052  0.0815585369847938  0.8772665050849182  1.0000
  C   C10       1.0  0.3616521149909885  0.9184407670636929  0.622734234252313  1.0000
  C   C11       1.0  0.13835020134840187  0.9184396313701056  0.12273408233622969  1.0000
  C   C12       1.0  0.6383547984794261  0.0815589022500589  0.37726636669891894  1.0000
  C   C13       1.0  0.8622583511946257  0.029983387462550595  0.7940782224234582  1.0000
  C   C14       1.0  0.3622606950950953  0.9700159144962514  0.7059238549191562  1.0000
  C   C15       1.0  0.13774110100401057  0.9700140298072879  0.20592302740564608  1.0000
  C   C16       1.0  0.6377462183731806  0.029984505299637504  0.294076752798162  1.0000
  C   C17       1.0  0.8614783641490646  0.9239424969027112  0.7857014663979456  1.0000
  C   C18       1.0  0.36147829068074333  0.07605680739598597  0.7142992730363034  1.0000
  C   C19       1.0  0.1385240725601662  0.07605567205294513  0.21429845184831456  1.0000
  C   C20       1.0  0.6385256382766187  0.9239436124020699  0.2857013346818532  1.0000
  C   C21       1.0  0.8621769812755673  0.8790672456023073  0.7021914862226454  1.0000
  C   C22       1.0  0.36217642465769717  0.12093205587380851  0.7978112603406373  1.0000
  C   C23       1.0  0.13782247092093058  0.12093092214967532  0.2978097703725452  1.0000
  C   C24       1.0  0.6378230275345301  0.8790676128424408  0.2021900097867402  1.0000
  C   C25       1.0  0.8640452242672082  0.9382753110615524  0.6241167715147782  1.0000
  C   C26       1.0  0.364041804823536  0.0617217374639694  0.8758846153513388  1.0000
  C   C27       1.0  0.1359527356756587  0.06172285789735099  0.37588314673274675  1.0000
  C   C28       1.0  0.6359516783532727  0.9382756798102109  0.1241166344794422  1.0000
  C   C29       1.0  0.8643611312584624  0.04179811132681269  0.6293865771865725  1.0000
  C   C30       1.0  0.364360106396532  0.9582004377026434  0.8706148230332287  1.0000
  C   C31       1.0  0.1356353364246772  0.9582015585974448  0.3706133545935515  1.0000
  C   C32       1.0  0.6356378535432865  0.0417984811354799  0.12938577115442476  1.0000
  C   C33       1.0  0.8629163791199445  0.08839715762169928  0.7146479502940508  1.0000
  C   C34       1.0  0.3629143597189781  0.9116013941087289  0.7853527815652086  1.0000
  C   C35       1.0  0.1370845653298716  0.9116017606113332  0.28535331306681394  1.0000
  C   C36       1.0  0.6370865847305253  0.0883982758122812  0.2146471502136507  1.0000
  S   S1        1.0  0.910688080435115  0.6921103264879206  0.4620317790006254  1.0000
  S   S2        1.0  0.41069165283421677  0.3078930675700987  0.0379658874061377  1.0000
  S   S3        1.0  0.08931435627412297  0.30788784246772855  0.5379681392456348  1.0000
  S   S4        1.0  0.5893122761170416  0.6921111076532326  0.9620314082722388  1.0000
  N   N1        1.0  0.8620296773345116  0.19107167634727057  0.7227298343511988  1.0000
  N   N2        1.0  0.36202975427892886  0.8089268766688488  0.7772708980065914  1.0000
  N   N3        1.0  0.1379712671192621  0.8089264926094657  0.2772700838954804  1.0000
  N   N4        1.0  0.6379711901727204  0.19107204277002404  0.22272902700618144  1.0000
  O   O1        1.0  0.8281742797678716  0.4097888034059524  0.7068306153476271  1.0000
  O   O2        1.0  0.3281800295757549  0.5902128024908109  0.7931681556075034  1.0000
  O   O3        1.0  0.1718147266392123  0.5902101154386655  0.293169978842549  1.0000
  O   O4        1.0  0.671822407130726  0.4097876203229305  0.20682910624083922  1.0000
  O   O5        1.0  0.7070148516433648  0.4101373147905035  0.8690388823929922  1.0000
  O   O6        1.0  0.20701507881197048  0.5898667178393852  0.630960646234932  1.0000
  O   O7        1.0  0.2929816160324492  0.5898646059772402  0.1309617388594475  1.0000
  O   O8        1.0  0.7929828811232724  0.4101344536509756  0.36903862990290287  1.0000
  O   O9        1.0  0.07816504110392941  0.40188965616108874  0.8359975699421937  1.0000
  O   O10       1.0  0.5781687870375406  0.5981108123110842  0.6640006590339169  1.0000
  O   O11       1.0  0.9218284420582349  0.5981122628000648  0.1640050588332258  1.0000
  O   O12       1.0  0.4218321574122682  0.401890361588798  0.3359959404068888  1.0000
  O   O13       1.0  0.8446988617453923  0.7141537602063083  0.5552725793970126  1.0000
  O   O14       1.0  0.3447074136696031  0.285851575316407  0.9447248777382383  1.0000
  O   O15       1.0  0.15529760594232303  0.28584591273255455  0.444724006512871  1.0000
  O   O16       1.0  0.6552994997901251  0.7141518464080219  0.05527575704343949  1.0000
  O   O17       1.0  0.9267838731690857  0.5783893803684707  0.459758485601398  1.0000
  O   O18       1.0  0.42678679478273546  0.4216117346571122  0.040243835665513886  1.0000
  O   O19       1.0  0.0732170712825564  0.42160953907040255  0.5402414394113677  1.0000
  O   O20       1.0  0.57321564191124  0.5783901836946156  0.9597594622814398  1.0000
  O   O21       1.0  0.11288493627927207  0.736186171105622  0.4455479802625462  1.0000
  O   O22       1.0  0.612886400338205  0.26381615310094014  0.054451178589871994  1.0000
  O   O23       1.0  0.8871175004305769  0.2638127501409286  0.554449937227659  1.0000
  O   O24       1.0  0.3871175286066516  0.7361880179019451  0.9455508013068367  1.0000
  O   O25       1.0  0.7690342319131458  0.7273557979128213  0.3943515750647251  1.0000
  O   O26       1.0  0.2690363263904629  0.2726485510596959  0.10564751619157417  1.0000
  O   O27       1.0  0.2309711893057695  0.27264537779257125  0.6056430168526745  1.0000
  O   O28       1.0  0.7309661103035126  0.7273533672920323  0.8943557817553796  1.0000
  O   O29       1.0  0.9260774941300837  0.6234281903140371  0.7623894162823959  1.0000
  O   O30       1.0  0.4260786380275262  0.3765702715326498  0.7376092725013449  1.0000
  O   O31       1.0  0.07392046581156107  0.37657072972992  0.2376098395571731  1.0000
  O   O32       1.0  0.5739163373974135  0.6234293965839299  0.2623926668013397  1.0000
  O   O33       1.0  0.6504706862501874  0.4348967460144734  0.5416499133328188  1.0000
  O   O34       1.0  0.150468664529896  0.5651051178580246  0.9583489576513242  1.0000
  O   O35       1.0  0.349527273695429  0.5651014247531876  0.4583479973925577  1.0000
  O   O36       1.0  0.849529295392834  0.4348998048371726  0.041651690665062795  1.0000
