data_image0
_chemical_formula_structural       Mg6H30C48O18
_chemical_formula_sum              "Mg6 H30 C48 O18"
_cell_length_a       6.825589721383368
_cell_length_b       26.01497935868672
_cell_length_c       26.024126457720627
_cell_angle_alpha    119.2288751533615
_cell_angle_beta     94.94240231080008
_cell_angle_gamma    95.03520382899438

_space_group_name_H-M_alt    "P 1"
_space_group_IT_number       1

loop_
  _space_group_symop_operation_xyz
  'x, y, z'

loop_
  _atom_site_type_symbol
  _atom_site_label
  _atom_site_symmetry_multiplicity
  _atom_site_fract_x
  _atom_site_fract_y
  _atom_site_fract_z
  _atom_site_occupancy
  Mg  Mg1       1.0  0.16651516900324734  0.6668325740483709  0.29282174027084545  1.0000
  Mg  Mg2       1.0  0.8732506658629048  0.707017627748172  0.37386178139550447  1.0000
  Mg  Mg3       1.0  0.49945803398102834  0.6259674619706813  0.3330428907410265  1.0000
  Mg  Mg4       1.0  0.8334953420052216  0.33316356559936366  0.7071759307951878  1.0000
  Mg  Mg5       1.0  0.12676399479762065  0.2929838583534091  0.6261362895867107  1.0000
  Mg  Mg6       1.0  0.5005545549496517  0.3740358044511538  0.6669606132114012  1.0000
  H   H1        1.0  0.6639784584347125  0.8740880839602883  0.43918562502921804  1.0000
  H   H2        1.0  0.2249364999615437  0.5607345015400256  0.43485476341197676  1.0000
  H   H3        1.0  0.7913191539021012  0.5650101463025264  0.12583525313939953  1.0000
  H   H4        1.0  0.5035178264532618  0.0010382634205825998  0.4416710374472571  1.0000
  H   H5        1.0  0.05941821111415628  0.5583213989827341  0.5593823253760064  1.0000
  H   H6        1.0  0.503472870087144  0.4406723813716625  0.9989912756386516  1.0000
  H   H7        1.0  0.6873092619298686  0.9768583441908658  0.47318567136636597  1.0000
  H   H8        1.0  0.2141782986944419  0.5272070093141393  0.5042741361850814  1.0000
  H   H9        1.0  0.711128574338204  0.49643233926632035  0.022736996021009846  1.0000
  H   H10       1.0  0.4964574723134517  0.9989609963652625  0.5583288882702317  1.0000
  H   H11       1.0  0.9405754657246418  0.44167340604655436  0.44061238748466275  1.0000
  H   H12       1.0  0.49652012591396033  0.5593210860650472  0.001005842609259807  1.0000
  H   H13       1.0  0.31266781954317924  0.023144479668211208  0.5268152668549888  1.0000
  H   H14       1.0  0.785813107796926  0.47278913261975936  0.49572040896755  1.0000
  H   H15       1.0  0.28885790583650817  0.5035687015850597  0.9772644394853173  1.0000
  H   H16       1.0  0.33601796696579095  0.125915184554195  0.560814820221232  1.0000
  H   H17       1.0  0.7750662505398437  0.43926965738538815  0.565146645609971  1.0000
  H   H18       1.0  0.2086703321699801  0.4349851043425303  0.8741599656526445  1.0000
  H   H19       1.0  0.06360565530699348  0.15674103082474025  0.6224966407688441  1.0000
  H   H20       1.0  0.4414018666466574  0.3775849976316792  0.534307421875013  1.0000
  H   H21       1.0  0.905780723684295  0.465883765359827  0.8432172182846855  1.0000
  H   H22       1.0  0.8746040155846727  0.054600550294203694  0.5707429622615408  1.0000
  H   H23       1.0  0.30401200399735717  0.4292586470881615  0.4838429893581804  1.0000
  H   H24       1.0  0.8185340794781196  0.5161180187980889  0.9453210814607258  1.0000
  H   H25       1.0  0.12537412757066585  0.9453955900129215  0.429257810963108  1.0000
  H   H26       1.0  0.6959908876163894  0.5707428393466853  0.5161559652236107  1.0000
  H   H27       1.0  0.18144177633280378  0.4838794569445141  0.05468336554027787  1.0000
  H   H28       1.0  0.9363883816581263  0.8432515468925811  0.3774966085486398  1.0000
  H   H29       1.0  0.5586069814431411  0.6224196057915066  0.4656958807636542  1.0000
  H   H30       1.0  0.09420778742748578  0.5341154916453874  0.15678800381398622  1.0000
  C   C1        1.0  0.19048126525552075  0.800176342143544  0.377287613678952  1.0000
  C   C2        1.0  0.8130190856205814  0.6225320292777282  0.42274723946475473  1.0000
  C   C3        1.0  0.39119456800496266  0.5770564598942796  0.19978189585562936  1.0000
  C   C4        1.0  0.4004413148410748  0.8098636074186346  0.39573629353729706  1.0000
  C   C5        1.0  0.004611267154587018  0.6040742949688465  0.4139809544957274  1.0000
  C   C6        1.0  0.5915541602725937  0.5858550043598854  0.19005245313353916  1.0000
  C   C7        1.0  0.5041451333293876  0.8684962004805923  0.42569247210256106  1.0000
  C   C8        1.0  0.07843754126203342  0.5741827105734955  0.44270602006010756  1.0000
  C   C9        1.0  0.636984072051817  0.5571377858505285  0.13144158856756855  1.0000
  C   C10       1.0  0.4112967204560576  0.9178040978221347  0.437855610267796  1.0000
  C   C11       1.0  0.9734540179413997  0.5621409142638001  0.47994828778838167  1.0000
  C   C12       1.0  0.49499225928143176  0.5200095187243932  0.08218856032129201  1.0000
  C   C13       1.0  0.5273654869514315  0.9797595129355228  0.4689275428881102  1.0000
  C   C14       1.0  0.057979430720493455  0.5311548797863422  0.5109516575423498  1.0000
  C   C15       1.0  0.5484337133119509  0.48920877057956597  0.020166881041163265  1.0000
  C   C16       1.0  0.47260538673730673  0.020239745965270096  0.5310753551997536  1.0000
  C   C17       1.0  0.9420169629921631  0.46883947943010906  0.48904328407810027  1.0000
  C   C18       1.0  0.45154612614960843  0.5107878153970659  0.9798333800924082  1.0000
  C   C19       1.0  0.5886895305064925  0.08219649696916781  0.5621471392321951  1.0000
  C   C20       1.0  0.026546063599582236  0.4378578989925046  0.5200504500324641  1.0000
  C   C21       1.0  0.504986646012604  0.47999107713831535  0.9178124845563501  1.0000
  C   C22       1.0  0.4958531243906066  0.13150484077208086  0.5743061590619901  1.0000
  C   C23       1.0  0.921566233206377  0.425820557163405  0.5572953615158198  1.0000
  C   C24       1.0  0.3629991977374586  0.4428538991016778  0.8685575108331846  1.0000
  C   C25       1.0  0.5995585527850407  0.19013476109980584  0.6042603009412559  1.0000
  C   C26       1.0  0.9954092020708386  0.39593298002399274  0.5860254555772784  1.0000
  C   C27       1.0  0.408444360975423  0.4141406902956105  0.8099454947835409  1.0000
  C   C28       1.0  0.809521840273092  0.19982558902916736  0.622713484245132  1.0000
  C   C29       1.0  0.18698489766360635  0.377471682756294  0.5772574378987727  1.0000
  C   C30       1.0  0.6088097301201002  0.4229361143544351  0.8002188875222342  1.0000
  C   C31       1.0  0.9033492354625918  0.14925865981840047  0.608848649306978  1.0000
  C   C32       1.0  0.29472768709263164  0.3912798077758383  0.5404959565085363  1.0000
  C   C33       1.0  0.7529290094821234  0.4596690030344206  0.8507308672516417  1.0000
  C   C34       1.0  0.7960094344668533  0.09230397996545747  0.5797076886729613  1.0000
  C   C35       1.0  0.21646067715344233  0.4203354229526255  0.5126401911013048  1.0000
  C   C36       1.0  0.7022769017018078  0.48745414734051457  0.9076377796469116  1.0000
  C   C37       1.0  0.48413813105203457  0.23892756882511176  0.6151581345469381  1.0000
  C   C38       1.0  0.8690521257638862  0.3850564352397185  0.623944888438423  1.0000
  C   C39       1.0  0.24450325525457112  0.3761936394890596  0.7611798409962346  1.0000
  C   C40       1.0  0.20397687120794936  0.9076908239315387  0.4202910817919588  1.0000
  C   C41       1.0  0.7835444848077201  0.5796647265776186  0.48735893118853096  1.0000
  C   C42       1.0  0.2977055597350144  0.5125388736849742  0.09236310639371935  1.0000
  C   C43       1.0  0.09666501978616537  0.8507361431218072  0.39114845477593724  1.0000
  C   C44       1.0  0.7052843277968536  0.6087252412200996  0.45950686764477666  1.0000
  C   C45       1.0  0.24706257353074074  0.5403275804052469  0.14927427250894704  1.0000
  C   C46       1.0  0.5158686030999887  0.7610757003343308  0.38483908860757765  1.0000
  C   C47       1.0  0.13097016558283764  0.6149486116098329  0.37606201243931986  1.0000
  C   C48       1.0  0.7555044337832512  0.6237998259517425  0.23882030234793203  1.0000
  O   O1        1.0  0.6995693751029961  0.7716884488380557  0.40594993559103193  1.0000
  O   O2        1.0  0.2936945738489243  0.5938389020092244  0.3655809141306605  1.0000
  O   O3        1.0  0.9286964185310822  0.6343455615031033  0.22819633461473643  1.0000
  O   O4        1.0  0.4263028450279904  0.7067515065867199  0.3523047624793421  1.0000
  O   O5        1.0  0.0738259780230592  0.6474476453959781  0.3542377641999153  1.0000
  O   O6        1.0  0.7198631182268541  0.6456104617836046  0.2931140023841222  1.0000
  O   O7        1.0  0.07876391315851813  0.7461036699521701  0.3474808775014609  1.0000
  O   O8        1.0  0.7310002732842733  0.6523127722678836  0.3984604545636897  1.0000
  O   O9        1.0  0.33310256305736635  0.6013801581890803  0.2538093732500641  1.0000
  O   O10       1.0  0.30044742499079286  0.2283143737309672  0.5940484526487353  1.0000
  O   O11       1.0  0.7063400803757387  0.4061732702025933  0.6344339756156926  1.0000
  O   O12       1.0  0.07130629688305128  0.36564968783045515  0.7718003390740904  1.0000
  O   O13       1.0  0.5737121944555524  0.2932477538189318  0.6476876193268594  1.0000
  O   O14       1.0  0.9261870506352564  0.35255651152996853  0.6457673373980128  1.0000
  O   O15       1.0  0.28014988724211065  0.3543847865788691  0.7068836748416059  1.0000
  O   O16       1.0  0.9212493385195938  0.25389202593951404  0.6525116442462036  1.0000
  O   O17       1.0  0.26901079044069576  0.3476962851449982  0.6015469948180936  1.0000
  O   O18       1.0  0.6669133698009231  0.39861508880458985  0.7461914443746167  1.0000
