data_image0
_chemical_formula_structural       Zn8H66C84N6O26
_chemical_formula_sum              "Zn8 H66 C84 N6 O26"
_cell_length_a       20.568251390748742
_cell_length_b       20.582355401518644
_cell_length_c       21.138400685582553
_cell_angle_alpha    62.47455108138043
_cell_angle_beta     62.7720368073934
_cell_angle_gamma    61.907013777746926

_space_group_name_H-M_alt    "P 1"
_space_group_IT_number       1

loop_
  _space_group_symop_operation_xyz
  'x, y, z'

loop_
  _atom_site_type_symbol
  _atom_site_label
  _atom_site_symmetry_multiplicity
  _atom_site_fract_x
  _atom_site_fract_y
  _atom_site_fract_z
  _atom_site_occupancy
  Zn  Zn1       1.0  0.10997622879651198  0.9553465899458474  0.9216331828146307  1.0000
  Zn  Zn2       1.0  0.951884544654952  0.953378607369622  0.9322065988244784  1.0000
  Zn  Zn3       1.0  0.9590664680034282  0.10403028659965936  0.9363521102537148  1.0000
  Zn  Zn4       1.0  0.9720492975226022  0.9520069660999932  0.07592433042850669  1.0000
  Zn  Zn5       1.0  0.38653866451347346  0.5211717321920163  0.5005341790128878  1.0000
  Zn  Zn6       1.0  0.5343288087558591  0.5311579783143968  0.506678050031084  1.0000
  Zn  Zn7       1.0  0.5355027744901335  0.5257635273127405  0.3578343572027336  1.0000
  Zn  Zn8       1.0  0.5394837199488761  0.37631443478140614  0.501649220154917  1.0000
  H   H1        1.0  0.1010048874766838  0.8699237208845573  0.7378991155324214  1.0000
  H   H2        1.0  0.14632549312282347  0.7479552584713359  0.8383435581605099  1.0000
  H   H3        1.0  0.209548989097918  0.6267101298023616  0.8219982704730525  1.0000
  H   H4        1.0  0.2913126918446095  0.5512756076960555  0.7320930180746714  1.0000
  H   H5        1.0  0.34604215699357604  0.753242323459723  0.5605807718416642  1.0000
  H   H6        1.0  0.2193888625237933  0.885158305539299  0.5953503441104785  1.0000
  H   H7        1.0  0.36723209832005915  0.8686045290265553  0.549735767154253  1.0000
  H   H8        1.0  0.3857936058966018  0.9077315067698276  0.6395475953248919  1.0000
  H   H9        1.0  0.24911599265737996  0.9463371666535988  0.7389108081462438  1.0000
  H   H10       1.0  0.2831947199866178  0.8440583388411863  0.7676545257426496  1.0000
  H   H11       1.0  0.17288723993397814  0.9576375839398772  0.6746090795456113  1.0000
  H   H12       1.0  0.1293048170909756  0.21904695587988948  0.8420234017185989  1.0000
  H   H13       1.0  0.17103749066181706  0.16965822250799784  0.7330698157731914  1.0000
  H   H14       1.0  0.21945682353040755  0.2491297044286469  0.6163026364188013  1.0000
  H   H15       1.0  0.2961135940494088  0.3396189759636101  0.5393895530262114  1.0000
  H   H16       1.0  0.37224400213835196  0.2736122628710048  0.7254242963986426  1.0000
  H   H17       1.0  0.26609048011485475  0.22445763221020332  0.8561134675422435  1.0000
  H   H18       1.0  0.41206609393559995  0.13504913975294386  0.8253815071609053  1.0000
  H   H19       1.0  0.40801572098617805  0.9945116091317415  0.8828702167890157  1.0000
  H   H20       1.0  0.25972377439796895  0.0060150951785332045  0.9400297741103358  1.0000
  H   H21       1.0  0.2854531580728263  0.024361766063783798  0.8429406464630204  1.0000
  H   H22       1.0  0.19863543154692556  0.13842204520821605  0.9308889058202748  1.0000
  H   H23       1.0  0.15820014489525383  0.7448061932478253  0.15548795286878905  1.0000
  H   H24       1.0  0.1543788793003245  0.8606146338980877  0.17197253235318746  1.0000
  H   H25       1.0  0.19495292685282814  0.8421358003875098  0.26777246681893263  1.0000
  H   H26       1.0  0.2690613037463405  0.7463471230624489  0.3582216147882351  1.0000
  H   H27       1.0  0.3911292151266395  0.5954068137974742  0.22298262863473192  1.0000
  H   H28       1.0  0.3092842888809457  0.6237444721134792  0.1376242998730816  1.0000
  H   H29       1.0  0.450293533337529  0.6320335006841873  0.07590373582803528  1.0000
  H   H30       1.0  0.448392438226733  0.7471552608755943  0.9519933733356395  1.0000
  H   H31       1.0  0.3051416009163503  0.8058501844585277  0.9456173448411106  1.0000
  H   H32       1.0  0.30456701411875275  0.8447347037077364  0.0047624234547000415  1.0000
  H   H33       1.0  0.25157505689875137  0.7117760850756554  0.04494725123667807  1.0000
  H   H34       1.0  0.860341911596059  0.21228975884787354  0.753445202886496  1.0000
  H   H35       1.0  0.7387607026493653  0.18281370722669268  0.8584014418704056  1.0000
  H   H36       1.0  0.6239706605007527  0.2736977862551555  0.8324317520118992  1.0000
  H   H37       1.0  0.5593431574775919  0.3675011628256114  0.734120312895861  1.0000
  H   H38       1.0  0.7544009940137855  0.26665843878836876  0.5706214272434664  1.0000
  H   H39       1.0  0.8823140901882881  0.19638291965853938  0.6096999633123446  1.0000
  H   H40       1.0  0.8294590649932658  0.112138031288886  0.5935765154466067  1.0000
  H   H41       1.0  0.8686607387858345  0.9756950305818606  0.6893306347625481  1.0000
  H   H42       1.0  0.9375188986806151  0.9868136655092811  0.7622923846251909  1.0000
  H   H43       1.0  0.8367871419070738  0.022224345626902692  0.8046246948642303  1.0000
  H   H44       1.0  0.9478682805339884  0.11204853578809795  0.6962500366809293  1.0000
  H   H45       1.0  0.7672990254638277  0.879928768516393  0.18577711570608815  1.0000
  H   H46       1.0  0.8748364921635388  0.7540235378628707  0.1698658046942896  1.0000
  H   H47       1.0  0.8558117794848955  0.6405257600820062  0.2599801411315994  1.0000
  H   H48       1.0  0.7617293209731245  0.5700434731886047  0.3516443831531859  1.0000
  H   H49       1.0  0.5858539836486969  0.751825774709161  0.25226400116588354  1.0000
  H   H50       1.0  0.6190977696103699  0.8882285349915545  0.18838506076352976  1.0000
  H   H51       1.0  0.5874874997378184  0.8373427581295728  0.11565972265420044  1.0000
  H   H52       1.0  0.6791269627085298  0.8695636771533797  0.9793191409827744  1.0000
  H   H53       1.0  0.766543727567459  0.9335981788550071  0.9762009348928582  1.0000
  H   H54       1.0  0.8076360001571953  0.8324938263027021  0.01448069541661565  1.0000
  H   H55       1.0  0.70175645750799  0.9544205843860991  0.0936412749241241  1.0000
  H   H56       1.0  0.8791580832079621  0.11944514137282167  0.1897650387652659  1.0000
  H   H57       1.0  0.7557654410858986  0.15092691852490248  0.16386125516113037  1.0000
  H   H58       1.0  0.6400628635065145  0.19620601332359652  0.2503578024716687  1.0000
  H   H59       1.0  0.5687235759137012  0.27193969265037043  0.34007199230457263  1.0000
  H   H60       1.0  0.7561513188964711  0.35988707992594715  0.2503139447319212  1.0000
  H   H61       1.0  0.8908468581641742  0.2556653067753984  0.19186988862742269  1.0000
  H   H62       1.0  0.8454321406567331  0.40378327470347125  0.11478088681756994  1.0000
  H   H63       1.0  0.8798605558266601  0.4083350350130103  0.9785993579205651  1.0000
  H   H64       1.0  0.9413713662498254  0.26217499587973947  0.9789227133865451  1.0000
  H   H65       1.0  0.8400142542991275  0.2828467026135895  0.015143029719531987  1.0000
  H   H66       1.0  0.95902280366748  0.19760052906305245  0.09870332545500553  1.0000
  C   C1        1.0  0.09984104384799504  0.8919898833556414  0.827429513558954  1.0000
  C   C2        1.0  0.1444514183821325  0.8585275119485017  0.762107016467965  1.0000
  C   C3        1.0  0.228029019862845  0.7342012666547502  0.7405891015617667  1.0000
  C   C4        1.0  0.23880901995757864  0.6546705414349885  0.7640617366450327  1.0000
  C   C5        1.0  0.28494416152828717  0.612241194475608  0.7143476559540216  1.0000
  C   C6        1.0  0.3249737089195648  0.6475602400005724  0.6409298926560324  1.0000
  C   C7        1.0  0.314947398615061  0.7262902908117892  0.6179828003786269  1.0000
  C   C8        1.0  0.2647664105664164  0.771237144815032  0.6656523919860717  1.0000
  C   C9        1.0  0.25060777866611517  0.8581706100563905  0.6367971943821613  1.0000
  C   C10       1.0  0.3255530484553121  0.8758723985940475  0.6033056733296362  1.0000
  C   C11       1.0  0.33494749294677445  0.8957552158243232  0.6497534408333507  1.0000
  C   C12       1.0  0.2678880560117349  0.8963292397023889  0.72091401430513  1.0000
  C   C13       1.0  0.20474404988122075  0.8967031198966564  0.6998865892392983  1.0000
  C   C14       1.0  0.37649540556567723  0.6020930366242394  0.5877831763346676  1.0000
  C   C15       1.0  0.11587076579192507  0.11101743359257907  0.8733906248796329  1.0000
  C   C16       1.0  0.16775022723793137  0.16076512334273466  0.8369622556436909  1.0000
  C   C17       1.0  0.24999284431234498  0.21317878085158526  0.7154525509336834  1.0000
  C   C18       1.0  0.2528865150195471  0.2551026467411646  0.6400894571214193  1.0000
  C   C19       1.0  0.29588019443203  0.3049894783372692  0.5970112168213999  1.0000
  C   C20       1.0  0.3401395054192378  0.3107866853154204  0.6274686129488456  1.0000
  C   C21       1.0  0.33788055669832323  0.2682146343938711  0.7022814840788526  1.0000
  C   C22       1.0  0.29122792434568356  0.22130411452583587  0.7479246129323087  1.0000
  C   C23       1.0  0.28526954848477004  0.17967184264421823  0.8306175301952973  1.0000
  C   C24       1.0  0.3614749172076372  0.11923526097900347  0.8423024202920004  1.0000
  C   C25       1.0  0.3592054787393124  0.046938348861907286  0.8716618397298104  1.0000
  C   C26       1.0  0.2818217697156982  0.045017099818210185  0.884537081811288  1.0000
  C   C27       1.0  0.22919838119282337  0.1307755012736749  0.8750818877703137  1.0000
  C   C28       1.0  0.38782973773808754  0.36268032449286364  0.5799361179977749  1.0000
  C   C29       1.0  0.1322874865251151  0.8507394494054522  0.06915246787946937  1.0000
  C   C30       1.0  0.1887947919755107  0.7867040527688899  0.11230855893847994  1.0000
  C   C31       1.0  0.24810534500954165  0.7702421115494785  0.1966030009344592  1.0000
  C   C32       1.0  0.23747793339267534  0.787232771827959  0.25872633214256513  1.0000
  C   C33       1.0  0.27890587934619765  0.734364341064328  0.30888079919143513  1.0000
  C   C34       1.0  0.334566912712667  0.6646688885357718  0.2960624327299327  1.0000
  C   C35       1.0  0.3470737850303395  0.6494543994323436  0.23260042083013135  1.0000
  C   C36       1.0  0.3037500231406227  0.700176021922928  0.18323518315020945  1.0000
  C   C37       1.0  0.3178914164186961  0.6801320690204021  0.11608415663029352  1.0000
  C   C38       1.0  0.39852483774616576  0.6767666730699772  0.06163447832092576  1.0000
  C   C39       1.0  0.39722421572610506  0.7363872600291967  0.9981708489265058  1.0000
  C   C40       1.0  0.3162223609550807  0.7898914985119557  0.9979119375141818  1.0000
  C   C41       1.0  0.2652571773983965  0.7424782645654202  0.06581989783494184  1.0000
  C   C42       1.0  0.3797726021817096  0.6073323003900555  0.348747282147535  1.0000
  C   C43       1.0  0.8835532817380385  0.11184750704570938  0.8456799492093903  1.0000
  C   C44       1.0  0.8491177699887871  0.15643191637988704  0.7810252761161462  1.0000
  C   C45       1.0  0.7277052647633155  0.2198807498404918  0.7557556240672056  1.0000
  C   C46       1.0  0.6527474315151665  0.2728045557075092  0.7745807712411831  1.0000
  C   C47       1.0  0.6164188808720398  0.3248651916756912  0.7200968944043068  1.0000
  C   C48       1.0  0.6529989306706198  0.32242136956283923  0.6462661510158297  1.0000
  C   C49       1.0  0.7267667911564287  0.2682927224274961  0.6281792290711861  1.0000
  C   C50       1.0  0.7658684700019693  0.21824900928381644  0.6811942647579979  1.0000
  C   C51       1.0  0.847164338407346  0.16211310693920208  0.6589181334308662  1.0000
  C   C52       1.0  0.8472909256315334  0.09898486207112706  0.6406156431718768  1.0000
  C   C53       1.0  0.867104874094359  0.028952204490607897  0.6903110740518199  1.0000
  C   C54       1.0  0.8835472106290253  0.03157474289574219  0.7513066899208454  1.0000
  C   C55       1.0  0.8868794281970551  0.11462009602591648  0.7221398087276539  1.0000
  C   C56       1.0  0.6138522104243548  0.37573420786601724  0.5878245925514988  1.0000
  C   C57       1.0  0.8613167731162292  0.89295705217404  0.0858073087091213  1.0000
  C   C58       1.0  0.7936001772623483  0.8615040065069121  0.1353633913095749  1.0000
  C   C59       1.0  0.7724774068378863  0.7378446820726905  0.20668084940317039  1.0000
  C   C60       1.0  0.7960499635415271  0.6650870769235624  0.259084993008642  1.0000
  C   C61       1.0  0.7440505452029952  0.6254693764706188  0.3098173663113  1.0000
  C   C62       1.0  0.6682547577539567  0.6562591546851946  0.3064806173934898  1.0000
  C   C63       1.0  0.6451138016844168  0.7285051459956335  0.25400780912365645  1.0000
  C   C64       1.0  0.69513025241411  0.7714746268792962  0.20559016594776114  1.0000
  C   C65       1.0  0.666575837006441  0.8524667206213008  0.15299490681383768  1.0000
  C   C66       1.0  0.6388728951115538  0.8522661823266872  0.0978203885860085  1.0000
  C   C67       1.0  0.686412460848551  0.8686123391607552  0.027728359658787765  1.0000
  C   C68       1.0  0.7544578481871086  0.882326296275593  0.022908825620319814  1.0000
  C   C69       1.0  0.7300318977953707  0.89206001567252  0.0999148503475169  1.0000
  C   C70       1.0  0.6139232597989873  0.611526812857434  0.3567635473704415  1.0000
  C   C71       1.0  0.9000021856841016  0.10674368151278908  0.08761260988170956  1.0000
  C   C72       1.0  0.8640640389173482  0.15765303002650904  0.1373161057954702  1.0000
  C   C73       1.0  0.7402278901061335  0.23275316247137562  0.20190648665127497  1.0000
  C   C74       1.0  0.6655947941068164  0.23196819895741777  0.2508562006780933  1.0000
  C   C75       1.0  0.6254792899648224  0.27439259533102234  0.3005376960070406  1.0000
  C   C76       1.0  0.6577167657601352  0.32182250055557654  0.2994339107403548  1.0000
  C   C77       1.0  0.7316117968180579  0.32307780655653306  0.2502181360811163  1.0000
  C   C78       1.0  0.7748278369389113  0.27718358228487  0.20312282453827624  1.0000
  C   C79       1.0  0.8571684868054702  0.27590542205157936  0.1541214491053963  1.0000
  C   C80       1.0  0.8599752902470428  0.35482025105255127  0.09773673581873503  1.0000
  C   C81       1.0  0.8774438794248242  0.3568976413429255  0.027760847874766473  1.0000
  C   C82       1.0  0.8899014364896233  0.2803054236205469  0.02430776655771176  1.0000
  C   C83       1.0  0.8972327339827115  0.22397913528072874  0.10261266434320522  1.0000
  C   C84       1.0  0.6140365986896867  0.3699235158849276  0.3501583539863447  1.0000
  N   N1        1.0  0.1819699352780119  0.7752553947366748  0.7920599427206695  1.0000
  N   N2        1.0  0.2060596675583142  0.16373635162775454  0.7584885328806263  1.0000
  N   N3        1.0  0.20326472618617678  0.8222635137552956  0.14864459802822683  1.0000
  N   N4        1.0  0.7657630707894967  0.16952140750019845  0.8097716996984303  1.0000
  N   N5        1.0  0.8255827847519585  0.7767934408205119  0.15576284681872488  1.0000
  N   N6        1.0  0.78019634401479  0.1896628040027224  0.15238746181913132  1.0000
  O   O1        1.0  0.9981352695733249  0.9900817258386212  0.9664942552038126  1.0000
  O   O2        1.0  0.026120470423485698  0.909237025911281  0.8502359561037877  1.0000
  O   O3        1.0  0.13930924499796052  0.8986233811548984  0.8544541911982293  1.0000
  O   O4        1.0  0.4423209750397845  0.6117158163899815  0.5471141976559719  1.0000
  O   O5        1.0  0.3506721394369805  0.5568282424758237  0.5869474953919607  1.0000
  O   O6        1.0  0.045286677779941414  0.14075629891793537  0.9083216116317274  1.0000
  O   O7        1.0  0.14676437604254036  0.044548206524581184  0.8643579312269832  1.0000
  O   O8        1.0  0.4557052902395354  0.3378745310073157  0.585291173178966  1.0000
  O   O9        1.0  0.35747357019302245  0.4282573461553198  0.5363576496743077  1.0000
  O   O10       1.0  0.06138298722041211  0.8700692151605336  0.1091182538008653  1.0000
  O   O11       1.0  0.1596129721751964  0.8798822954316775  0.999048509981705  1.0000
  O   O12       1.0  0.44726778691501307  0.5632385181730443  0.32168127093295595  1.0000
  O   O13       1.0  0.34796307909005014  0.6056482236035374  0.4174872960306146  1.0000
  O   O14       1.0  0.9201967383942888  0.14395396357421925  0.8512688647852257  1.0000
  O   O15       1.0  0.8734587663752009  0.0470931256210747  0.8890762485146269  1.0000
  O   O16       1.0  0.624158575315441  0.3480235607608079  0.5393922251546996  1.0000
  O   O17       1.0  0.5728085545873256  0.44503513238923625  0.5900262214841729  1.0000
  O   O18       1.0  0.8805400737509855  0.9192003772521743  0.11655468774849001  1.0000
  O   O19       1.0  0.894544519261558  0.8880647831140107  0.019739612822512048  1.0000
  O   O20       1.0  0.5700094532367785  0.6132884419817728  0.3278770523090274  1.0000
  O   O21       1.0  0.6155525621790403  0.5742544560949266  0.4244441441782455  1.0000
  O   O22       1.0  0.9427429329406748  0.037542786905739  0.11262911308395473  1.0000
  O   O23       1.0  0.885077160384874  0.13606369700276838  0.025871530766316618  1.0000
  O   O24       1.0  0.6192327795724353  0.4378980066141763  0.3236775433478982  1.0000
  O   O25       1.0  0.5743853514594264  0.33977761961427416  0.41649525012343247  1.0000
  O   O26       1.0  0.4992295118200686  0.48917331903034966  0.466700091332818  1.0000
