data_image0
_chemical_formula_structural       Zn2H26C34I4N2O10
_chemical_formula_sum              "Zn2 H26 C34 I4 N2 O10"
_cell_length_a       8.881112993733396
_cell_length_b       13.968834562135767
_cell_length_c       15.317926359120843
_cell_angle_alpha    91.88144182809737
_cell_angle_beta     91.07798119073496
_cell_angle_gamma    99.00168058073429

_space_group_name_H-M_alt    "P 1"
_space_group_IT_number       1

loop_
  _space_group_symop_operation_xyz
  'x, y, z'

loop_
  _atom_site_type_symbol
  _atom_site_label
  _atom_site_symmetry_multiplicity
  _atom_site_fract_x
  _atom_site_fract_y
  _atom_site_fract_z
  _atom_site_occupancy
  Zn  Zn1       1.0  0.48465054651359213  0.3972272955372419  0.4936465616891396  1.0000
  Zn  Zn2       1.0  0.501446093852131  0.599077205220816  0.5038283091130964  1.0000
  H   H1        1.0  0.018063185487022803  0.6091312657536037  0.491082067894922  1.0000
  H   H2        1.0  0.38007459682695105  0.23694147514910213  0.610635879617341  1.0000
  H   H3        1.0  0.264295579911348  0.7222101625765093  0.4835023818068008  1.0000
  H   H4        1.0  0.5963172194983956  0.25335580289117854  0.3733417879301512  1.0000
  H   H5        1.0  0.734935622327292  0.3519101772337123  0.7010610155191869  1.0000
  H   H6        1.0  0.7868125425138361  0.3437726859628896  0.814126924899561  1.0000
  H   H7        1.0  0.0026910489495222136  0.4429912572620582  0.6790759560079562  1.0000
  H   H8        1.0  0.048937100151135796  0.4207436589184185  0.7887444761765393  1.0000
  H   H9        1.0  0.9948137747782015  0.23957652952464775  0.754080173365466  1.0000
  H   H10       1.0  0.1380019718098993  0.29902778635849353  0.6860975763869843  1.0000
  H   H11       1.0  0.9498881658133275  0.2629273485082067  0.6438972006951429  1.0000
  H   H12       1.0  0.9676087354019743  0.38641182525793744  0.5030509419344042  1.0000
  H   H13       1.0  0.2241721711170541  0.6953620837938814  0.31509727779464203  1.0000
  H   H14       1.0  0.2318321339432785  0.5693147407939138  0.31274235376407933  1.0000
  H   H15       1.0  0.09222963573163413  0.6786934315543932  0.16852802064536115  1.0000
  H   H16       1.0  0.10466944627938093  0.553776175228272  0.16262241472418984  1.0000
  H   H17       1.0  0.9379719807014839  0.5259680288982482  0.29433848513179567  1.0000
  H   H18       1.0  0.8439255613194591  0.5800537383967355  0.21016938961102474  1.0000
  H   H19       1.0  0.9252575727987278  0.6513786138700369  0.302182246157379  1.0000
  H   H20       1.0  0.2774761517076598  0.5127043583427239  0.7732319507497677  1.0000
  H   H21       1.0  0.5435008795212825  0.3635466171002336  0.21877739433972465  1.0000
  H   H22       1.0  0.2745848268993144  0.514754924594982  0.9352954365938756  1.0000
  H   H23       1.0  0.5717411929575179  0.3689512868972288  0.05725547202389689  1.0000
  H   H24       1.0  0.7344068832123014  0.959758227711234  0.5153050931453649  1.0000
  H   H25       1.0  0.3766776251909081  0.056449572688031004  0.6137322667293714  1.0000
  H   H26       1.0  0.7319470277945617  0.779406013330082  0.5230715510132383  1.0000
  C   C1        1.0  0.5112953286307089  0.4939677362958009  0.6688678079481675  1.0000
  C   C2        1.0  0.5537766962915001  0.10700169882007063  0.4219787850589611  1.0000
  C   C3        1.0  0.49039436725757934  0.9445918941738967  0.4930097963693426  1.0000
  C   C4        1.0  0.4903739245307577  0.050515727802135806  0.4903392436654669  1.0000
  C   C5        1.0  0.7868693303091022  0.5255750449384139  0.4923416237401027  1.0000
  C   C6        1.0  0.19823124593096253  0.4728379957669732  0.5030902689589636  1.0000
  C   C7        1.0  0.955162335311222  0.535757889348993  0.49283813018872263  1.0000
  C   C8        1.0  0.029494583810446787  0.45994424371154713  0.4996589808764042  1.0000
  C   C9        1.0  0.6484515021323106  0.49830475400371915  0.9065191686621288  1.0000
  C   C10       1.0  0.45164626572398003  0.585407493469944  0.09522540713160048  1.0000
  C   C11       1.0  0.6485246730594768  0.4899282095942041  0.8145547816262704  1.0000
  C   C12       1.0  0.4719160078969722  0.497566579089913  0.328711735500768  1.0000
  C   C13       1.0  0.4277772669426057  0.5809006851184223  0.18594355298020554  1.0000
  C   C14       1.0  0.5139920110866498  0.4957841932554319  0.7669777970008269  1.0000
  C   C15       1.0  0.4666982581742973  0.501087702327368  0.23092146225513224  1.0000
  C   C16       1.0  0.38069336334609016  0.5064866488578377  0.8107946334501148  1.0000
  C   C17       1.0  0.5164974217932539  0.4251941894724496  0.18322122385386305  1.0000
  C   C18       1.0  0.3799389982102499  0.5092121643842235  0.9013835098690276  1.0000
  C   C19       1.0  0.5338245527051344  0.4288274201572905  0.09359315297982818  1.0000
  C   C20       1.0  0.5138990633679017  0.5068422423972763  0.9511583180867971  1.0000
  C   C21       1.0  0.5034500733348396  0.5095028224428759  0.04780905769938219  1.0000
  C   C22       1.0  0.8117013653609106  0.38562349081798447  0.754762709993791  1.0000
  C   C23       1.0  0.6278062186634514  0.9093351282488485  0.5077865064203236  1.0000
  C   C24       1.0  0.9779864739306492  0.39127670169679624  0.7315329956636842  1.0000
  C   C25       1.0  0.017026114021874195  0.29255106263369873  0.7024748824049495  1.0000
  C   C26       1.0  0.2288171302008664  0.6319214915610232  0.271439921864733  1.0000
  C   C27       1.0  0.09191299789126357  0.6144910119418084  0.2082981471881951  1.0000
  C   C28       1.0  0.941797119037638  0.5917464285320193  0.25636547674606186  1.0000
  C   C29       1.0  0.426480856171608  0.09775472203293845  0.5593319189907574  1.0000
  C   C30       1.0  0.6277959802002115  0.8102879113475581  0.5126824285165839  1.0000
  C   C31       1.0  0.4271968760804584  0.197097432548624  0.5581446435041995  1.0000
  C   C32       1.0  0.3648651296681393  0.7780146062305067  0.4899192988210855  1.0000
  C   C33       1.0  0.549545077457637  0.20664734611434452  0.4251206394445858  1.0000
  C   C34       1.0  0.35647132457328473  0.876481979193571  0.4833035992962208  1.0000
  I   I1        1.0  0.8608699569034642  0.5075884068859723  0.9734879138238524  1.0000
  I   I2        1.0  0.4127325473586936  0.7134030898375627  0.03480784052797498  1.0000
  I   I3        1.0  0.14255294628191703  0.9154409313772832  0.45337144896357967  1.0000
  I   I4        1.0  0.6489276035396188  0.046765034178129404  0.31274118790894073  1.0000
  N   N1        1.0  0.49786813697636506  0.7464134863923705  0.5042301940207423  1.0000
  N   N2        1.0  0.48734444771724844  0.2498224476303008  0.4917585736795472  1.0000
  O   O1        1.0  0.5254853692158079  0.41487177933055364  0.6286884058243698  1.0000
  O   O2        1.0  0.3713263119465324  0.6557078031614907  0.22649474324587965  1.0000
  O   O3        1.0  0.5094837306637175  0.5777891916984998  0.37094719368300827  1.0000
  O   O4        1.0  0.48968619056965684  0.5723619143866402  0.6345247687749376  1.0000
  O   O5        1.0  0.4446283944279373  0.4140280715908418  0.36178488181650437  1.0000
  O   O6        1.0  0.711290558174689  0.44141276839669535  0.4761147989307941  1.0000
  O   O7        1.0  0.2699705813745936  0.5578709888280642  0.4921461894436589  1.0000
  O   O8        1.0  0.7324197063965343  0.6031599526393947  0.5094871366287916  1.0000
  O   O9        1.0  0.25819598596111604  0.39711931925354793  0.5159254428185135  1.0000
  O   O10       1.0  0.7810196372208795  0.48383719752297344  0.7711516282561559  1.0000
