data_image0
_chemical_formula_structural       Co2H16C20N16
_chemical_formula_sum              "Co2 H16 C20 N16"
_cell_length_a       7.132866548337359
_cell_length_b       8.812358213292526
_cell_length_c       9.929988953809652
_cell_angle_alpha    111.029234149408
_cell_angle_beta     101.97307913207932
_cell_angle_gamma    101.4674367984979

_space_group_name_H-M_alt    "P 1"
_space_group_IT_number       1

loop_
  _space_group_symop_operation_xyz
  'x, y, z'

loop_
  _atom_site_type_symbol
  _atom_site_label
  _atom_site_symmetry_multiplicity
  _atom_site_fract_x
  _atom_site_fract_y
  _atom_site_fract_z
  _atom_site_occupancy
  Co  Co1       1.0  0.12076927974729296  0.3895134219949981  0.3916683608636333  1.0000
  Co  Co2       1.0  0.8792273327622481  0.6104972321921384  0.6083339309077189  1.0000
  H   H1        1.0  0.947572393580671  0.20476121751246984  0.5570257596869864  1.0000
  H   H2        1.0  0.05242182067046732  0.7952430676522725  0.44297410413859234  1.0000
  H   H3        1.0  0.688018462741212  0.924397066492766  0.4762633249942211  1.0000
  H   H4        1.0  0.31197378272392473  0.07560975713185775  0.5237430991837186  1.0000
  H   H5        1.0  0.5053922658063071  0.7514318948275972  0.19661191251129406  1.0000
  H   H6        1.0  0.49461557695040165  0.2485669139710681  0.8033963347174051  1.0000
  H   H7        1.0  0.5936016665869346  0.8620390353661948  0.014113110906187405  1.0000
  H   H8        1.0  0.4063994516508059  0.1379496054183917  0.9858938359381854  1.0000
  H   H9        1.0  0.700880169664593  0.9791974481996705  0.8731935920161007  1.0000
  H   H10       1.0  0.2991277818490373  0.020801444787892403  0.1268066422922018  1.0000
  H   H11       1.0  0.8587777969164492  0.12850165127362354  0.7375143031641472  1.0000
  H   H12       1.0  0.14122733316514766  0.8714934788676345  0.2624812592734145  1.0000
  H   H13       1.0  0.15452587953011226  0.3970669483091955  0.8910037787395523  1.0000
  H   H14       1.0  0.8454650336373036  0.6029323002047633  0.10899092762613086  1.0000
  H   H15       1.0  0.2658377345169214  0.5033585611965636  0.17191263330647646  1.0000
  H   H16       1.0  0.7341551495360858  0.4966419867436329  0.828077760831235  1.0000
  C   C1        1.0  0.8646856862983013  0.12400252210768066  0.4386511447629289  1.0000
  C   C2        1.0  0.13531134728527403  0.8760016880172473  0.5613511428089879  1.0000
  C   C3        1.0  0.7185900600083384  0.9697214259062152  0.39201404824570585  1.0000
  C   C4        1.0  0.28140456592140584  0.030284080444943105  0.6079913092442765  1.0000
  C   C5        1.0  0.6179816874772966  0.8743812734233956  0.23767861420445507  1.0000
  C   C6        1.0  0.38202334954158346  0.12561762093869794  0.7623262076628521  1.0000
  C   C7        1.0  0.6670926272777535  0.9369361037319381  0.1351334172472819  1.0000
  C   C8        1.0  0.33291239404692147  0.0630589422204224  0.8648701581106834  1.0000
  C   C9        1.0  0.8171473339054953  0.09125253692054261  0.18873285207984478  1.0000
  C   C10       1.0  0.18285633213141494  0.9087425886461704  0.8112655049447497  1.0000
  C   C11       1.0  0.8941035355244507  0.16571864322586558  0.0945230070175995  1.0000
  C   C12       1.0  0.10590059446993647  0.8342739077356002  0.9054745890868078  1.0000
  C   C13       1.0  0.8232982220573177  0.0974453803848832  0.9366909430700119  1.0000
  C   C14       1.0  0.1767145311693739  0.902550909626598  0.06330415301721366  1.0000
  C   C15       1.0  0.9133305472898172  0.18079173187813075  0.8606263892010091  1.0000
  C   C16       1.0  0.08667695176136188  0.8192059083521813  0.13937135628803793  1.0000
  C   C17       1.0  0.07485375029800422  0.32868083536389053  0.9443277357430943  1.0000
  C   C18       1.0  0.9251461956807389  0.6713195355003807  0.05566771614542193  1.0000
  C   C19       1.0  0.13984894776930898  0.3896029199020675  0.10116848035547586  1.0000
  C   C20       1.0  0.8601495749485933  0.6103974779585004  0.8988267612749186  1.0000
  N   N1        1.0  0.9144951668809254  0.1844497122624418  0.34003083398208384  1.0000
  N   N2        1.0  0.0854975812259369  0.8155507304416363  0.659969576306125  1.0000
  N   N3        1.0  0.051546935563571594  0.3116470427453494  0.1760825684830394  1.0000
  N   N4        1.0  0.948452953937121  0.6883494481383539  0.8239146417412897  1.0000
  N   N5        1.0  0.13698831014893637  0.4663438468247351  0.603338362467781  1.0000
  N   N6        1.0  0.8630136130141677  0.5336693371241452  0.3966595215659439  1.0000
  N   N7        1.0  0.2791323028419867  0.529482505563422  0.7165517068159346  1.0000
  N   N8        1.0  0.7208681384826434  0.4705229875150608  0.2834454771710853  1.0000
  N   N9        1.0  0.404110460978238  0.5902413544883347  0.8338826914716578  1.0000
  N   N10       1.0  0.5958831878543478  0.4097539179580068  0.16611820020628434  1.0000
  N   N11       1.0  0.3188779044256051  0.5945028396168865  0.42529609556198267  1.0000
  N   N12       1.0  0.6811143745275317  0.4055155187133225  0.5747150697590371  1.0000
  N   N13       1.0  0.48203383155919255  0.6639218113261551  0.5160831919255884  1.0000
  N   N14       1.0  0.5179683882268263  0.3360809959618792  0.48392145431976996  1.0000
  N   N15       1.0  0.353912687346515  0.260251743564382  0.39883346603684805  1.0000
  N   N16       1.0  0.6460914677375058  0.7397369905581856  0.6011598787130695  1.0000
