data_image0
_chemical_formula_structural       Sm4H44C68O24
_chemical_formula_sum              "Sm4 H44 C68 O24"
_cell_length_a       6.774017161918615
_cell_length_b       13.040687432
_cell_length_c       17.142
_cell_angle_alpha    90.0
_cell_angle_beta     93.81496560147735
_cell_angle_gamma    90.0

_space_group_name_H-M_alt    "P 1"
_space_group_IT_number       1

loop_
  _space_group_symop_operation_xyz
  'x, y, z'

loop_
  _atom_site_type_symbol
  _atom_site_label
  _atom_site_symmetry_multiplicity
  _atom_site_fract_x
  _atom_site_fract_y
  _atom_site_fract_z
  _atom_site_occupancy
  Sm  Sm1       1.0  0.6166320196900159  0.6274538855920612  0.5481618102360528  1.0000
  Sm  Sm2       1.0  0.8833649968095045  0.1274534037156272  0.4518392197090223  1.0000
  Sm  Sm3       1.0  0.3833654981405559  0.3725455444993315  0.4518408079690204  1.0000
  Sm  Sm4       1.0  0.1166325210210672  0.8725452595450278  0.5481593149585393  1.0000
  H   H1        1.0  0.1162360130594067  0.7857131806454589  0.7925322756097304  1.0000
  H   H2        1.0  0.3837694036388157  0.2857157660919825  0.2074686251800486  1.0000
  H   H3        1.0  0.883764463785802  0.21428624944593372  0.20747100375773195  1.0000
  H   H4        1.0  0.6162340322210298  0.7142874981531122  0.7925288983622779  1.0000
  H   H5        1.0  0.0476075865310506  0.7552101874501888  0.9306193574200847  1.0000
  H   H6        1.0  0.4523978301671718  0.2552143065581944  0.0693809600071944  1.0000
  H   H7        1.0  0.9523943698214765  0.2447884758104664  0.0693833774848187  1.0000
  H   H8        1.0  0.5476070851999992  0.7447904913483825  0.9306166024350802  1.0000
  H   H9        1.0  0.7573701534698145  0.47105185459214033  0.862981056608902  1.0000
  H   H10       1.0  0.7426179859857811  0.9710508028070991  0.1370162397615076  1.0000
  H   H11       1.0  0.2426303233753941  0.5289475754992523  0.13701988930855444  1.0000
  H   H12       1.0  0.2573780523374651  0.0289516946072581  0.8629810892811136  1.0000
  H   H13       1.0  0.8264971739648814  0.5037893925652028  0.7245780676285705  1.0000
  H   H14       1.0  0.6734909654907141  0.0037858433658045  0.275419228741832  1.0000
  H   H15       1.0  0.17350478238764566  0.4962123380184096  0.2754240839138262  1.0000
  H   H16       1.0  0.3265021138178952  0.9962151203870705  0.7245768557758937  1.0000
  H   H17       1.0  0.7673878975310302  0.5169957515779515  0.9933436197494246  1.0000
  H   H18       1.0  0.7326135574904455  0.0169991038552197  0.0066557768079747  1.0000
  H   H19       1.0  0.232614058821504  0.48300214485195886  0.006658531792979302  1.0000
  H   H20       1.0  0.2673883988620815  0.9830026267283998  0.9933428745594172  1.0000
  H   H21       1.0  0.9224964859063931  0.7316393441489524  0.0412247521395912  1.0000
  H   H22       1.0  0.5775064486224011  0.23164346325695825  0.9587746833177491  1.0000
  H   H23       1.0  0.0775099089680964  0.2683577854502204  0.9587775161026358  1.0000
  H   H24       1.0  0.422495507730126  0.7683582673266544  0.0412222179621438  1.0000
  H   H25       1.0  0.9321014474254312  0.7677102953509376  0.1775331766983612  1.0000
  H   H26       1.0  0.567901487103363  0.2677105803052413  0.8224650920339729  1.0000
  H   H27       1.0  0.0679005089270959  0.232289134740455  0.8224683914815358  1.0000
  H   H28       1.0  0.4321004692491641  0.7322880829554139  0.1775318092459131  1.0000
  H   H29       1.0  0.8492786276725467  0.7246887903171384  0.3130273581357913  1.0000
  H   H30       1.0  0.6507228273489291  0.22468524111774002  0.686972038421601  1.0000
  H   H31       1.0  0.1507218491726618  0.2753137070972187  0.6869753378691641  1.0000
  H   H32       1.0  0.3492791290035981  0.775313422142915  0.31302486285828485  1.0000
  H   H33       1.0  0.5620603922054599  0.4488935135148964  0.22892276228732567  1.0000
  H   H34       1.0  0.9379410628160088  0.9488901612376283  0.7710807178075783  1.0000
  H   H35       1.0  0.4379400846397488  0.5511089838994607  0.7710816838051359  1.0000
  H   H36       1.0  0.0620579345218815  0.0511069683615446  0.2289172723974247  1.0000
  H   H37       1.0  0.6370181510471937  0.4911090794404345  0.09374039801574702  1.0000
  H   H38       1.0  0.8629877424962373  0.9911118618090953  0.9062620320539879  1.0000
  H   H39       1.0  0.3629882438272958  0.5088895838202134  0.9062636203139932  1.0000
  H   H40       1.0  0.1370127343489713  0.0088875682822973  0.0937359970509561  1.0000
  H   H41       1.0  0.5485021871283706  0.8701864881872723  0.4510385734891998  1.0000
  H   H42       1.0  0.9514918703564988  0.3701883068030583  0.5489623786559863  1.0000
  H   H43       1.0  0.4514968102095125  0.1298091077504182  0.5489582499907968  1.0000
  H   H44       1.0  0.0485026884594291  0.6298111232883343  0.4510407451117047  1.0000
  C   C1        1.0  0.000577007854659  0.6733747776556598  0.6666590865069538  1.0000
  C   C2        1.0  0.4994284088435704  0.17337582944070823  0.3333400641953261  1.0000
  C   C3        1.0  0.9994279075125121  0.3266246524357328  0.3333431428353394  1.0000
  C   C4        1.0  0.5005705884943197  0.8266259011429113  0.6666573426471772  1.0000
  C   C5        1.0  0.9748029876845906  0.6473600447844846  0.7500262253743629  1.0000
  C   C6        1.0  0.5251969878295597  0.1473603297387882  0.24997313228308835  1.0000
  C   C7        1.0  0.0251989686679366  0.3526401521376457  0.24997650953053352  1.0000
  C   C8        1.0  0.47480200950832346  0.8526421676755689  0.7500231078344088  1.0000
  C   C9        1.0  0.0383118420418143  0.7169207949159572  0.8089591282860413  1.0000
  C   C10       1.0  0.4616906156417642  0.2169233803624806  0.1910411113413488  1.0000
  C   C11       1.0  0.9616915938180313  0.2830778683446908  0.19104364551880343  1.0000
  C   C12       1.0  0.538308381696126  0.7830791170518694  0.8089562955011544  1.0000
  C   C13       1.0  0.9983182770227899  0.6995413430134577  0.8860662721598302  1.0000
  C   C14       1.0  0.5016831779986859  0.1995446952907258  0.11393370776006861  1.0000
  C   C15       1.0  0.0016836793297372  0.3004573202471974  0.1139352960200668  1.0000
  C   C16       1.0  0.49831729884652287  0.800458568954376  0.8860643213448827  1.0000
  C   C17       1.0  0.8924476922447084  0.6116211312931341  0.9067700110594361  1.0000
  C   C18       1.0  0.6075508037621233  0.1116229499089201  0.09322872433557451  1.0000
  C   C19       1.0  0.1075572231224555  0.3883775319675209  0.09323105155785072  1.0000
  C   C20       1.0  0.3924467140684413  0.888379547505437  0.906769810331987  1.0000
  C   C21       1.0  0.8362234550841308  0.5402828675051978  0.8475254304367754  1.0000
  C   C22       1.0  0.6637691228934273  0.0402831524595015  0.15247314935846393  1.0000
  C   C23       1.0  0.16377702176107786  0.4597165625861948  0.15247609884318084  1.0000
  C   C24       1.0  0.33622839493714446  0.9597193449548486  0.847524801946598  1.0000
  C   C25       1.0  0.8750767968049331  0.5580488021009131  0.770165812786182  1.0000
  C   C26       1.0  0.6249172606799434  0.0580490870552168  0.22983280590899827  1.0000
  C   C27       1.0  0.12492663905491241  0.4419506279904866  0.2298363776561558  1.0000
  C   C28       1.0  0.3750772981359916  0.9419526435284027  0.7701639008711751  1.0000
  C   C29       1.0  0.8344066200956278  0.5922233808816557  0.985453976788989  1.0000
  C   C30       1.0  0.6655948349258481  0.0922274999896615  0.014545419768410303  1.0000
  C   C31       1.0  0.1655953362568994  0.4077745155482546  0.014548758115914502  1.0000
  C   C32       1.0  0.3344086009339975  0.9077757642554332  0.9854521037739233  1.0000
  C   C33       1.0  0.85315049832802  0.6565988215459271  0.0475959659607668  1.0000
  C   C34       1.0  0.6468524362007742  0.1566029406539329  0.9524040528590805  1.0000
  C   C35       1.0  0.146854417039151  0.3433983080532457  0.9524068467440258  1.0000
  C   C36       1.0  0.3531509996590714  0.8433987899296795  0.04759347068325331  1.0000
  C   C37       1.0  0.7933562100051716  0.6324321507593353  0.1254287950056323  1.0000
  C   C38       1.0  0.706648204030941  0.1324347362058589  0.8745712627141489  1.0000
  C   C39       1.0  0.20664870536199234  0.3675657456705751  0.8745740176991532  1.0000
  C   C40       1.0  0.2933507933069492  0.8675654607162713  0.1254261441283546  1.0000
  C   C41       1.0  0.8493037792969814  0.698049090392459  0.1885740467361927  1.0000
  C   C42       1.0  0.6506991552318127  0.1980493753467627  0.8114253887211476  1.0000
  C   C43       1.0  0.1506996565628711  0.3019511065296712  0.811428727068652  1.0000
  C   C44       1.0  0.349301321613396  0.8019500547446299  0.1885720570212968  1.0000
  C   C45       1.0  0.8042217117605333  0.6740258169543409  0.2644742475102504  1.0000
  C   C46       1.0  0.6957797432609354  0.1740238014164248  0.7355257324096487  1.0000
  C   C47       1.0  0.19577728557735702  0.3259751467985339  0.735528409594764  1.0000
  C   C48       1.0  0.3042207335842733  0.8259748618442302  0.2644717133327958  1.0000
  C   C49       1.0  0.7011947400507808  0.58356202766781  0.2791729481104497  1.0000
  C   C50       1.0  0.7988067149706879  0.0835607789606314  0.7208281985344556  1.0000
  C   C51       1.0  0.2988057367944279  0.4164381692543273  0.7208297478945057  1.0000
  C   C52       1.0  0.2011937618745208  0.9164386511307684  0.2791698305704955  1.0000
  C   C53       1.0  0.641594267186811  0.5188445804932798  0.21647592963403645  1.0000
  C   C54       1.0  0.858407187834665  0.0188433317861012  0.7835269670983678  1.0000
  C   C55       1.0  0.3584076891657162  0.4811563832595951  0.7835279719958663  1.0000
  C   C56       1.0  0.1415903299959069  0.9811545646438163  0.2164715675691937  1.0000
  C   C57       1.0  0.6848521021981497  0.5431508144746431  0.1410131228312537  1.0000
  C   C58       1.0  0.8151523118379629  0.043152633090421916  0.8589886849760404  1.0000
  C   C59       1.0  0.3151528131690142  0.4568478487860119  0.8589902732360386  1.0000
  C   C60       1.0  0.1848466854999273  0.9568467970009706  0.14100930522896252  1.0000
  C   C61       1.0  0.6520055601950433  0.5534800245490601  0.35944655337844017  1.0000
  C   C62       1.0  0.847994415319107  0.053476475349661705  0.640554554366517  1.0000
  C   C63       1.0  0.3479919576355215  0.4465224728652971  0.640556064826626  1.0000
  C   C64       1.0  0.1520045820187832  0.9465214210802486  0.35944226911348665  1.0000
  C   C65       1.0  0.7040516686849898  0.869841414354056  0.47499068436508923  1.0000
  C   C66       1.0  0.7959423887998867  0.36984169930835264  0.5250102677800967  1.0000
  C   C67       1.0  0.295945849145582  0.1301564820758614  0.5250084336649721  1.0000
  C   C68       1.0  0.2040521700160411  0.6301569639522954  0.4749911059000879  1.0000
  O   O1        1.0  0.9240958333189155  0.613134855174863  0.6134847472087159  1.0000
  O   O2        1.0  0.5759011831805978  0.11313437329842913  0.3865139492863464  1.0000
  O   O3        1.0  0.0759031640189747  0.3868653417472672  0.38651732653379883  1.0000
  O   O4        1.0  0.4240948551426484  0.8868665904544457  0.6134827963937682  1.0000
  O   O5        1.0  0.0900102663116442  0.7556741200481838  0.6518608194544555  1.0000
  O   O6        1.0  0.4099951503865782  0.2556751718332251  0.3481394979728237  1.0000
  O   O7        1.0  0.9099931695482013  0.2443245432124712  0.348140204262883  1.0000
  O   O8        1.0  0.5900053264586305  0.7443257919196498  0.6518602812196264  1.0000
  O   O9        1.0  0.6939362771406792  0.6163417413316027  0.41540725958027025  1.0000
  O   O10       1.0  0.8060651778807966  0.11633895896294182  0.5845944704271346  1.0000
  O   O11       1.0  0.3060641997045296  0.3836592224212724  0.5845960197871918  1.0000
  O   O12       1.0  0.1939338194570936  0.8836597042977132  0.41540351977786844  1.0000
  O   O13       1.0  0.5691309576859709  0.46667325106393065  0.3666585426096631  1.0000
  O   O14       1.0  0.9308690178281793  0.9666691319559249  0.633342565135294  1.0000
  O   O15       1.0  0.43086656014459374  0.533330013181164  0.6333440755954101  1.0000
  O   O16       1.0  0.0691285000023925  0.0333287644739855  0.3666553861697609  1.0000
  O   O17       1.0  0.7776630758658598  0.7896040798227163  0.5079300790031027  1.0000
  O   O18       1.0  0.7223339406336536  0.2896035979462752  0.49207036757946554  1.0000
  O   O19       1.0  0.22233444196471197  0.21039458343793885  0.4920696223894581  1.0000
  O   O20       1.0  0.2776650567042296  0.7103950653143727  0.507929956075543  1.0000
  O   O21       1.0  0.8087046189390108  0.9495665059507417  0.46884541033622174  1.0000
  O   O22       1.0  0.6912864795312217  0.4495667909050455  0.5311548806465752  1.0000
  O   O23       1.0  0.1912914193842354  0.0504313904791687  0.5311519187063922  1.0000
  O   O24       1.0  0.30870659977738774  0.5504326391863472  0.46884703749616824  1.0000
