data_image0
_chemical_formula_structural       Sm2H32C30O22
_chemical_formula_sum              "Sm2 H32 C30 O22"
_cell_length_a       7.580715655521117
_cell_length_b       9.457382792442639
_cell_length_c       13.051761398714286
_cell_angle_alpha    103.06968161507703
_cell_angle_beta     99.40820109516623
_cell_angle_gamma    107.5873771773202

_space_group_name_H-M_alt    "P 1"
_space_group_IT_number       1

loop_
  _space_group_symop_operation_xyz
  'x, y, z'

loop_
  _atom_site_type_symbol
  _atom_site_label
  _atom_site_symmetry_multiplicity
  _atom_site_fract_x
  _atom_site_fract_y
  _atom_site_fract_z
  _atom_site_occupancy
  Sm  Sm1       1.0  0.8514953601001738  0.283607585611314  0.4873213565550358  1.0000
  Sm  Sm2       1.0  0.14850504867510486  0.7163994390651993  0.5126824552730228  1.0000
  H   H1        1.0  0.4199021339999335  0.2806954619525898  0.3226871178629196  1.0000
  H   H2        1.0  0.580091083536125  0.7193136106066832  0.6773172386975901  1.0000
  H   H3        1.0  0.22304330017274046  0.25464140112114114  0.2189989054489132  1.0000
  H   H4        1.0  0.776951856286182  0.7453620344644917  0.7810069604117943  1.0000
  H   H5        1.0  0.1428109868030276  0.29723688126911446  0.08579746096948072  1.0000
  H   H6        1.0  0.8571890334951389  0.7027494874465176  0.914195202221208  1.0000
  H   H7        1.0  0.07320790521436038  0.3803212134598795  0.92592831567368  1.0000
  H   H8        1.0  0.9267759222842998  0.6196714769766132  0.07406566708254303  1.0000
  H   H9        1.0  0.5492155326275993  0.8105846137365802  0.07096479578080313  1.0000
  H   H10       1.0  0.45076775727404333  0.18941033530769857  0.9290279893529743  1.0000
  H   H11       1.0  0.6136409768600259  0.7265452970718868  0.2389165642293136  1.0000
  H   H12       1.0  0.3863411559993679  0.2734565023800997  0.761081107875235  1.0000
  H   H13       1.0  0.018174080637976354  0.5114509533807875  0.7990839060262545  1.0000
  H   H14       1.0  0.9818080107897059  0.4885508392908091  0.2009129951839199  1.0000
  H   H15       1.0  0.20506801440262018  0.437326820234901  0.7838212292103606  1.0000
  H   H16       1.0  0.794916871063414  0.5626750784239716  0.21617744191985372  1.0000
  H   H17       1.0  0.9723501030381954  0.94977897024409  0.6951340379627667  1.0000
  H   H18       1.0  0.027642395582283496  0.0502117388640642  0.304861826809784  1.0000
  H   H19       1.0  0.14287104694776076  0.132286094293832  0.7801118571461956  1.0000
  H   H20       1.0  0.8571407275173398  0.867696099790578  0.21988103023706174  1.0000
  H   H21       1.0  0.1606693809411083  0.9508070533006785  0.8510182775997776  1.0000
  H   H22       1.0  0.8393626239544432  0.0491953239719436  0.14898646939520432  1.0000
  H   H23       1.0  0.736591158354983  0.10425683687942919  0.9788184428572819  1.0000
  H   H24       1.0  0.26344500047306246  0.8957422612342185  0.021187614841110848  1.0000
  H   H25       1.0  0.6104592108410145  0.9479565658825136  0.3447689534716574  1.0000
  H   H26       1.0  0.38954328434208924  0.05205622762697709  0.6552329203587774  1.0000
  H   H27       1.0  0.8027752161470473  0.9302621709331617  0.40815931066074274  1.0000
  H   H28       1.0  0.197221377747546  0.06973897767358747  0.5918393870499372  1.0000
  H   H29       1.0  0.42451151998637476  0.10523859403247832  0.4988910592105498  1.0000
  H   H30       1.0  0.5754882398167496  0.894760374832174  0.5011075224651266  1.0000
  H   H31       1.0  0.5070606374679301  0.2858449162095837  0.5246274288133321  1.0000
  H   H32       1.0  0.49293185253921484  0.7141526556175464  0.4753695825237614  1.0000
  C   C1        1.0  0.23099011074624093  0.3923702925386721  0.3763933561940931  1.0000
  C   C2        1.0  0.7690100822571537  0.6076435609548554  0.6236077477266448  1.0000
  C   C3        1.0  0.3305754957310257  0.34077917516089684  0.29037559580096683  1.0000
  C   C4        1.0  0.6694150192434378  0.6592229422529101  0.7096273860637012  1.0000
  C   C5        1.0  0.38672584012006433  0.5069162498425255  0.1736104749117686  1.0000
  C   C6        1.0  0.6132666127620395  0.4930778838447267  0.8263851922486793  1.0000
  C   C7        1.0  0.23325617626650802  0.41100232784258145  0.08577648600205384  1.0000
  C   C8        1.0  0.7667403019462852  0.5889919377040017  0.9142187524609612  1.0000
  C   C9        1.0  0.1946972524742705  0.4578845389588366  0.9926863003882856  1.0000
  C   C10       1.0  0.8052925720963204  0.5421095158627196  0.007310680429625937  1.0000
  C   C11       1.0  0.3104402644202083  0.6005427911691328  0.9865120133503638  1.0000
  C   C12       1.0  0.6895474193908484  0.39945578211752064  0.013487854417618957  1.0000
  C   C13       1.0  0.45965741597552784  0.6995495277892658  0.07650714266146254  1.0000
  C   C14       1.0  0.5403333465739806  0.3004502835539924  0.9234916405650395  1.0000
  C   C15       1.0  0.49569440484945193  0.6531993984439098  0.16897706947919036  1.0000
  C   C16       1.0  0.5042878512898596  0.3468000745963451  0.8310140913040629  1.0000
  C   C17       1.0  0.17085207518734086  0.5442136479540879  0.7983124688805178  1.0000
  C   C18       1.0  0.82913128465772  0.4557916087294487  0.20168357788882224  1.0000
  C   C19       1.0  0.19450967934583482  0.605873766594428  0.7020829748271923  1.0000
  C   C20       1.0  0.8054848851643613  0.39414221489707313  0.2979226423635027  1.0000
  C   C21       1.0  0.9408440254012261  0.14710270155445926  0.6545137841534016  1.0000
  C   C22       1.0  0.05916580684955622  0.8528909076160005  0.3454869912163474  1.0000
  C   C23       1.0  0.9905456549994655  0.0702302594869266  0.7381441438168468  1.0000
  C   C24       1.0  0.009462701675388884  0.9297598517696171  0.2618536315218591  1.0000
  C   C25       1.0  0.94117047676135  0.03389621693040821  0.9041854768667791  1.0000
  C   C26       1.0  0.058858825572606646  0.9660992051967555  0.09581789543236145  1.0000
  C   C27       1.0  0.09104798650471925  0.9758017215047871  0.9159877167702604  1.0000
  C   C28       1.0  0.9089808610956354  0.0241959727909489  0.08401599969518259  1.0000
  C   C29       1.0  0.85018140571826  0.0566314308641367  0.9879278617707996  1.0000
  C   C30       1.0  0.1498475300674046  0.9433651923858125  0.012085647205538105  1.0000
  O   O1        1.0  0.10332765374578662  0.2860489216957589  0.39551855733057556  1.0000
  O   O2        1.0  0.8966704528497826  0.7139591629647838  0.6044844845877932  1.0000
  O   O3        1.0  0.2815340596963125  0.5365762908469663  0.42356130656825297  1.0000
  O   O4        1.0  0.7184615789927025  0.46343282667603364  0.5764378818629226  1.0000
  O   O5        1.0  0.4517639475075796  0.46771274764906673  0.2644213961905137  1.0000
  O   O6        1.0  0.5482266907467948  0.5322870433530085  0.735575074352859  1.0000
  O   O7        1.0  0.2903417922486398  0.6544578060381666  0.8969785989461129  1.0000
  O   O8        1.0  0.7096407910376925  0.3455451526047284  0.10301930227441153  1.0000
  O   O9        1.0  0.2829073641324272  0.7455738069001114  0.7100563888506173  1.0000
  O   O10       1.0  0.7170805682688977  0.2544248070689008  0.2899481042836101  1.0000
  O   O11       1.0  0.10891655531111873  0.5052703717340992  0.6077197302090198  1.0000
  O   O12       1.0  0.8910828197018292  0.4947411769383906  0.39228245726851446  1.0000
  O   O13       1.0  0.048474594191162616  0.1591230816375173  0.5871843692257102  1.0000
  O   O14       1.0  0.951525169918625  0.8408724558676397  0.4128136391676946  1.0000
  O   O15       1.0  0.8038302882128078  0.1968149246072386  0.6489003626430757  1.0000
  O   O16       1.0  0.19618785888133053  0.8031995839015879  0.35110839128605426  1.0000
  O   O17       1.0  0.8772153786275965  0.07419416562067478  0.814057920513406  1.0000
  O   O18       1.0  0.12280727006416484  0.9258010457814552  0.1859471941406313  1.0000
  O   O19       1.0  0.7135317828294703  0.9926926362228842  0.41106460642931353  1.0000
  O   O20       1.0  0.2864756928899014  0.007312320229679897  0.5889363479831857  1.0000
  O   O21       1.0  0.4946777635121009  0.18865401518374367  0.4714355321897798  1.0000
  O   O22       1.0  0.5053252407563065  0.8113462188590929  0.5285650485219122  1.0000
