data_image0
_chemical_formula_structural       Zn2H32C32N6O14
_chemical_formula_sum              "Zn2 H32 C32 N6 O14"
_cell_length_a       9.517210301571984
_cell_length_b       10.871902649784897
_cell_length_c       19.068636158147438
_cell_angle_alpha    89.93142731703854
_cell_angle_beta     90.42260635920866
_cell_angle_gamma    90.29946727328739

_space_group_name_H-M_alt    "P 1"
_space_group_IT_number       1

loop_
  _space_group_symop_operation_xyz
  'x, y, z'

loop_
  _atom_site_type_symbol
  _atom_site_label
  _atom_site_symmetry_multiplicity
  _atom_site_fract_x
  _atom_site_fract_y
  _atom_site_fract_z
  _atom_site_occupancy
  Zn  Zn1       1.0  0.35297757014509307  0.4942067039470359  0.500976986582387  1.0000
  Zn  Zn2       1.0  0.646882679884911  0.49489510747714854  0.499471399171746  1.0000
  H   H1        1.0  0.2773047195454694  0.5472749629564362  0.2813736126410973  1.0000
  H   H2        1.0  0.7255590481267049  0.5095823322798764  0.2780290823276487  1.0000
  H   H3        1.0  0.8768716930922126  0.34943583589253535  0.4263657161919737  1.0000
  H   H4        1.0  0.12494540700519957  0.34003454984364356  0.43287619343543327  1.0000
  H   H5        1.0  0.8695031658365124  0.3038040998826047  0.514824606536976  1.0000
  H   H6        1.0  0.11767606778713711  0.30650768850615145  0.5240479307605382  1.0000
  H   H7        1.0  0.8717642248108675  0.5654475198660477  0.3958547031505617  1.0000
  H   H8        1.0  0.12069720099291462  0.5496883511005775  0.394081621060792  1.0000
  H   H9        1.0  0.8809412887785726  0.6776424353220917  0.4628932772608323  1.0000
  H   H10       1.0  0.13132954106738026  0.6717274315849692  0.4549617371982109  1.0000
  H   H11       1.0  0.27586680131803115  0.5946621870917282  0.1527549234018295  1.0000
  H   H12       1.0  0.7264124620579437  0.5621191607816485  0.1499126465956948  1.0000
  H   H13       1.0  0.2722737191281936  0.5650369830187428  0.8508056654161748  1.0000
  H   H14       1.0  0.7239338492654  0.5849639840362924  0.8499263413026128  1.0000
  H   H15       1.0  0.2725970542149554  0.5175088098832744  0.7220655520461746  1.0000
  H   H16       1.0  0.7223408539944743  0.5421331235997613  0.7206938886107679  1.0000
  H   H17       1.0  0.5368276008614431  0.0702378709663591  0.6084421310173553  1.0000
  H   H18       1.0  0.7215088114203921  0.10269923375851416  0.5391700089777841  1.0000
  H   H19       1.0  0.4356834818892422  0.8712361317010033  0.6068294243911296  1.0000
  H   H20       1.0  0.6948015414916353  0.892661903628671  0.5564352949556692  1.0000
  H   H21       1.0  0.301903452934404  0.9148660603233125  0.5467623591629263  1.0000
  H   H22       1.0  0.7198184084619754  0.8770332394621574  0.4651849048855112  1.0000
  H   H23       1.0  0.2353741841253054  0.9378514026043024  0.418495538651932  1.0000
  H   H24       1.0  0.49581419907000424  0.9315859572230492  0.3316257620130187  1.0000
  H   H25       1.0  0.8731147540653056  0.6162874346574724  0.5841391215676097  1.0000
  H   H26       1.0  0.1221247507179086  0.6263151913004988  0.5785320786120778  1.0000
  H   H27       1.0  0.8794033530525739  0.458364319545218  0.6060713232520882  1.0000
  H   H28       1.0  0.12813207687936057  0.47210594886009  0.6084962797337709  1.0000
  H   H29       1.0  0.3083426677607477  0.10165506851682689  0.6391768612143807  1.0000
  H   H30       1.0  0.6793668366739567  0.07385253929138  0.393901263624052  1.0000
  H   H31       1.0  0.27501150667546176  0.17638762260344262  0.46585748359842677  1.0000
  H   H32       1.0  0.45681764873441477  0.2087675210120706  0.3749962942195424  1.0000
  C   C1        1.0  0.5086064014952356  0.2546399845409012  0.5029299940305806  1.0000
  C   C2        1.0  0.5006259092393107  0.6084385137963082  0.068357427075739  1.0000
  C   C3        1.0  0.3704440800080278  0.5588091360848251  0.8220197728232747  1.0000
  C   C4        1.0  0.6255914366145062  0.5704756564056908  0.8214949173739399  1.0000
  C   C5        1.0  0.3706798593751728  0.5328837227081207  0.7506214327044205  1.0000
  C   C6        1.0  0.6247087985123373  0.5463205642782255  0.7500202826272043  1.0000
  C   C7        1.0  0.4975237630651179  0.5278659765449589  0.7138310789092941  1.0000
  C   C8        1.0  0.49809188609153676  0.5785762300813387  0.8580430058637276  1.0000
  C   C9        1.0  0.45101240227378275  0.06061650125392497  0.5694242873049475  1.0000
  C   C10       1.0  0.6616788481203386  0.061536360436747393  0.49557664922977546  1.0000
  C   C11       1.0  0.41441280315078893  0.9238919555448318  0.5587021583914406  1.0000
  C   C12       1.0  0.6534916242583506  0.9200849885286356  0.5046876612756107  1.0000
  C   C13       1.0  0.4210013618826665  0.0676910750737392  0.4362295332929023  1.0000
  C   C14       1.0  0.5102387854088234  0.11402767452894842  0.49982020981897785  1.0000
  C   C15       1.0  0.5014683726387545  0.8720071642678418  0.4978181250964795  1.0000
  C   C16       1.0  0.5001136966189678  0.4992901227625524  0.36425503022567085  1.0000
  C   C17       1.0  0.43635408596699676  0.9226402414126939  0.4280028437734487  1.0000
  C   C18       1.0  0.9170321676677347  0.3707666970233203  0.4790527029066141  1.0000
  C   C19       1.0  0.07917739184571099  0.36885646615387196  0.4828764204530813  1.0000
  C   C20       1.0  0.9195481261598105  0.5870305138409292  0.4469541661425467  1.0000
  C   C21       1.0  0.08200633705401832  0.5818851667970719  0.4448465745122618  1.0000
  C   C22       1.0  0.9194046326199017  0.5278556201198228  0.569405343870379  1.0000
  C   C23       1.0  0.08157459687664212  0.5330788641471712  0.5689119873936548  1.0000
  C   C24       1.0  0.49712099219783573  0.7313932142757408  0.49773153894354755  1.0000
  C   C25       1.0  0.49852462247547896  0.5070196160557502  0.6361099411164162  1.0000
  C   C26       1.0  0.37459311092509046  0.5491379058858213  0.2517119033588173  1.0000
  C   C27       1.0  0.627906104475791  0.528649691207221  0.25001233905867787  1.0000
  C   C28       1.0  0.37384754429189115  0.5760395155096275  0.1805465742838166  1.0000
  C   C29       1.0  0.6283687236078208  0.5573326455909678  0.17894757472767964  1.0000
  C   C30       1.0  0.5011156265629495  0.5811192035908234  0.1435505751249124  1.0000
  C   C31       1.0  0.501281145428642  0.5250007409500412  0.2870581886516206  1.0000
  C   C32       1.0  0.49880970081617454  0.606430305219618  0.9332128695829384  1.0000
  N   N1        1.0  0.6246608095140048  0.626573231540675  0.0352853634114112  1.0000
  N   N2        1.0  0.3761165732441256  0.6261977352973177  0.035044434825636  1.0000
  N   N3        1.0  0.6235457475912086  0.6247816924578158  0.9662966390438895  1.0000
  N   N4        1.0  0.37506409264219087  0.6257622186503297  0.9660457787617817  1.0000
  N   N5        1.0  0.8651632223454373  0.49531141924280314  0.4983895192263361  1.0000
  N   N6        1.0  0.1345214611228798  0.49406779003261647  0.49912216049199293  1.0000
  O   O1        1.0  0.39484070930430454  0.3064682071421174  0.48211245417189724  1.0000
  O   O2        1.0  0.6162940590174061  0.3108492468639809  0.525010346703148  1.0000
  O   O3        1.0  0.38403994150259996  0.5168618653977716  0.3954290381086025  1.0000
  O   O4        1.0  0.6137679554620946  0.4625625283692968  0.3932434684236341  1.0000
  O   O5        1.0  0.3835707420981791  0.6795623624977408  0.5168203518404368  1.0000
  O   O6        1.0  0.6085728812155152  0.6760882013682872  0.47959310263050264  1.0000
  O   O7        1.0  0.38523144429117906  0.4691920208031205  0.6071440919408602  1.0000
  O   O8        1.0  0.6131717496290179  0.5309985740643981  0.6048469835143635  1.0000
  O   O9        1.0  0.3034205518946039  0.8710417817973378  0.412653218318944  1.0000
  O   O10       1.0  0.531122183648442  0.8924661814471972  0.3743085625062719  1.0000
  O   O11       1.0  0.3337997824799714  0.13184906163900928  0.5929343735479833  1.0000
  O   O12       1.0  0.7362720266444924  0.0983778494882444  0.4345394157012237  1.0000
  O   O13       1.0  0.2769950886664887  0.09270342330653138  0.44561816581316543  1.0000
  O   O14       1.0  0.4687971545240758  0.11974120106525987  0.3716686471701323  1.0000
