data_image0
_chemical_formula_structural       CoH28C30N8O6
_chemical_formula_sum              "Co1 H28 C30 N8 O6"
_cell_length_a       7.52203469939326
_cell_length_b       8.68017198535066
_cell_length_c       11.149680308280429
_cell_angle_alpha    89.91146449030624
_cell_angle_beta     79.58398295351493
_cell_angle_gamma    80.45347886265488

_space_group_name_H-M_alt    "P 1"
_space_group_IT_number       1

loop_
  _space_group_symop_operation_xyz
  'x, y, z'

loop_
  _atom_site_type_symbol
  _atom_site_label
  _atom_site_symmetry_multiplicity
  _atom_site_fract_x
  _atom_site_fract_y
  _atom_site_fract_z
  _atom_site_occupancy
  Co  Co1       1.0  0.9999880627696739  0.5000013938808934  2.7536015783559317e-07  1.0000
  H   H1        1.0  0.3353721058023496  0.24381107378802377  0.2612022267387958  1.0000
  H   H2        1.0  0.6646319328553787  0.7561749505556392  0.7388067883497983  1.0000
  H   H3        1.0  0.6767814991911294  0.6399052003339493  0.9621747351476487  1.0000
  H   H4        1.0  0.32321187262998313  0.3601017192449661  0.03782502172062151  1.0000
  H   H5        1.0  0.5979575785808323  0.7077848033753968  0.09892617770587013  1.0000
  H   H6        1.0  0.4020490536402832  0.29221465855714973  0.9010724080929152  1.0000
  H   H7        1.0  0.9608597915304176  0.789048132260696  0.17482351091128834  1.0000
  H   H8        1.0  0.0391509623072182  0.210966587425169  0.8251824087613074  1.0000
  H   H9        1.0  0.31493901224649784  0.657538210832648  0.838769115977307  1.0000
  H   H10       1.0  0.6850554424366138  0.34244622156995785  0.1612211453893977  1.0000
  H   H11       1.0  0.38294091530299584  0.9420945750102305  0.923808013712524  1.0000
  H   H12       1.0  0.6170796644755397  0.05788347557052732  0.07618963561498054  1.0000
  H   H13       1.0  0.0387801956861225  0.050402491193537506  0.2180852348531133  1.0000
  H   H14       1.0  0.9612317032768731  0.9496010592257492  0.7819037541574759  1.0000
  H   H15       1.0  0.1756410648626456  0.13918524872580926  0.09914519803419349  1.0000
  H   H16       1.0  0.8243901818629665  0.8608049573478811  0.9008457272072762  1.0000
  H   H17       1.0  0.728984804681879  0.6800939796007982  0.3187968828350378  1.0000
  H   H18       1.0  0.2710277233390955  0.3199079782318393  0.681210931834393  1.0000
  H   H19       1.0  0.9213714144079932  0.7990976474341239  0.44061995006924093  1.0000
  H   H20       1.0  0.07863900317564539  0.2009101207039521  0.5593861547113265  1.0000
  H   H21       1.0  0.860566504872935  0.08412470332193321  0.4893437435931746  1.0000
  H   H22       1.0  0.13944474185704797  0.915890693057591  0.5106504401101901  1.0000
  H   H23       1.0  0.5997622076181203  0.2578705817304865  0.4217328854876713  1.0000
  H   H24       1.0  0.400236266610598  0.7421291838612165  0.5782665140175923  1.0000
  H   H25       1.0  0.7885057563650762  0.40901925390052446  0.379460917370075  1.0000
  H   H26       1.0  0.21149195098066534  0.5909842013594615  0.6205429680519431  1.0000
  H   H27       1.0  0.3005259435203911  0.5582593033495584  0.3923147076582866  1.0000
  H   H28       1.0  0.6994686271638457  0.4417301614451078  0.6076853085533004  1.0000
  C   C1        1.0  0.06720176334752638  0.7884441918618068  0.09506817608659902  1.0000
  C   C2        1.0  0.9328084375152343  0.21155549542010024  0.9049390241826885  1.0000
  C   C3        1.0  0.25211145311139654  0.7270357606578134  0.9205811251113971  1.0000
  C   C4        1.0  0.7478890665889821  0.27295312451848724  0.07940932730546993  1.0000
  C   C5        1.0  0.2881426889073496  0.8659020169453202  0.961327217973974  1.0000
  C   C6        1.0  0.7118607633127212  0.1341010095678783  0.0386707121828209  1.0000
  C   C7        1.0  0.16962624568419926  0.032762695112651806  0.1527491557450205  1.0000
  C   C8        1.0  0.8303885990967572  0.967230263742422  0.8472388697507899  1.0000
  C   C9        1.0  0.3280010683110819  0.004322112570747499  0.21956133544696854  1.0000
  C   C10       1.0  0.6720050522043267  0.9956808504406283  0.7804372256067111  1.0000
  C   C11       1.0  0.5579783473445161  0.9024715068932566  0.30074396200431164  1.0000
  C   C12       1.0  0.44202704121232017  0.0975330380412132  0.6992645142571022  1.0000
  C   C13       1.0  0.701264802375846  0.8048437474256362  0.3411018753133277  1.0000
  C   C14       1.0  0.29874521045614705  0.19515816075514186  0.6589026020620993  1.0000
  C   C15       1.0  0.8091531850065082  0.8731338127239638  0.4079979672812969  1.0000
  C   C16       1.0  0.1908478295693072  0.12688246597507202  0.592009795599516  1.0000
  C   C17       1.0  0.7752567669918236  0.035058569903476715  0.4353172384888993  1.0000
  C   C18       1.0  0.22473763728776672  0.9649557409459747  0.5646939253745132  1.0000
  C   C19       1.0  0.6312774890819526  0.13371076713526975  0.3973167893889098  1.0000
  C   C20       1.0  0.3687225440708417  0.8662980825753339  0.6026786643643974  1.0000
  C   C21       1.0  0.5253632431173257  0.06520502106545933  0.3292518509243436  1.0000
  C   C22       1.0  0.47463163024764304  0.9347903791222905  0.6707515969571319  1.0000
  C   C23       1.0  0.10509267970133607  0.46125012898584583  0.23630891936490886  1.0000
  C   C24       1.0  0.894901825298014  0.5387672303277143  0.7636913941649084  1.0000
  C   C25       1.0  0.8801570516786156  0.4489629497349413  0.4332458214116885  1.0000
  C   C26       1.0  0.1198324214811564  0.5510243834466096  0.5667547537676257  1.0000
  C   C27       1.0  0.04975360819509689  0.48033545152896556  0.37265763194577073  1.0000
  C   C28       1.0  0.9502286283127717  0.5196452585898754  0.627345610694988  1.0000
  C   C29       1.0  0.16990807887084705  0.531574444758455  0.4404296138366348  1.0000
  C   C30       1.0  0.8300643436432508  0.46842132546426996  0.5595644118256689  1.0000
  N   N1        1.0  0.11370519032318781  0.6803553507599532  0.004901726786315009  1.0000
  N   N2        1.0  0.8862849518125772  0.31965204721760915  0.9951073226411824  1.0000
  N   N3        1.0  0.1702892678535335  0.9026910307122906  0.0712516447141667  1.0000
  N   N4        1.0  0.8297244576794043  0.09729659623598512  0.9287473832297268  1.0000
  N   N5        1.0  0.4317619283628815  0.867634800288954  0.23186434493884897  1.0000
  N   N6        1.0  0.5682480159714488  0.1323681994823147  0.7681383199234589  1.0000
  N   N7        1.0  0.3773941897413451  0.12634443191291211  0.2766512133376011  1.0000
  N   N8        1.0  0.6226292365970141  0.8736499054678221  0.7233493865712151  1.0000
  O   O1        1.0  0.9742827032074078  0.4889907485579243  0.1756768652107041  1.0000
  O   O2        1.0  0.025706999252300012  0.511012897207529  0.824325127520666  1.0000
  O   O3        1.0  0.27414572470488  0.4193000184502793  0.1926904547663284  1.0000
  O   O4        1.0  0.7258392997419139  0.5807125495865436  0.8072983468457056  1.0000
  O   O5        1.0  0.7096506475386805  0.681180013492302  0.03657931093416521  1.0000
  O   O6        1.0  0.29035360648877173  0.31881721560741744  0.9634195625968618  1.0000
