data_image0
_chemical_formula_structural       Co2H36C34N6O12
_chemical_formula_sum              "Co2 H36 C34 N6 O12"
_cell_length_a       8.31973491634553
_cell_length_b       10.239767206999991
_cell_length_c       10.789855467107373
_cell_angle_alpha    80.51202137197762
_cell_angle_beta     78.45238070485404
_cell_angle_gamma    73.0265405281425

_space_group_name_H-M_alt    "P 1"
_space_group_IT_number       1

loop_
  _space_group_symop_operation_xyz
  'x, y, z'

loop_
  _atom_site_type_symbol
  _atom_site_label
  _atom_site_symmetry_multiplicity
  _atom_site_fract_x
  _atom_site_fract_y
  _atom_site_fract_z
  _atom_site_occupancy
  Co  Co1       1.0  0.21356377259688483  0.33574981740899557  0.8572193893749898  1.0000
  Co  Co2       1.0  0.786456410225476  0.6642373867208134  0.14278127220207185  1.0000
  H   H1        1.0  0.35625300578818303  0.49687411218435773  0.6102933539647426  1.0000
  H   H2        1.0  0.6437489561531038  0.5031207434466862  0.3897024891224705  1.0000
  H   H3        1.0  0.9084802235787989  0.35237406073163413  0.9802065608164628  1.0000
  H   H4        1.0  0.09151898168764921  0.6476259525134508  0.019789868244195926  1.0000
  H   H5        1.0  0.9856134922667009  0.2223621096583202  0.8929019559459167  1.0000
  H   H6        1.0  0.014372467500130883  0.7776453151414202  0.1071009732582979  1.0000
  H   H7        1.0  0.3490266054338631  0.5219223930803808  0.3751482385771468  1.0000
  H   H8        1.0  0.6509815660992971  0.4780805022905597  0.624841748701755  1.0000
  H   H9        1.0  0.8412626484382174  0.21208491083419997  0.6130307464180194  1.0000
  H   H10       1.0  0.15875106396035218  0.7879117113918284  0.38696117234951555  1.0000
  H   H11       1.0  0.875726650115631  0.6205483331448463  0.8970954046195346  1.0000
  H   H12       1.0  0.12427229417847487  0.37945668608527683  0.10291051710822073  1.0000
  H   H13       1.0  0.8455576783228624  0.785678586064151  0.8980253400893192  1.0000
  H   H14       1.0  0.1544366293907373  0.2143213596149209  0.10199131628547783  1.0000
  H   H15       1.0  0.17017242230816984  0.3993473835914898  0.30050263208656963  1.0000
  H   H16       1.0  0.8298335717217498  0.6006504313112018  0.699492151381236  1.0000
  H   H17       1.0  0.048944225102104603  0.23215910371047244  0.6895220040997787  1.0000
  H   H18       1.0  0.9510525165557265  0.7678450851578019  0.3104704773467193  1.0000
  H   H19       1.0  0.6875797883978906  0.21263604850477694  0.4056568247090483  1.0000
  H   H20       1.0  0.31242096465326347  0.7873628798014919  0.5943423075767955  1.0000
  H   H21       1.0  0.8277103308328364  0.0472721411992936  0.422105509846766  1.0000
  H   H22       1.0  0.1722870175123319  0.9527258516698609  0.5778942852507214  1.0000
  H   H23       1.0  0.5663597232839023  0.17608510763729873  0.6445553685487866  1.0000
  H   H24       1.0  0.433643546165065  0.8239218888736276  0.3554449599719619  1.0000
  H   H25       1.0  0.6832829900603059  0.0019071668846563988  0.6442290870238738  1.0000
  H   H26       1.0  0.3167159450774976  0.9980978885234252  0.35577312341594347  1.0000
  H   H27       1.0  0.3737893291994752  0.05791761248899262  0.6149383454333802  1.0000
  H   H28       1.0  0.6262111514339566  0.9420863670247569  0.38506564040962854  1.0000
  H   H29       1.0  0.4222140842418866  0.1540281278217108  0.46802363220665927  1.0000
  H   H30       1.0  0.5777836190681996  0.84597694008945  0.5319806196402298  1.0000
  H   H31       1.0  0.5740145769204973  0.9547653848375502  0.8985916465503367  1.0000
  H   H32       1.0  0.4259824967178644  0.045237668283569094  0.10141207428232953  1.0000
  H   H33       1.0  0.6449318994482027  0.5217983560465882  0.8853854140610979  1.0000
  H   H34       1.0  0.3550716538638665  0.47820354403441473  0.11461470001241744  1.0000
  H   H35       1.0  0.1614454241948734  0.8122002379188872  0.8389614523597618  1.0000
  H   H36       1.0  0.8385559608170823  0.1878006961329319  0.16103913876229115  1.0000
  C   C1        1.0  0.28338527511051126  0.44467982374529674  0.5721702733058153  1.0000
  C   C2        1.0  0.7166074389900317  0.5553172371453242  0.4278331538323813  1.0000
  C   C3        1.0  0.2781259032582284  0.4587170232052955  0.44243830676784784  1.0000
  C   C4        1.0  0.7218730181451036  0.5412880864697132  0.5575583367400442  1.0000
  C   C5        1.0  0.1804873040630355  0.3906205890867867  0.40042621835862496  1.0000
  C   C6        1.0  0.8195223946063308  0.6093771521287081  0.5995661521758963  1.0000
  C   C7        1.0  0.09335571853895169  0.308515743641003  0.4885362359965698  1.0000
  C   C8        1.0  0.9066447025316648  0.6914843204124139  0.5114516569031126  1.0000
  C   C9        1.0  0.10782948026846378  0.2988721372797372  0.6166828945787941  1.0000
  C   C10       1.0  0.8921724862977882  0.701126850879355  0.3833067737240796  1.0000
  C   C11       1.0  0.9931621430559048  0.23379774800657319  0.43883370355487744  1.0000
  C   C12       1.0  0.00683735527677241  0.7662012832476605  0.5611581919181818  1.0000
  C   C13       1.0  0.7524101554077446  0.13379245123519468  0.4754983365328089  1.0000
  C   C14       1.0  0.247590902155018  0.8662054498577801  0.5245009012753671  1.0000
  C   C15       1.0  0.621257773696712  0.09247416567591668  0.5833395228925726  1.0000
  C   C16       1.0  0.37874207039776303  0.9075278261812586  0.4166611484702545  1.0000
  C   C17       1.0  0.4755196288974305  0.06457179404578278  0.5338080392609329  1.0000
  C   C18       1.0  0.5244786811468031  0.9354312284832815  0.4661954958086271  1.0000
  C   C19       1.0  0.2460403364150991  0.0425137145917702  0.859958910569141  1.0000
  C   C20       1.0  0.753961581893307  0.9574688610334833  0.1400433951852804  1.0000
  C   C21       1.0  0.35711438111910354  0.8975198038039165  0.8680124224165485  1.0000
  C   C22       1.0  0.6428839082766302  0.10247914950851822  0.13199079268344605  1.0000
  C   C23       1.0  0.5252062872087181  0.8699038221422766  0.8886372866703954  1.0000
  C   C24       1.0  0.4747901796955034  0.13010127636094637  0.11136715093959991  1.0000
  C   C25       1.0  0.6285946586613917  0.7347727725516294  0.8981767810256333  1.0000
  C   C26       1.0  0.3713962535493351  0.26523035212938595  0.10183621902043438  1.0000
  C   C27       1.0  0.5656486982831906  0.627634344942173  0.8809797291331453  1.0000
  C   C28       1.0  0.4343486821558641  0.37236767192116826  0.11902502504383254  1.0000
  C   C29       1.0  0.39719465363270956  0.655323612125393  0.8614424178641119  1.0000
  C   C30       1.0  0.6028073518946613  0.3446793728944186  0.13855499298421145  1.0000
  C   C31       1.0  0.32802495876357096  0.5396755394514727  0.8531361469721832  1.0000
  C   C32       1.0  0.6719755448074379  0.46033250023442207  0.14686908666237747  1.0000
  C   C33       1.0  0.2917897894399956  0.7898611260383676  0.8561931154361206  1.0000
  C   C34       1.0  0.7082116001501149  0.21013978992448298  0.14380933132990495  1.0000
  N   N1        1.0  0.19992128704034687  0.36607739407781287  0.6585844851334031  1.0000
  N   N2        1.0  0.8000803543189788  0.6339144014609204  0.3414127881058918  1.0000
  N   N3        1.0  0.8694264905413789  0.18954168167834243  0.521691723736815  1.0000
  N   N4        1.0  0.1305767055166953  0.810453152405131  0.4783030057653051  1.0000
  N   N5        1.0  0.7922088612077616  0.7061089616260929  0.9323967163319011  1.0000
  N   N6        1.0  0.20778542132598693  0.29389108354234134  0.06760973400104585  1.0000
  O   O1        1.0  0.32387969623501084  0.1363216849194302  0.8508482525058272  1.0000
  O   O2        1.0  0.6761309044301881  0.8636647186445717  0.1491558563423822  1.0000
  O   O3        1.0  0.9617242075313612  0.3255483643154591  0.8936597477822874  1.0000
  O   O4        1.0  0.0382781300233432  0.6744576355742282  0.10634087202389254  1.0000
  O   O5        1.0  0.08770062490529541  0.06437979121000129  0.8618503831514985  1.0000
  O   O6        1.0  0.9122930142222712  0.9356182934353258  0.13814996923530043  1.0000
  O   O7        1.0  0.16792627517183686  0.5509810469278165  0.891400688848151  1.0000
  O   O8        1.0  0.8320643142146621  0.44902317732240254  0.1086047830997003  1.0000
  O   O9        1.0  0.42372576974372583  0.4279242893857215  0.8127521198872147  1.0000
  O   O10       1.0  0.5762589054530096  0.572075054706282  0.18724757167501602  1.0000
  O   O11       1.0  0.02215921088014741  0.21633465038710398  0.3241822561209062  1.0000
  O   O12       1.0  0.9778436577287482  0.7836571507375253  0.6758111200673371  1.0000
