data_image0
_chemical_formula_structural       Ho6Cu3H12C30N12O27
_chemical_formula_sum              "Ho6 Cu3 H12 C30 N12 O27"
_cell_length_a       6.7378265013402965
_cell_length_b       16.142827879981827
_cell_length_c       16.175041805423966
_cell_angle_alpha    118.13529751935052
_cell_angle_beta     97.95831029808507
_cell_angle_gamma    98.14939316749063

_space_group_name_H-M_alt    "P 1"
_space_group_IT_number       1

loop_
  _space_group_symop_operation_xyz
  'x, y, z'

loop_
  _atom_site_type_symbol
  _atom_site_label
  _atom_site_symmetry_multiplicity
  _atom_site_fract_x
  _atom_site_fract_y
  _atom_site_fract_z
  _atom_site_occupancy
  Ho  Ho1       1.0  0.11986961329839824  0.911105874592806  0.8465521184793516  1.0000
  Ho  Ho2       1.0  0.21172855001363186  0.9371783065048545  0.09011417921789198  1.0000
  Ho  Ho3       1.0  0.2700960694842607  0.1531559919488927  0.06314630352633799  1.0000
  Ho  Ho4       1.0  0.8801540590177553  0.0889150368989959  0.15345667905030072  1.0000
  Ho  Ho5       1.0  0.7882755817436119  0.06283969794693428  0.9098976333979465  1.0000
  Ho  Ho6       1.0  0.72992354979592  0.8468569643362613  0.9368616052829211  1.0000
  Cu  Cu1       1.0  0.9999880076318419  0.4999932105104108  0.5000023546329757  1.0000
  Cu  Cu2       1.0  0.500002783487929  4.203714787799828e-06  0.5000016668615359  1.0000
  Cu  Cu3       1.0  0.4999954307929571  0.49999139215896793  0.9999963768856404  1.0000
  H   H1        1.0  0.4203923104404552  0.47573449943853763  0.5741834279510699  1.0000
  H   H2        1.0  0.7008890501489589  0.5894219773071683  0.729486418736876  1.0000
  H   H3        1.0  0.9468033963153742  0.0968177694888297  0.5244861748212131  1.0000
  H   H4        1.0  0.11600826509467049  0.1385021221600269  0.4114641254546996  1.0000
  H   H5        1.0  0.8472919126741016  0.4261665910101513  0.9021508088480205  1.0000
  H   H6        1.0  0.9714423899694892  0.2705279021835949  0.8603095675947614  1.0000
  H   H7        1.0  0.5795640792168583  0.5242429842345969  0.4258293448004125  1.0000
  H   H8        1.0  0.29907643907860393  0.4105612996348639  0.27051849654259996  1.0000
  H   H9        1.0  0.05322140432535602  0.9031843509027978  0.47550892429871555  1.0000
  H   H10       1.0  0.8840105841786324  0.861497102750789  0.5885292537063265  1.0000
  H   H11       1.0  0.15270226162469666  0.5738224949222186  0.09784187937430029  1.0000
  H   H12       1.0  0.028546485810970367  0.7294568404471489  0.13968756139377805  1.0000
  C   C1        1.0  0.37141206165031787  0.729142564457099  0.7561688034492561  1.0000
  C   C2        1.0  0.21148487541272934  0.6628290630383802  0.671785115968831  1.0000
  C   C3        1.0  0.4093356775827175  0.547344439241499  0.6270800524882746  1.0000
  C   C4        1.0  0.5616867993729358  0.6107194118283132  0.7115051870326994  1.0000
  C   C5        1.0  0.008842675339984448  0.6817351914583369  0.6456212461089024  1.0000
  C   C6        1.0  0.6452264779532226  0.026906298472319193  0.2719706403038629  1.0000
  C   C7        1.0  0.5503757313790985  0.008856037874401998  0.3377772617997081  1.0000
  C   C8        1.0  0.8644988768827843  0.0786583204728046  0.4531262994806013  1.0000
  C   C9        1.0  0.954677204389668  0.09958303832058137  0.3900556361009889  1.0000
  C   C10       1.0  0.32789674598698315  0.964156846798083  0.31871749564189145  1.0000
  C   C11       1.0  0.6138185670270315  0.2437865567802788  0.9727401155372205  1.0000
  C   C12       1.0  0.5385076409666139  0.3281204692586214  0.9908022094917612  1.0000
  C   C13       1.0  0.7825365516935322  0.37306539569131997  0.920525877076912  1.0000
  C   C14       1.0  0.850007191919026  0.2886135037363218  0.8994520647308377  1.0000
  C   C15       1.0  0.3616079540917879  0.3542162969027912  0.03565497349304543  1.0000
  C   C16       1.0  0.6285742304512425  0.2708486849888842  0.2438231860189433  1.0000
  C   C17       1.0  0.7884955889229914  0.3371629009467867  0.3282179841652777  1.0000
  C   C18       1.0  0.5906380340993778  0.45264028908289317  0.3729260425480945  1.0000
  C   C19       1.0  0.43829058175668206  0.3892696558315619  0.28850378564570184  1.0000
  C   C20       1.0  0.9911529964252491  0.3182567878083731  0.3543704180529658  1.0000
  C   C21       1.0  0.35478383910374595  0.9731030374049181  0.7280343868694317  1.0000
  C   C22       1.0  0.44963505915049495  0.9911511312368261  0.6622230674539794  1.0000
  C   C23       1.0  0.13552769809590595  0.9213474143925706  0.5468730768936964  1.0000
  C   C24       1.0  0.04533219700135746  0.9004212398942852  0.6099395424021239  1.0000
  C   C25       1.0  0.6721275824001579  0.03585683228534009  0.6812996934637353  1.0000
  C   C26       1.0  0.3861726757246727  0.7561996362399838  0.027249800493947856  1.0000
  C   C27       1.0  0.4614679164420109  0.6718642679078926  0.009184217514302961  1.0000
  C   C28       1.0  0.2174551444761761  0.6269157377815375  0.07946169142228142  1.0000
  C   C29       1.0  0.1499934196635592  0.7113734188608587  0.10053814347509872  1.0000
  C   C30       1.0  0.6383883673006353  0.6457800191306832  0.9643406205431051  1.0000
  N   N1        1.0  0.5435426708816492  0.6978804534620265  0.7735904961511223  1.0000
  N   N2        1.0  0.23754560828670176  0.5754189256221166  0.6104609499650238  1.0000
  N   N3        1.0  0.8494771518756821  0.07478134043059008  0.3031175564376767  1.0000
  N   N4        1.0  0.6637875415783225  0.0344718215960853  0.424931909754541  1.0000
  N   N5        1.0  0.7689931863065668  0.22650369767124798  0.9243991062357964  1.0000
  N   N6        1.0  0.6269275835838428  0.38959463299537594  0.9650276740111394  1.0000
  N   N7        1.0  0.4564450460787341  0.30210790302413665  0.2264070224752075  1.0000
  N   N8        1.0  0.7624149459563438  0.42456073110808024  0.3895487675466711  1.0000
  N   N9        1.0  0.15053513612034639  0.9252287220149779  0.6968817487555724  1.0000
  N   N10       1.0  0.33623187988172276  0.965534630668692  0.5750686062230416  1.0000
  N   N11       1.0  0.2309945599302806  0.7734904441338911  0.07559432909636142  1.0000
  N   N12       1.0  0.37304788555155  0.6103929945145339  0.03496257741832667  1.0000
  O   O1        1.0  0.3664031842969563  0.8143635011530889  0.8174330196316292  1.0000
  O   O2        1.0  0.9608598368532879  0.7584556466405842  0.6983056343632228  1.0000
  O   O3        1.0  0.885535900836636  0.6126156192591237  0.5650271138318884  1.0000
  O   O4        1.0  0.1164746800768484  0.0676321626131298  0.9069908955953494  1.0000
  O   O5        1.0  0.5551149645676787  0.0036943542734916997  0.1870063398233697  1.0000
  O   O6        1.0  0.20318996816606458  0.9404939144631256  0.24221051825880127  1.0000
  O   O7        1.0  0.2730256365991435  0.9525555135342924  0.38753100956315467  1.0000
  O   O8        1.0  0.05455320513947742  0.84075571296804  0.9330527492172964  1.0000
  O   O9        1.0  0.5467546637210389  0.18234731261329526  0.9964191109896489  1.0000
  O   O10       1.0  0.25979790049873225  0.30139519156166716  0.05934845018958158  1.0000
  O   O11       1.0  0.31971510706808454  0.4349263774573515  0.0472967192561527  1.0000
  O   O12       1.0  0.21174571353734709  0.09347494188889979  0.1600834392492132  1.0000
  O   O13       1.0  0.6336026218651014  0.18563933172668354  0.1825538434363096  1.0000
  O   O14       1.0  0.0391507726888989  0.24155369581922767  0.3016827208203026  1.0000
  O   O15       1.0  0.1144593407871071  0.387378527748794  0.43496677832517616  1.0000
  O   O16       1.0  0.8835340881278029  0.932388740423505  0.09301204843566774  1.0000
  O   O17       1.0  0.4448807128055846  0.9963185863379562  0.8129976372217839  1.0000
  O   O18       1.0  0.7968042751265331  0.05951902657055539  0.7577896625347549  1.0000
  O   O19       1.0  0.7269801583382218  0.047459603321250696  0.6124727476265477  1.0000
  O   O20       1.0  0.9454709928103782  0.1592782094901111  0.06696342420246996  1.0000
  O   O21       1.0  0.4532412773048334  0.8176396029614352  0.0035807028189936054  1.0000
  O   O22       1.0  0.7402018074697381  0.6985960655427378  0.9406486839311654  1.0000
  O   O23       1.0  0.6802934978695773  0.5650648836961949  0.9527065203844032  1.0000
  O   O24       1.0  0.7882812013067377  0.9065466920920214  0.8399326947685211  1.0000
  O   O25       1.0  0.3976220895739002  0.9986438831448508  0.9998270610092348  1.0000
  O   O26       1.0  0.6024127243001514  0.0013842646914027994  0.00018519052412808328  1.0000
  O   O27       1.0  1.2228937471499998e-05  1.51902013883e-05  2.307550829500002e-06  1.0000
