data_image0
_chemical_formula_structural       Zn8H65C80Br7O32
_chemical_formula_sum              "Zn8 H65 C80 Br7 O32"
_cell_length_a       18.3103155065534
_cell_length_b       18.322577328698177
_cell_length_c       18.403057364389227
_cell_angle_alpha    90.30223566462772
_cell_angle_beta     119.82286410445708
_cell_angle_gamma    119.36181538154594

_space_group_name_H-M_alt    "P 1"
_space_group_IT_number       1

loop_
  _space_group_symop_operation_xyz
  'x, y, z'

loop_
  _atom_site_type_symbol
  _atom_site_label
  _atom_site_symmetry_multiplicity
  _atom_site_fract_x
  _atom_site_fract_y
  _atom_site_fract_z
  _atom_site_occupancy
  Zn  Zn1       1.0  0.4105085390753017  0.5413440553974596  0.46135152406392876  1.0000
  Zn  Zn2       1.0  0.5829700611087248  0.5407156871621127  0.4564824011450598  1.0000
  Zn  Zn3       1.0  0.4177222350913965  0.37073632837497433  0.46250556367631657  1.0000
  Zn  Zn4       1.0  0.5894508565414895  0.5422534555837261  0.6352591761648584  1.0000
  Zn  Zn5       1.0  0.5855983337354402  0.9536818893014072  0.04722352469609346  1.0000
  Zn  Zn6       1.0  0.5904874774441211  0.1292925694385687  0.04852010106043994  1.0000
  Zn  Zn7       1.0  0.4066325540751237  0.9509776486830717  0.03795200493730287  1.0000
  Zn  Zn8       1.0  0.4130149148776997  0.9581087021924407  0.8707976203849842  1.0000
  H   H1        1.0  0.5375841111773028  0.801226383264897  0.6556660656804213  1.0000
  H   H2        1.0  0.09891018779661213  0.781640429578843  0.9694066732981029  1.0000
  H   H3        1.0  0.9049363400061454  0.6741207268343462  0.8751505336532336  1.0000
  H   H4        1.0  0.35486149880022566  0.18553814329876417  0.2675513346035387  1.0000
  H   H5        1.0  0.3535615710861251  0.08694987441278813  0.17282693074277947  1.0000
  H   H6        1.0  0.7387276511066433  0.3401783115199849  0.3048030644101232  1.0000
  H   H7        1.0  0.7361588971735884  0.4499908117786334  0.38520278447136763  1.0000
  H   H8        1.0  0.40434605709094024  0.46231297928702014  0.8155514299699433  1.0000
  H   H9        1.0  0.6686429672803555  0.4660791693669993  0.2830093631220906  1.0000
  H   H10       1.0  0.32339594371715913  0.7235967568519541  0.1279863147008768  1.0000
  H   H11       1.0  0.7054238531091529  0.8321802901468374  0.2462317389325364  1.0000
  H   H12       1.0  0.08627055321572638  0.45878392503617255  0.3480327577650399  1.0000
  H   H13       1.0  0.7319664576024039  0.9125761920461956  0.3272008239971386  1.0000
  H   H14       1.0  0.7003504185761218  0.732758822806254  0.3402655489355127  1.0000
  H   H15       1.0  0.7265948474305189  0.8133834483046627  0.42097158435247917  1.0000
  H   H16       1.0  0.89188597266282  0.3579406192400114  0.25020730016373705  1.0000
  H   H17       1.0  0.10751196156659397  0.4430591174199209  0.553633452004398  1.0000
  H   H18       1.0  0.040256600834020106  0.46762289984069116  0.45970347846954956  1.0000
  H   H19       1.0  0.2724111209956988  0.5553306407480463  0.5736348393038  1.0000
  H   H20       1.0  0.20786177911490708  0.5826181025065225  0.48204050881653165  1.0000
  H   H21       1.0  0.14821860008949284  0.6297988051004995  0.560381676837679  1.0000
  H   H22       1.0  0.28345155074161704  0.6917337269098951  0.6230218383502049  1.0000
  H   H23       1.0  0.3760661460016906  0.0896218362887711  0.6900847249147973  1.0000
  H   H24       1.0  0.21631909873273264  0.6046344581094446  0.6533592932815395  1.0000
  H   H25       1.0  0.22924383984044988  0.16383270912668732  0.5897769591214868  1.0000
  H   H26       1.0  0.29109226951501904  0.2546850381526085  0.5585222899976828  1.0000
  H   H27       1.0  0.20108899383881612  0.15463151408426518  0.41012502611474844  1.0000
  H   H28       1.0  0.14682835539833414  0.06045194304290654  0.44030800191291775  1.0000
  H   H29       1.0  0.05224405095498238  0.11162482370123436  0.463344664076658  1.0000
  H   H30       1.0  0.022261914124563006  0.1030288357016431  0.3546793344835635  1.0000
  H   H31       1.0  0.10953101769194261  0.20841276719301768  0.43744249547809494  1.0000
  H   H32       1.0  0.8587370379108065  0.4587739091225488  0.008890097502380548  1.0000
  H   H33       1.0  0.750872580643318  0.37241236916347764  0.9075069030069688  1.0000
  H   H34       1.0  0.590053470260685  0.3682853544658686  0.9652280858087751  1.0000
  H   H35       1.0  0.8377398079209044  0.339731966218018  0.08561822487916268  1.0000
  H   H36       1.0  0.74579959908764  0.25875390462385917  0.9800847869964999  1.0000
  H   H37       1.0  0.8796948384309504  0.32270750593664865  0.9450128596939537  1.0000
  H   H38       1.0  0.9165195804860317  0.286850462869559  0.038751121111644755  1.0000
  H   H39       1.0  0.9717002963786427  0.4016217018695231  0.053328372689343026  1.0000
  H   H40       1.0  0.8426759779105168  0.6149826769365347  0.9685021158718002  1.0000
  H   H41       1.0  0.7474305874033291  0.5739203360127973  0.9895454870510108  1.0000
  H   H42       1.0  0.7477176580283427  0.6498680996052004  0.8409758280212929  1.0000
  H   H43       1.0  0.6364230302217849  0.5873979206929364  0.8383856912617206  1.0000
  H   H44       1.0  0.715853176299774  0.6955075719203878  0.9799101093234129  1.0000
  H   H45       1.0  0.5790323844971754  0.458977517072228  0.8663075742627699  1.0000
  H   H46       1.0  0.7218717882003817  0.7504940788119542  0.9020784324379749  1.0000
  H   H47       1.0  0.8330637008882322  0.7606119136557228  0.9901890309356036  1.0000
  H   H48       1.0  0.22787328467041582  0.22350908884088483  0.2240434166483283  1.0000
  H   H49       1.0  0.1838736083846584  0.2937706049887652  0.20035828615611714  1.0000
  H   H50       1.0  0.06094387949230652  0.10100447287948101  0.08495391896693151  1.0000
  H   H51       1.0  0.020596217973604836  0.17267671371843824  0.0602499119912068  1.0000
  H   H52       1.0  0.16879044625460438  0.27452683441116926  0.049351975568924886  1.0000
  H   H53       1.0  0.09120922270407322  0.16544721651388997  0.9747764553609386  1.0000
  H   H54       1.0  0.2100597526558374  0.2026168164371143  0.07513339203786984  1.0000
  H   H55       1.0  0.8692496307648268  0.014450709125142722  0.20876673379893873  1.0000
  H   H56       1.0  0.8968981116092748  0.7396389344703068  0.5876136687548625  1.0000
  H   H57       1.0  0.9775129226881561  0.031211125122347017  0.21446014659521506  1.0000
  H   H58       1.0  0.7532643994291418  0.9103599413883785  0.05368801356914338  1.0000
  H   H59       1.0  0.8590573143039463  0.9226883804125167  0.06092590653332757  1.0000
  H   H60       1.0  0.8965874632717075  0.8634290122376527  0.18996209489820617  1.0000
  H   H61       1.0  0.7691311662446978  0.7860175934393183  0.0968728331567021  1.0000
  H   H62       1.0  0.7931612168000371  0.8542237450110549  0.18541931088296348  1.0000
  H   H63       1.0  0.459935027552902  0.5324397896814832  0.7228472183123672  1.0000
  H   H64       1.0  0.08700363909763839  0.8386631674719215  0.6791740028737581  1.0000
  H   H65       1.0  0.10557315208848925  0.6950677034816624  0.9347836744419667  1.0000
  C   C1        1.0  0.7737881608709145  0.6341291548036382  0.6360827456215647  1.0000
  C   C2        1.0  0.11181344935794614  0.30164164066040666  0.302600407855664  1.0000
  C   C3        1.0  0.05867629017657804  0.21803329962559564  0.24071268001806356  1.0000
  C   C4        1.0  0.22538921426844644  0.36036899719903914  0.36600524606093643  1.0000
  C   C5        1.0  0.9496950916045108  0.16152109501626916  0.1858167782939049  1.0000
  C   C6        1.0  0.8904425379548258  0.1876642818240342  0.18940515348666764  1.0000
  C   C7        1.0  0.9449222471955564  0.2705129933480563  0.2506031137892677  1.0000
  C   C8        1.0  0.9319019842113078  0.3300374555361999  0.2920409842229078  1.0000
  C   C9        1.0  0.055185672026375684  0.3933323515308729  0.357292236248469  1.0000
  C   C10       1.0  0.5504691417162988  0.3433298768900601  0.7922957929853285  1.0000
  C   C11       1.0  0.48344368219913053  0.3071212216906717  0.699512173850984  1.0000
  C   C12       1.0  0.4131165487452222  0.6494817578945559  0.8563798566176644  1.0000
  C   C13       1.0  0.41631856098868536  0.21287802871802364  0.6646579789865117  1.0000
  C   C14       1.0  0.4269647381231323  0.16152468470016165  0.720403529048248  1.0000
  C   C15       1.0  0.49750821921473715  0.1993218653877736  0.8128557685931174  1.0000
  C   C16       1.0  0.4852924699498899  0.625883197547175  0.35510532854969074  1.0000
  C   C17       1.0  0.5573483753591619  0.2920619713900907  0.8479207161854208  1.0000
  C   C18       1.0  0.6279442804224828  0.3713202416105192  0.9328664056777571  1.0000
  C   C19       1.0  0.6203361095939145  0.43008954220271556  0.867762629416575  1.0000
  C   C20       1.0  0.9474758799132773  0.6970550489133914  0.7787417290006645  1.0000
  C   C21       1.0  0.8875285759408913  0.6908222114067046  0.690850210933043  1.0000
  C   C22       1.0  0.9411264282747638  0.7433178914941366  0.6563562730815137  1.0000
  C   C23       1.0  0.4537142001819988  0.6964089230871411  0.8091722533116227  1.0000
  C   C24       1.0  0.04774780416718032  0.799323832617482  0.7078540329327512  1.0000
  C   C25       1.0  0.10725193346155501  0.8070630790771817  0.7974709606970408  1.0000
  C   C26       1.0  0.0540104935030001  0.7539466076697465  0.8307353905010261  1.0000
  C   C27       1.0  0.06607775043176664  0.7283397551735933  0.912206825661315  1.0000
  C   C28       1.0  0.4899903627919929  0.3646543053218923  0.643158060748519  1.0000
  C   C29       1.0  0.9457180722793055  0.663878529082041  0.8530328029068388  1.0000
  C   C30       1.0  0.5734751480986802  0.3353686721513186  0.2886452068203767  1.0000
  C   C31       1.0  0.4964563106824897  0.30347273441167033  0.30251204400363463  1.0000
  C   C32       1.0  0.4165410441695557  0.2124855160465558  0.25854623237177793  1.0000
  C   C33       1.0  0.4159629378707947  0.15707051722331763  0.20582251969500484  1.0000
  C   C34       1.0  0.46772183106301674  0.6507712558280333  0.7581969197061583  1.0000
  C   C35       1.0  0.496112937602845  0.18887607555245722  0.19500404951710956  1.0000
  C   C36       1.0  0.5740485995223708  0.2792044140595706  0.23753817816407974  1.0000
  C   C37       1.0  0.6794019538589994  0.35134340021141247  0.26304736161944225  1.0000
  C   C38       1.0  0.6748156138253306  0.41653559346898567  0.31404413492386857  1.0000
  C   C39       1.0  0.5680072735643336  0.7393415199721506  0.2988790455205718  1.0000
  C   C40       1.0  0.4983539307154599  0.3607801868087464  0.3617497516220141  1.0000
  C   C41       1.0  0.4792907856915605  0.6777122743527499  0.2928072994780636  1.0000
  C   C42       1.0  0.39062588847725277  0.6730987406485553  0.22807501859730203  1.0000
  C   C43       1.0  0.39319621441618574  0.7287710759577806  0.17651174173256834  1.0000
  C   C44       1.0  0.48454413422641823  0.7917421390936498  0.1855699404494546  1.0000
  C   C45       1.0  0.4971057759706028  0.6901182417853138  0.7026185309144709  1.0000
  C   C46       1.0  0.5712393188104343  0.794600397136044  0.247224127284369  1.0000
  C   C47       1.0  0.6849045203345484  0.8414132160802128  0.2906553022943969  1.0000
  C   C48       1.0  0.6816168778422381  0.7789124446127147  0.3496164544663857  1.0000
  C   C49       1.0  0.5024129223997208  0.1408615666156265  0.8686673890196134  1.0000
  C   C50       1.0  0.4878203008383084  0.8522257319457014  0.13211578901576373  1.0000
  C   C51       1.0  0.7765604957776802  0.1307081201150879  0.1349278893490649  1.0000
  C   C52       1.0  0.5043636362422036  0.6408597474520052  0.6438386249660014  1.0000
  C   C53       1.0  0.22076062440235217  0.8668025050648537  0.8540776448846046  1.0000
  C   C54       1.0  0.49712214536893384  0.12867813425921784  0.14163270771803133  1.0000
  C   C55       1.0  0.483988249662886  0.8450530851856259  0.8673614584785059  1.0000
  C   C56       1.0  0.5166017332559039  0.7722515992562295  0.699286193409087  1.0000
  C   C57       1.0  0.4486785703388777  0.5662846373899699  0.7610671641583481  1.0000
  C   C58       1.0  0.4175033397624617  0.526616667937198  0.8123879704813818  1.0000
  C   C59       1.0  0.398895288824825  0.5680658302589096  0.8596073884999813  1.0000
  C   C60       1.0  0.10897639596656471  0.46692198829300946  0.49930206343867684  1.0000
  C   C61       1.0  0.20606285300881672  0.5592471447630771  0.5365320869776724  1.0000
  C   C62       1.0  0.21401555627014113  0.6249104164166044  0.5964755813023361  1.0000
  C   C63       1.0  0.25836508889341303  0.18345470355197344  0.5481211189616388  1.0000
  C   C64       1.0  0.1726511224572747  0.13032238447931385  0.45121268329298664  1.0000
  C   C65       1.0  0.08436784198897138  0.13874170658645832  0.4252579200281304  1.0000
  C   C66       1.0  0.7888310170461782  0.39118778455859665  0.979726237709038  1.0000
  C   C67       1.0  0.5110965528048439  0.8194991243895445  0.7545346558257792  1.0000
  C   C68       1.0  0.8150516248857542  0.326937281469462  0.0167580743743372  1.0000
  C   C69       1.0  0.900251565770695  0.33490414377570943  0.013201540572566629  1.0000
  C   C70       1.0  0.7599391603061748  0.5807800789366981  0.9363865521463952  1.0000
  C   C71       1.0  0.7202459271946039  0.6320082407221577  0.8836542095263199  1.0000
  C   C72       1.0  0.7496847997820026  0.7142671243842714  0.9420859085978608  1.0000
  C   C73       1.0  0.15898501323167846  0.22400917517212807  0.19000630964564644  1.0000
  C   C74       1.0  0.08863394949149493  0.17088826584294034  0.09163737498089833  1.0000
  C   C75       1.0  0.14273029677408997  0.20535205651352578  0.045329975617924824  1.0000
  C   C76       1.0  0.8990851313416356  0.013981983168534407  0.1695427082297343  1.0000
  C   C77       1.0  0.8292797323378734  0.9235353589608196  0.10001026157732446  1.0000
  C   C78       1.0  0.48003251945300457  0.7839450636462929  0.8082675054515036  1.0000
  C   C79       1.0  0.8216452386831463  0.8528560718115372  0.14536689938401542  1.0000
  C   C80       1.0  0.050954601116977555  0.32480529484221426  0.3054407265603488  1.0000
  Br  Br1       1.0  0.862750759658681  0.2756554633996232  0.3505928115360107  1.0000
  Br  Br2       1.0  0.8923403901962674  0.5373847666531477  0.8317739009724578  1.0000
  Br  Br3       1.0  0.6994651247693042  0.382565183120704  0.16940517869047508  1.0000
  Br  Br4       1.0  0.26012559713587546  0.5861699837744611  0.2038001601280613  1.0000
  Br  Br5       1.0  0.3507742597833286  0.5052046610547907  0.9244665255420801  1.0000
  Br  Br6       1.0  0.36802394850705883  0.6912567061154747  0.908830432732721  1.0000
  Br  Br7       1.0  0.552157060996791  0.9371910672793433  0.7540965871755106  1.0000
  O   O1        1.0  0.5011002107198763  0.5007456032517936  0.5048541532668267  1.0000
  O   O2        1.0  0.2628876570268449  0.8752492868822518  0.9363290107580159  1.0000
  O   O3        1.0  0.5726471216455593  0.1651823090946039  0.1355256369884685  1.0000
  O   O4        1.0  0.7324838012515685  0.6006910109469106  0.6771628610597419  1.0000
  O   O5        1.0  0.41621900787328076  0.861093858611149  0.829293063574376  1.0000
  O   O6        1.0  0.4233484392018454  0.04648930805898031  0.10714449947811741  1.0000
  O   O7        1.0  0.5598521619152094  0.8793105310823179  0.9482789306333926  1.0000
  O   O8        1.0  0.732053200612981  0.047632226517222924  0.12091953618283213  1.0000
  O   O9        1.0  0.26642993049927105  0.9037185171506792  0.817262918491956  1.0000
  O   O10       1.0  0.5524315367783149  0.1779994213087906  0.9517938362455854  1.0000
  O   O11       1.0  0.4162567634327416  0.864302391349483  0.09795866957137629  1.0000
  O   O12       1.0  0.4380627827440976  0.6166857120635002  0.3903810309351174  1.0000
  O   O13       1.0  0.2652963550655585  0.4436065320115432  0.3833618147771176  1.0000
  O   O14       1.0  0.5420128107802284  0.5985751600711069  0.36987566553487744  1.0000
  O   O15       1.0  0.4564507293826948  0.32896740277941217  0.5641360928580427  1.0000
  O   O16       1.0  0.570681358342469  0.4432028638090701  0.39487191941651656  1.0000
  O   O17       1.0  0.576921561305305  0.6305095751578096  0.6817504802488161  1.0000
  O   O18       1.0  0.42818236608128774  0.3230513680094874  0.37511252649605353  1.0000
  O   O19       1.0  0.43635233816286256  0.6144068338812262  0.5610857817084708  1.0000
  O   O20       1.0  0.10149212653873016  0.401074761902514  0.4473277554467288  1.0000
  O   O21       1.0  0.3372324415790189  0.16744705535091245  0.5768155528766742  1.0000
  O   O22       1.0  0.7252446918024021  0.3949748369401291  0.0021424358781204724  1.0000
  O   O23       1.0  0.5330523099582648  0.4469162151060289  0.6796989543290763  1.0000
  O   O24       1.0  0.7127694881338444  0.4947079582011898  0.8797822792610435  1.0000
  O   O25       1.0  0.10906497649406086  0.18566152091614904  0.23417128901340337  1.0000
  O   O26       1.0  0.9027271338023084  0.08143450279720106  0.12737302320292807  1.0000
  O   O27       1.0  0.7276042924187182  0.6247250717815335  0.5535730935491472  1.0000
  O   O28       1.0  0.2721987548205078  0.32330840827820145  0.3986715119940031  1.0000
  O   O29       1.0  0.49952347239730016  0.9985432994006944  0.0008046564084125725  1.0000
  O   O30       1.0  0.4559098434516217  0.058894060908834145  0.8284522362438766  1.0000
  O   O31       1.0  0.5634781063437231  0.887497265677581  0.1258779750247072  1.0000
  O   O32       1.0  0.7341031749466326  0.17227621355901596  0.10882619173973752  1.0000
