data_image0
_chemical_formula_structural       Tm2H18C12O12
_chemical_formula_sum              "Tm2 H18 C12 O12"
_cell_length_a       7.9957855800657915
_cell_length_b       7.99552244503169
_cell_length_c       8.319009541985645
_cell_angle_alpha    90.00005972770717
_cell_angle_beta     89.9997708538462
_cell_angle_gamma    117.96703154551547

_space_group_name_H-M_alt    "P 1"
_space_group_IT_number       1

loop_
  _space_group_symop_operation_xyz
  'x, y, z'

loop_
  _atom_site_type_symbol
  _atom_site_label
  _atom_site_symmetry_multiplicity
  _atom_site_fract_x
  _atom_site_fract_y
  _atom_site_fract_z
  _atom_site_occupancy
  Tm  Tm1       1.0  0.9453297783477127  0.9453352783729656  0.1384451249163732  1.0000
  Tm  Tm2       1.0  0.05462403957358219  0.05461231090859539  0.6384778154311803  1.0000
  H   H1        1.0  0.6545101367956929  0.6544263911976743  0.6354646862509271  1.0000
  H   H2        1.0  0.3455807174597964  0.34562825560811195  0.13548035996457483  1.0000
  H   H3        1.0  0.45668987914253  0.5843839424108522  0.7673405174453762  1.0000
  H   H4        1.0  0.543363874762285  0.41563280054730706  0.26740637674488  1.0000
  H   H5        1.0  0.4154794999064535  0.5433723486995135  0.2674021357826604  1.0000
  H   H6        1.0  0.5845541746437917  0.4566758328592968  0.7673699977969903  1.0000
  H   H7        1.0  0.5403309922080196  0.9739508439330536  0.050465036751369007  1.0000
  H   H8        1.0  0.45965306195380157  0.02606079709967451  0.5504693919204513  1.0000
  H   H9        1.0  0.026036194601026404  0.4596106245142267  0.550447118190192  1.0000
  H   H10       1.0  0.9739232318970819  0.5403386635992361  0.0504536622279588  1.0000
  H   H11       1.0  0.6233771928864584  0.20898548525730118  0.9838883096609194  1.0000
  H   H12       1.0  0.37660248321479634  0.7910259771817467  0.4839017328881496  1.0000
  H   H13       1.0  0.791014343001379  0.3765854415529333  0.48388449163365266  1.0000
  H   H14       1.0  0.2089661549285609  0.6233961662861844  0.98391637378176  1.0000
  H   H15       1.0  0.5887756618108356  0.0324088206785405  0.8391341285414099  1.0000
  H   H16       1.0  0.411220911393599  0.9676124050188619  0.3391382684310145  1.0000
  H   H17       1.0  0.9675812298405332  0.41118303049935173  0.33911853876454495  1.0000
  H   H18       1.0  0.03243053898921031  0.5888096389934604  0.839129820596497  1.0000
  C   C1        1.0  0.7239342842344599  0.7239343696456544  0.8855199336899416  1.0000
  C   C2        1.0  0.2760446481460335  0.2760558768868293  0.38549427948321113  1.0000
  C   C3        1.0  0.33493371706845204  0.0321084950683428  0.928496320393556  1.0000
  C   C4        1.0  0.6650582321746583  0.9678945520837345  0.42850649399551327  1.0000
  C   C5        1.0  0.9679004642039076  0.6650427775512072  0.4285001348038264  1.0000
  C   C6        1.0  0.0321017286881684  0.3349502418462436  0.928524317953716  1.0000
  C   C7        1.0  0.5998812048853849  0.5998258688351896  0.75481027058602  1.0000
  C   C8        1.0  0.4001786643742377  0.4002180898692131  0.2548290628606651  1.0000
  C   C9        1.0  0.5330266288483896  0.059787492140784985  0.9507482876561894  1.0000
  C   C10       1.0  0.46696339635507667  0.9402251939578435  0.4507658346347156  1.0000
  C   C11       1.0  0.9402063751773895  0.4669416738080231  0.4507447139717939  1.0000
  C   C12       1.0  0.05978763301165906  0.5330425474937499  0.9507513813152427  1.0000
  O   O1        1.0  0.228978292033382  0.9932121975939694  0.052298654119525195  1.0000
  O   O2        1.0  0.7710183059767388  0.006807243560473396  0.5523068832749445  1.0000
  O   O3        1.0  0.006857901366281216  0.7710160148485342  0.5522924951899667  1.0000
  O   O4        1.0  0.9931917718795162  0.2289887842921559  0.052308234673425595  1.0000
  O   O5        1.0  0.8784553986081248  0.8784391254492476  0.8539322805830949  1.0000
  O   O6        1.0  0.12150740705821761  0.1215333293645386  0.3539145589369355  1.0000
  O   O7        1.0  0.28497623129140254  0.05445802325564841  0.7882529410323755  1.0000
  O   O8        1.0  0.7149882357737667  0.9455030799073967  0.2882561473065834  1.0000
  O   O9        1.0  0.9454842256723096  0.7149801173920592  0.28825929040196024  1.0000
  O   O10       1.0  0.054477750727954785  0.2849810078658805  0.7882594145277579  1.0000
  O   O11       1.0  0.6813478900143792  0.6813676764991285  0.031823345652711096  1.0000
  O   O12       1.0  0.3186417774972909  0.3186443810896477  0.5317989480349538  1.0000
