data_image0
_chemical_formula_structural       Co3P4H22C16N2O20
_chemical_formula_sum              "Co3 P4 H22 C16 N2 O20"
_cell_length_a       8.992438925481725
_cell_length_b       8.84662377534651
_cell_length_c       9.752394876219958
_cell_angle_alpha    101.80251496125278
_cell_angle_beta     108.64623964643367
_cell_angle_gamma    109.60362732759846

_space_group_name_H-M_alt    "P 1"
_space_group_IT_number       1

loop_
  _space_group_symop_operation_xyz
  'x, y, z'

loop_
  _atom_site_type_symbol
  _atom_site_label
  _atom_site_symmetry_multiplicity
  _atom_site_fract_x
  _atom_site_fract_y
  _atom_site_fract_z
  _atom_site_occupancy
  Co  Co1       1.0  0.2547700998976907  0.24350730883941907  0.5281152347691884  1.0000
  Co  Co2       1.0  0.7452112413192751  0.7564900285970851  0.4718742579745197  1.0000
  Co  Co3       1.0  0.999999064311936  0.9999967375746408  7.808288274835983e-07  1.0000
  P   P1        1.0  0.28005402879865215  0.9640353267944164  0.3029592742569348  1.0000
  P   P2        1.0  0.7199488918952568  0.035968295838912895  0.6970397512399417  1.0000
  P   P3        1.0  0.915281641465036  0.8938823950865853  0.2605184121555126  1.0000
  P   P4        1.0  0.0847173255383069  0.10610974690080609  0.7394805220544001  1.0000
  H   H1        1.0  0.4857026961697812  0.8779536636928427  0.39046514583706937  1.0000
  H   H2        1.0  0.5142984483351539  0.12205388177304852  0.6095371127664676  1.0000
  H   H3        1.0  0.09251569694232119  0.8515185954760864  0.5181868121556475  1.0000
  H   H4        1.0  0.9074831832782381  0.14848124013084166  0.4818124093491747  1.0000
  H   H5        1.0  0.9173007691518649  0.18689184031453715  0.14122075922198013  1.0000
  H   H6        1.0  0.08268413664416831  0.8130976867377767  0.8587643280332314  1.0000
  H   H7        1.0  0.1215900519690365  0.282721008999637  0.22027533872900307  1.0000
  H   H8        1.0  0.8784041566199647  0.7172788823308237  0.7797235349802704  1.0000
  H   H9        1.0  0.43756628286865856  0.28137702147877525  0.8909266033120814  1.0000
  H   H10       1.0  0.5624362107354627  0.7186151448677336  0.1090764556035353  1.0000
  H   H11       1.0  0.120863272794864  0.5913023558573869  0.21137143232716937  1.0000
  H   H12       1.0  0.8791449030011974  0.4087025267829744  0.7886303935693774  1.0000
  H   H13       1.0  0.008655822655313677  0.657271172535232  0.06691457203474724  1.0000
  H   H14       1.0  0.9913488509422236  0.3427337563078865  0.9330872506057375  1.0000
  H   H15       1.0  0.9493157812237528  0.4602712728848316  0.3665330177201724  1.0000
  H   H16       1.0  0.05069237627061794  0.5397335568341219  0.6334657170891375  1.0000
  H   H17       1.0  0.6612700196552198  0.236885849556252  0.32203319538614045  1.0000
  H   H18       1.0  0.3387428668675908  0.7631164422215232  0.6779705998116724  1.0000
  H   H19       1.0  0.39971924153238797  0.15339122488043697  0.0730211766136222  1.0000
  H   H20       1.0  0.60029311891671  0.8466072689491212  0.9269848785730231  1.0000
  H   H21       1.0  0.6959406350013496  0.4915928150883673  0.921303686924894  1.0000
  H   H22       1.0  0.3040571234737682  0.5084018715588526  0.07869328123981485  1.0000
  C   C1        1.0  0.07989849144856002  0.8063228035288857  0.3025424822362196  1.0000
  C   C2        1.0  0.9201004156660773  0.19367446165804125  0.6974563000494953  1.0000
  C   C3        1.0  0.01783021000225911  0.6342696697898375  0.17495408741044116  1.0000
  C   C4        1.0  0.9821767963607684  0.36573522237129197  0.8250473939466189  1.0000
  C   C5        1.0  0.8484702990615673  0.497838184910826  0.1504762562342563  1.0000
  C   C6        1.0  0.1515350117947278  0.5021629188228545  0.8495271405721353  1.0000
  C   C7        1.0  0.8337556172485278  0.42077835706091793  0.2610516254719498  1.0000
  C   C8        1.0  0.16624793211174446  0.5792240638043751  0.7389525044971775  1.0000
  C   C9        1.0  0.6740799451513196  0.29594089655651595  0.2361840326896781  1.0000
  C   C10       1.0  0.3259329291703708  0.7040613599403185  0.7638177017833099  1.0000
  C   C11       1.0  0.5296322958437472  0.2468453711710764  0.09975005317111396  1.0000
  C   C12       1.0  0.470379456732502  0.7531517363660426  0.9002494279617537  1.0000
  C   C13       1.0  0.6995772099789406  0.44243415273133013  0.015418959595905375  1.0000
  C   C14       1.0  0.30042402740935603  0.5575657167554837  0.9845840420751343  1.0000
  C   C15       1.0  0.43018301632236705  0.4847675639598918  0.4214537139912052  1.0000
  C   C16       1.0  0.5697960567434563  0.5152326451856553  0.5785520146912334  1.0000
  N   N1        1.0  0.5473579902404709  0.3205535986332962  0.9943694268912892  1.0000
  N   N2        1.0  0.45265142097790084  0.6794461689272352  0.005633925831361341  1.0000
  O   O1        1.0  0.39749025126302223  0.8692170273373137  0.28786893118608237  1.0000
  O   O2        1.0  0.6025109556224636  0.1307827539471518  0.7121289186728958  1.0000
  O   O3        1.0  0.23271377884775996  0.023664233413669  0.16788697831825766  1.0000
  O   O4        1.0  0.7672856213459411  0.9763393825010097  0.8321089528353197  1.0000
  O   O5        1.0  0.3771265777123248  0.10902793058868808  0.46310206554309724  1.0000
  O   O6        1.0  0.6228832752887853  0.8909806875577144  0.5368947538168669  1.0000
  O   O7        1.0  0.002140801647669791  0.0787102565304494  0.37674465498157156  1.0000
  O   O8        1.0  0.9978505444933958  0.9212832149114332  0.6232512289687974  1.0000
  O   O9        1.0  0.7534530233231607  0.7787855599891742  0.2775337435006974  1.0000
  O   O10       1.0  0.2465488635250139  0.22121051966913538  0.7224728930610738  1.0000
  O   O11       1.0  0.8551236481862928  0.8827006544894117  0.09138543377424208  1.0000
  O   O12       1.0  0.1448787586350306  0.1172992054766411  0.9086179124362912  1.0000
  O   O13       1.0  0.12081754145376784  0.7793056997841036  0.44679790666660313  1.0000
  O   O14       1.0  0.8791830794692858  0.2206954067516875  0.55320205125701  1.0000
  O   O15       1.0  0.27243509069324295  0.3903436900976588  0.3953351333625434  1.0000
  O   O16       1.0  0.7275492962465435  0.6096473562511519  0.6046633959438379  1.0000
  O   O17       1.0  0.4770473736402535  0.5518333228326425  0.33212591462661567  1.0000
  O   O18       1.0  0.522935733798363  0.4481706556988314  0.6678785876854575  1.0000
  O   O19       1.0  0.01805239374087361  0.22028233454084054  0.11659157588993448  1.0000
  O   O20       1.0  0.9819400289498645  0.7797188033593512  0.8834039095324187  1.0000
