data_image0
_chemical_formula_structural       ZnSiH30C44N6O12F6
_chemical_formula_sum              "Zn1 Si1 H30 C44 N6 O12 F6"
_cell_length_a       7.650121493491864
_cell_length_b       12.21089790255156
_cell_length_c       16.51816035067747
_cell_angle_alpha    99.51381891392705
_cell_angle_beta     89.99777886403533
_cell_angle_gamma    108.24368721739992

_space_group_name_H-M_alt    "P 1"
_space_group_IT_number       1

loop_
  _space_group_symop_operation_xyz
  'x, y, z'

loop_
  _atom_site_type_symbol
  _atom_site_label
  _atom_site_symmetry_multiplicity
  _atom_site_fract_x
  _atom_site_fract_y
  _atom_site_fract_z
  _atom_site_occupancy
  Zn  Zn1       1.0  0.21661763422842734  0.9999636776269512  0.5000796361639601  1.0000
  Si  Si1       1.0  0.7121673538132498  0.9999520537790048  0.5001193837899436  1.0000
  H   H1        1.0  0.12100339947379266  0.2275650842679083  0.5203163030821898  1.0000
  H   H2        1.0  0.8933379761757861  0.7721477137286497  0.4798845471976847  1.0000
  H   H3        1.0  0.22295918897224712  0.42643191503510997  0.6104011421325808  1.0000
  H   H4        1.0  0.7963138617245136  0.5735156706577269  0.38950159936693035  1.0000
  H   H5        1.0  0.562029056296538  0.2983476973212333  0.7549961409434971  1.0000
  H   H6        1.0  0.2641433291962371  0.701706217026519  0.2453087646467367  1.0000
  H   H7        1.0  0.47117458912200044  0.11257260741982829  0.6515410059384692  1.0000
  H   H8        1.0  0.3589659424643088  0.8872477441678015  0.34897672234517774  1.0000
  H   H9        1.0  0.5297873627571049  0.6598390503145453  0.8540860174446934  1.0000
  H   H10       1.0  0.8704495246528979  0.3407098938901426  0.14563551273921857  1.0000
  H   H11       1.0  0.8557612793884529  0.5739485246474912  0.883915859688777  1.0000
  H   H12       1.0  0.2822763670750348  0.42629810274151947  0.11579376989014631  1.0000
  H   H13       1.0  0.8724704967378543  0.87017565937235  0.753550466704567  1.0000
  H   H14       1.0  0.0018941960396076855  0.13022526866482306  0.24661988705175727  1.0000
  H   H15       1.0  0.9575010710411007  0.9760546839213262  0.6354376053755642  1.0000
  H   H16       1.0  0.9810800106750223  0.024083311641767604  0.36455757024318547  1.0000
  H   H17       1.0  0.3867873002290168  0.8397246177693204  0.5817043534666198  1.0000
  H   H18       1.0  0.5464994439631853  0.16010381155910378  0.41832130124958405  1.0000
  H   H19       1.0  0.3174995623889102  0.7267807383769523  0.6993014210571146  1.0000
  H   H20       1.0  0.5903226039978549  0.2732210525104933  0.3008335326501737  1.0000
  H   H21       1.0  0.7261903991540851  0.8796139260366261  0.10083430915422302  1.0000
  H   H22       1.0  0.8463854335929994  0.1199449110066197  0.8989784139298962  1.0000
  H   H23       1.0  0.7076495749807918  0.9303604488950298  0.2536546659087904  1.0000
  H   H24       1.0  0.7770179209795032  0.06935805319702838  0.7461632891849632  1.0000
  H   H25       1.0  0.6298310948368524  0.7757704178700706  0.33817313026063534  1.0000
  H   H26       1.0  0.8532566550484475  0.22403040250665635  0.6617324425734735  1.0000
  H   H27       1.0  0.5662373737319086  0.565334937773656  0.27121355588563023  1.0000
  H   H28       1.0  0.0001507659445891597  0.43443624441456297  0.7287337328052812  1.0000
  H   H29       1.0  0.5920326846206976  0.5155477747159479  0.12086841217734451  1.0000
  H   H30       1.0  0.07636059891470377  0.4840277261150731  0.8790430672200245  1.0000
  C   C1        1.0  0.22449580504859767  0.24913875291917972  0.5708327280943519  1.0000
  C   C2        1.0  0.9753015076855008  0.7506709179814377  0.4293505933754956  1.0000
  C   C3        1.0  0.2774791613487864  0.357766630271719  0.6219223966115804  1.0000
  C   C4        1.0  0.9196615884714421  0.6421546845691638  0.37810636458151237  1.0000
  C   C5        1.0  0.3984361379864155  0.3764955776210641  0.6900161101867679  1.0000
  C   C6        1.0  0.02204336166189341  0.6235348186412537  0.3100351022467364  1.0000
  C   C7        1.0  0.4670210650719824  0.28699289857363647  0.7030344845154843  1.0000
  C   C8        1.0  0.18030742814087827  0.7130224395516079  0.2972193815575892  1.0000
  C   C9        1.0  0.4144864803039141  0.1829130398360661  0.6465023122721547  1.0000
  C   C10       1.0  0.231806785260801  0.8169690406942536  0.3538968307544508  1.0000
  C   C11       1.0  0.4528927397264157  0.4926894240331023  0.7449484915944423  1.0000
  C   C12       1.0  0.9602978493365198  0.5075607203590167  0.2548252100420854  1.0000
  C   C13       1.0  0.5859431885832863  0.5961863712922905  0.8758168024975105  1.0000
  C   C14       1.0  0.9902697214004662  0.404375113488669  0.12393443105941057  1.0000
  C   C15       1.0  0.7944417501581569  0.6448647350591087  0.8868586375790102  1.0000
  C   C16       1.0  0.1499784059423206  0.3555578188824029  0.11299352160531842  1.0000
  C   C17       1.0  0.8276847859192031  0.713564250054226  0.9747442091743606  1.0000
  C   C18       1.0  0.11420933415436708  0.28642041852756955  0.02521641803957659  1.0000
  C   C19       1.0  0.526263421758479  0.5846856012652779  0.9633089258308871  1.0000
  C   C20       1.0  0.9420781836612663  0.41557551351608885  0.03639603262829642  1.0000
  C   C21       1.0  0.0394147023974014  0.7191475769241934  0.8016935091959425  1.0000
  C   C22       1.0  0.32012692474391  0.28112546920394976  0.1983674521831844  1.0000
  C   C23       1.0  0.08902686099592934  0.7900997690898919  0.7349443148973193  1.0000
  C   C24       1.0  0.2985725846871219  0.21019046557845653  0.265142129246037  1.0000
  C   C25       1.0  0.9878490424523889  0.8617309182337606  0.7175044007606246  1.0000
  C   C26       1.0  0.125774979613098  0.1386132386893877  0.28261940179061174  1.0000
  C   C27       1.0  0.03547128115645384  0.9212984670248828  0.6519942507970242  1.0000
  C   C28       1.0  0.11379651349883352  0.07885941989255228  0.3480489077928865  1.0000
  C   C29       1.0  0.274214001067399  0.8435358490779304  0.621557512715853  1.0000
  C   C30       1.0  0.4301629737579163  0.15643444347890068  0.3785044760194793  1.0000
  C   C31       1.0  0.2366049474904342  0.7820123448854371  0.6868103725801119  1.0000
  C   C32       1.0  0.45413071634421  0.21807362083157494  0.3132895547383399  1.0000
  C   C33       1.0  0.6565591752125569  0.6947320563579352  0.10278925355677869  1.0000
  C   C34       1.0  0.9616082239579385  0.3048610482867318  0.8970745114136986  1.0000
  C   C35       1.0  0.6911236581969717  0.8118089181934564  0.13893108517980576  1.0000
  C   C36       1.0  0.8790363113179966  0.1878227155556544  0.8609329800578465  1.0000
  C   C37       1.0  0.6814843976843648  0.8397975754520528  0.22385298165342957  1.0000
  C   C38       1.0  0.8413584069164842  0.15991197189681117  0.7759956333852925  1.0000
  C   C39       1.0  0.636546919635947  0.7517675984134228  0.2718973539872421  1.0000
  C   C40       1.0  0.8842167408200727  0.247977072206389  0.7279943393472975  1.0000
  C   C41       1.0  0.6013649433490685  0.6349981923034989  0.2345292382264219  1.0000
  C   C42       1.0  0.9658171675845252  0.36473517897908886  0.7653879134919135  1.0000
  C   C43       1.0  0.6129887586511487  0.6057574669834337  0.1498621351352725  1.0000
  C   C44       1.0  0.006904817731928897  0.39387853207708196  0.8500232889509078  1.0000
  N   N1        1.0  0.2936935133084618  0.16392678839029168  0.5825723689968354  1.0000
  N   N2        1.0  0.12982949053204604  0.8358612582692898  0.4177590040437238  1.0000
  N   N3        1.0  0.668249678059624  0.6657553168640077  0.01601996229531013  1.0000
  N   N4        1.0  0.0025188002503852796  0.33405044584694815  0.9838271617937121  1.0000
  N   N5        1.0  0.1742703005106066  0.9111422927795803  0.604337530212497  1.0000
  N   N6        1.0  0.2626670412558241  0.08882912872864067  0.395693582759435  1.0000
  O   O1        1.0  0.4399144002362121  0.5817854099971668  0.7249969447472963  1.0000
  O   O2        1.0  0.857959728480353  0.4183692795229064  0.2745165906553169  1.0000
  O   O3        1.0  0.5208759229615937  0.48726172049762073  0.820331328640435  1.0000
  O   O4        1.0  0.03393781108159291  0.5132663622921712  0.1794638679990257  1.0000
  O   O5        1.0  0.869094261345751  0.7172642047372335  0.8277691160466387  1.0000
  O   O6        1.0  0.1519165567970902  0.2833565566218113  0.1722817006470265  1.0000
  O   O7        1.0  0.13247640756224394  0.6663517369928158  0.8276498373648593  1.0000
  O   O8        1.0  0.4661348575742467  0.33362887934414687  0.17241674391119935  1.0000
  O   O9        1.0  0.9643165873857528  0.7930543761923943  0.003455289213292225  1.0000
  O   O10       1.0  0.17117515696903507  0.20675126275950362  0.9966978159164839  1.0000
  O   O11       1.0  0.38105596201143754  0.5220805135660243  0.983582793339323  1.0000
  O   O12       1.0  0.859634811465199  0.4781422704315261  0.015934753082206  1.0000
  F   F1        1.0  0.4851900036319706  0.0002692575882506002  0.5001883914284591  1.0000
  F   F2        1.0  0.7164497929138849  0.0126649513860002  0.6045556205844989  1.0000
  F   F3        1.0  0.7034669442755258  0.9872389549967338  0.3956894643171225  1.0000
  F   F4        1.0  0.7874115290854959  0.14862011949799128  0.5091995349788617  1.0000
  F   F5        1.0  0.6380992149529517  0.8512745918229923  0.4910661666710182  1.0000
  F   F6        1.0  0.9406241997065621  0.9996912177045442  0.5000078969885776  1.0000
