data_image0
_chemical_formula_structural       Gd2H50C58N2O12
_chemical_formula_sum              "Gd2 H50 C58 N2 O12"
_cell_length_a       8.063120299667885
_cell_length_b       12.816660562851757
_cell_length_c       12.957
_cell_angle_alpha    94.36463961582672
_cell_angle_beta     92.63461892410668
_cell_angle_gamma    100.91569645486511

_space_group_name_H-M_alt    "P 1"
_space_group_IT_number       1

loop_
  _space_group_symop_operation_xyz
  'x, y, z'

loop_
  _atom_site_type_symbol
  _atom_site_label
  _atom_site_symmetry_multiplicity
  _atom_site_fract_x
  _atom_site_fract_y
  _atom_site_fract_z
  _atom_site_occupancy
  Gd  Gd1       1.0  0.2313536346891709  0.979999521949857  0.4562016019720332  1.0000
  Gd  Gd2       1.0  0.7686503196140322  0.0199997786361479  0.5437991530942838  1.0000
  H   H1        1.0  0.07387584084952438  0.3819443268568463  0.6095861298982754  1.0000
  H   H2        1.0  0.9261236374097309  0.6180565689258586  0.3904146172165782  1.0000
  H   H3        1.0  0.21842016436553993  0.2186998724815439  0.3370566258639016  1.0000
  H   H4        1.0  0.7815812905166482  0.7813034160962147  0.6629412707858721  1.0000
  H   H5        1.0  0.3817144238448478  0.3913870937271681  0.2863072746818959  1.0000
  H   H6        1.0  0.6182857895103595  0.6086161948505904  0.7136929018048691  1.0000
  H   H7        1.0  0.3963105902407165  0.5575786740071749  0.4003701188574881  1.0000
  H   H8        1.0  0.6036906196094803  0.4424238169722301  0.5996307978748163  1.0000
  H   H9        1.0  0.2063289989438601  0.2374394457240712  0.7222860068192176  1.0000
  H   H10       1.0  0.7936735015345064  0.7625510812800798  0.2777171333250693  1.0000
  H   H11       1.0  0.7468646611755076  0.2744320572153853  0.7183740907060071  1.0000
  H   H12       1.0  0.25313829663269866  0.7255680409689731  0.2816297830327343  1.0000
  H   H13       1.0  0.7805837255890468  0.4384079092779913  0.8417821834699524  1.0000
  H   H14       1.0  0.2194135146482239  0.5615937841030672  0.15821701610197894  1.0000
  H   H15       1.0  0.5267375404174359  0.5012339337402381  0.9043388063869459  1.0000
  H   H16       1.0  0.47325648166992806  0.4987653668457668  0.09565549030035923  1.0000
  H   H17       1.0  0.12804372644890089  0.7854166307892001  0.712658702870826  1.0000
  H   H18       1.0  0.8719502956384632  0.2145826697968118  0.2873409963016229  1.0000
  H   H19       1.0  0.2971015845903294  0.6836829611963465  0.0024247040703216007  1.0000
  H   H20       1.0  0.7028973872378899  0.3163203273814119  0.9975762086862476  1.0000
  H   H21       1.0  0.5944448608341162  0.7486505372294019  0.9634021353176865  1.0000
  H   H22       1.0  0.40555337589815105  0.2513503585533101  0.0365954891490148  1.0000
  H   H23       1.0  0.659182093861908  0.834613294639901  0.7987468496335312  1.0000
  H   H24       1.0  0.3408136761834655  0.1653836131510573  0.20124808870942706  1.0000
  H   H25       1.0  0.890778161391225  0.0167750885055042  0.2994740302941992  1.0000
  H   H26       1.0  0.10922554788000131  0.983223414482154  0.7005274295038788  1.0000
  H   H27       1.0  0.8010792689647133  0.0383884086044972  0.12050251413014483  1.0000
  H   H28       1.0  0.1989214508215156  0.9616124871782077  0.8794998120656745  1.0000
  H   H29       1.0  0.2556599115593059  0.9334349326554587  0.02482858854660459  1.0000
  H   H30       1.0  0.7443442714088206  0.0665691535206463  0.9751717615333462  1.0000
  H   H31       1.0  0.3248413300826627  0.9158750073731667  0.20931906647762596  1.0000
  H   H32       1.0  0.6751628692525316  0.0841250908111917  0.7906817556405273  1.0000
  H   H33       1.0  0.3182486469656283  0.6520079379071149  0.5512008220741224  1.0000
  H   H34       1.0  0.681749589766639  0.34799295787559  0.4487991177433557  1.0000
  H   H35       1.0  0.3035090665964121  0.575817355485654  0.6603264759468104  1.0000
  H   H36       1.0  0.6964896601998304  0.42418513549375086  0.33967282619074274  1.0000
  H   H37       1.0  0.11721501170790559  0.597646824737609  0.5948163612922955  1.0000
  H   H38       1.0  0.8827847115833336  0.4023548686434495  0.4051836810907972  1.0000
  H   H39       1.0  0.0769581906620687  0.3571661365034799  0.8250167002973401  1.0000
  H   H40       1.0  0.9230383144792571  0.6428331640825249  0.17497998276830634  1.0000
  H   H41       1.0  0.1891667094115093  0.4913461069903917  0.8297251022770666  1.0000
  H   H42       1.0  0.8108379963547137  0.508651598398913  0.17027092349781733  1.0000
  H   H43       1.0  0.1933711155730506  0.4193245711464471  0.9406071621612  1.0000
  H   H44       1.0  0.8066266310952558  0.5806747294395578  0.059388012851052004  1.0000
  H   H45       1.0  0.9209479874034159  0.6976704434672172  0.8202252758021942  1.0000
  H   H46       1.0  0.07904974289782268  0.3023328451105414  0.17977405787340936  1.0000
  H   H47       1.0  0.9770132748670831  0.7368963303396328  0.9541374804544847  1.0000
  H   H48       1.0  0.022984455434162495  0.2631069582381258  0.045863396788306005  1.0000
  H   H49       1.0  0.9882397534121807  0.606914917569199  0.9023884409036497  1.0000
  H   H50       1.0  0.011755003771135406  0.3930867758118595  0.09761300299148701  1.0000
  C   C1        1.0  0.035371261389748596  0.1908453452907111  0.5072477724522458  1.0000
  C   C2        1.0  0.9646301934924324  0.8091579432870474  0.4927524395483049  1.0000
  C   C3        1.0  0.137508093646332  0.2909439382652579  0.4764884184182138  1.0000
  C   C4        1.0  0.8624941126988618  0.7090577551158006  0.5235093796416805  1.0000
  C   C5        1.0  0.14460277963063106  0.38542265326291403  0.5397865273987037  1.0000
  C   C6        1.0  0.8553949670376682  0.6145766473230907  0.46021482188228197  1.0000
  C   C7        1.0  0.2227363740172663  0.2928350439540424  0.3846456364085072  1.0000
  C   C8        1.0  0.7772645908009467  0.7071666494270161  0.6153536697047743  1.0000
  C   C9        1.0  0.3144748107774901  0.3890884152813284  0.3574677743182093  1.0000
  C   C10       1.0  0.6855241610507362  0.61091487329643  0.64253159487118  1.0000
  C   C11       1.0  0.3226099352672165  0.4827711271253037  0.42180078369145957  1.0000
  C   C12       1.0  0.677387304970054  0.5172305662557548  0.5782007312312488  1.0000
  C   C13       1.0  0.23755743392132436  0.4823372336226867  0.513871744072965  1.0000
  C   C14       1.0  0.7624420443379237  0.5176636621600181  0.4861297748254786  1.0000
  C   C15       1.0  0.4523362297821905  0.1497961485892958  0.6390037509101134  1.0000
  C   C16       1.0  0.5476801397908204  0.850203151996716  0.3609958157268736  1.0000
  C   C17       1.0  0.4743188530841778  0.2459585937046356  0.7152608996141512  1.0000
  C   C18       1.0  0.5256818830691188  0.7540383140863156  0.2847442139706473  1.0000
  C   C19       1.0  0.3313490474331644  0.2817221061379911  0.7506814506878783  1.0000
  C   C20       1.0  0.6686497120971993  0.7182724088579135  0.2493226544440361  1.0000
  C   C21       1.0  0.3477028694063549  0.37315718583055  0.8193575795765045  1.0000
  C   C22       1.0  0.6522943871979833  0.6268405195587619  0.1806428638172193  1.0000
  C   C23       1.0  0.6370043711533171  0.3017912758306238  0.7487274198955661  1.0000
  C   C24       1.0  0.3629978515589444  0.698206429558681  0.25127548090407714  1.0000
  C   C25       1.0  0.6544314270220397  0.39333323370212975  0.8170062365524233  1.0000
  C   C26       1.0  0.34556756117324033  0.606666066883875  0.1829936046751612  1.0000
  C   C27       1.0  0.511536066732468  0.4287450052629609  0.8518992353913575  1.0000
  C   C28       1.0  0.4884639179578159  0.5712534977246975  0.1480974871638168  1.0000
  C   C29       1.0  0.4346220521740563  0.8691820047443599  0.6484542325540732  1.0000
  C   C30       1.0  0.5653791740432085  0.1308164982432984  0.3515448408656568  1.0000
  C   C31       1.0  0.3971482231466225  0.8152930697982866  0.7462382818826613  1.0000
  C   C32       1.0  0.602847546898751  0.1847038379926715  0.25375820002748384  1.0000
  C   C33       1.0  0.22900478086468468  0.7772292837223914  0.7686364525080978  1.0000
  C   C34       1.0  0.7709974418475697  0.22276842166691319  0.23136181758999194  1.0000
  C   C35       1.0  0.1901485438502633  0.7296549349163968  0.8604072926328784  1.0000
  C   C36       1.0  0.8098474548600265  0.2703467584646617  0.1395918714252673  1.0000
  C   C37       1.0  0.32420728053862996  0.7201212418341285  0.9300806436593306  1.0000
  C   C38       1.0  0.675786986580711  0.2798788563502299  0.06991912256495432  1.0000
  C   C39       1.0  0.49220222323307894  0.7569176441312422  0.9082357462609496  1.0000
  C   C40       1.0  0.5077937918442785  0.2430800612580626  0.09176234626821161  1.0000
  C   C41       1.0  0.5290335778953832  0.8046012639112446  0.8165209447343074  1.0000
  C   C42       1.0  0.4709649202359358  0.19539644147806  0.1834772188224321  1.0000
  C   C43       1.0  0.968540175599685  0.998609884259622  0.23655267480903328  1.0000
  C   C44       1.0  0.0314637787035252  0.0013894163263899  0.7634496238244709  1.0000
  C   C45       1.0  0.9189060635488673  0.0108178264264041  0.1347209603893305  1.0000
  C   C46       1.0  0.0810971392913302  0.9891830693563007  0.8652814368340602  1.0000
  C   C47       1.0  0.02212985420835172  0.990929809743669  0.054177669071513904  1.0000
  C   C48       1.0  0.9778750802227876  0.0090726812357431  0.9458248977693343  1.0000
  C   C49       1.0  0.16953984730997007  0.9534745912091295  0.08213333184072981  1.0000
  C   C50       1.0  0.8304638455941884  0.0465278997702825  0.9178668841355562  1.0000
  C   C51       1.0  0.2096399278914518  0.9429470905822654  0.185806557262687  1.0000
  C   C52       1.0  0.7903630299167617  0.0570530076020859  0.8141942293416877  1.0000
  C   C53       1.0  0.24492106305987696  0.5823752091226027  0.5834307278218915  1.0000
  C   C54       1.0  0.7550801467903199  0.41762728185680936  0.4165694171268228  1.0000
  C   C55       1.0  0.19339907430883582  0.41202814143703387  0.8554905040923303  1.0000
  C   C56       1.0  0.806600665349464  0.5879695639522708  0.1445053796274109  1.0000
  C   C57       1.0  0.009359141148387111  0.6909897596843138  0.8851421449847694  1.0000
  C   C58       1.0  0.9906356160349219  0.3090119336967447  0.11485775534318071  1.0000
  N   N1        1.0  0.1134561123839646  0.9670241919856366  0.263075654433834  1.0000
  N   N2        1.0  0.8865478419192455  0.0329751086003682  0.7369266441996701  1.0000
  O   O1        1.0  0.0374967632191101  0.1000299995164085  0.45549867536600175  1.0000
  O   O2        1.0  0.962508922675042  0.8999708962662964  0.5445022493177731  1.0000
  O   O3        1.0  0.9400056382586826  0.19424231666504  0.5820460781194612  1.0000
  O   O4        1.0  0.0599990511404727  0.8057593767160185  0.41795256275158726  1.0000
  O   O5        1.0  0.5830053810364149  0.1115768308350766  0.6189274600067449  1.0000
  O   O6        1.0  0.41699509371783705  0.8884232673492818  0.381076342704418  1.0000
  O   O7        1.0  0.305119118989886  0.1114547982874683  0.5982009703267225  1.0000
  O   O8        1.0  0.694882630025468  0.8885373239133898  0.4018014966238611  1.0000
  O   O9        1.0  0.31015466915224005  0.888865136835399  0.5949161438442658  1.0000
  O   O10       1.0  0.6898343868272007  0.1111341637506058  0.4050818697058602  1.0000
  O   O11       1.0  0.5885463000744977  0.8929033772834458  0.6262143057086649  1.0000
  O   O12       1.0  0.4114412693459784  0.1070951257042054  0.3737859206266166  1.0000
