data_image0
_chemical_formula_structural       Co2H26C36N4O11
_chemical_formula_sum              "Co2 H26 C36 N4 O11"
_cell_length_a       8.184243579377313
_cell_length_b       11.330970682588715
_cell_length_c       12.88614454317766
_cell_angle_alpha    104.4747880879365
_cell_angle_beta     108.49558982922775
_cell_angle_gamma    90.01857504412729

_space_group_name_H-M_alt    "P 1"
_space_group_IT_number       1

loop_
  _space_group_symop_operation_xyz
  'x, y, z'

loop_
  _atom_site_type_symbol
  _atom_site_label
  _atom_site_symmetry_multiplicity
  _atom_site_fract_x
  _atom_site_fract_y
  _atom_site_fract_z
  _atom_site_occupancy
  Co  Co1       1.0  0.3190312623351017  0.06308118858321168  0.6312027549683917  1.0000
  Co  Co2       1.0  0.6874934326028354  0.9367397994029218  0.36861571173223956  1.0000
  H   H1        1.0  0.13754104130817518  0.19398563769643565  0.0277716918810853  1.0000
  H   H2        1.0  0.06298713904445924  0.29055427633763037  0.2037974124550317  1.0000
  H   H3        1.0  0.1544395229297351  0.1975439547950374  0.3678802716426404  1.0000
  H   H4        1.0  0.15263471293238945  0.8172841728005407  0.46189875229078575  1.0000
  H   H5        1.0  0.1431890413637547  0.5975529284494243  0.4602925757569237  1.0000
  H   H6        1.0  0.4922673461048674  0.7031585883138973  0.8063586038909848  1.0000
  H   H7        1.0  0.48466565263547784  0.9185388386875317  0.7935202711727599  1.0000
  H   H8        1.0  0.04766621518374597  0.4518939302321457  0.5363788567511136  1.0000
  H   H9        1.0  0.06272375483865732  0.23246117216270082  0.5397325062920472  1.0000
  H   H10       1.0  0.580417868980291  0.2892919360716776  0.7314760608096761  1.0000
  H   H11       1.0  0.5899792624351934  0.5111042598733205  0.7379574533177546  1.0000
  H   H12       1.0  0.6524192410138171  0.0234277430812568  0.6171931893497629  1.0000
  H   H13       1.0  0.6571545104219751  0.07088271561607229  0.7448158480409859  1.0000
  H   H14       1.0  0.10857516805027957  0.8061269745703473  0.9721070753352167  1.0000
  H   H15       1.0  0.8577807189000878  0.7098280252150815  0.7961788135778322  1.0000
  H   H16       1.0  0.785833975604568  0.8026196048036313  0.6319958604117488  1.0000
  H   H17       1.0  0.6906765356659791  0.18245807172457518  0.5381246749345793  1.0000
  H   H18       1.0  0.6840066717846226  0.4023334482708023  0.5401216538215082  1.0000
  H   H19       1.0  0.6868531244055732  0.29697184953718647  0.1939436747660254  1.0000
  H   H20       1.0  0.6906852991885302  0.08145114505099119  0.20635979738656834  1.0000
  H   H21       1.0  0.5121014857175864  0.547919699111368  0.4638841407937591  1.0000
  H   H22       1.0  0.5229248043787676  0.767225657019658  0.4600842919450159  1.0000
  H   H23       1.0  0.8492936704080164  0.7108674795919968  0.2684993109505457  1.0000
  H   H24       1.0  0.8534285953482482  0.4892075334861661  0.2625777520680402  1.0000
  H   H25       1.0  0.035028270329540624  0.9767697193562269  0.3828921905394438  1.0000
  H   H26       1.0  0.9123822726518898  0.9295254162326004  0.25525425820817566  1.0000
  C   C1        1.0  0.3320918954980882  0.004462363575093799  0.38840399704366035  1.0000
  C   C2        1.0  0.2771848184854022  0.052912045098132396  0.28617751603169955  1.0000
  C   C3        1.0  0.3178336962605143  0.9975939897607304  0.18743221754544243  1.0000
  C   C4        1.0  0.2639790311995398  0.0512900483541046  0.09673556559012303  1.0000
  C   C5        1.0  0.17294623483686417  0.15558829326531762  0.10093548600807618  1.0000
  C   C6        1.0  0.1329443812603657  0.20848147659584979  0.19893065583074326  1.0000
  C   C7        1.0  0.18381772316881498  0.15707199078607914  0.2905272697288482  1.0000
  C   C8        1.0  0.22625263870636306  0.7879191727151207  0.5363674057608705  1.0000
  C   C9        1.0  0.22130407150967102  0.6654305520758682  0.5363811783627312  1.0000
  C   C10       1.0  0.31926160788982133  0.630190298719299  0.6332070620079264  1.0000
  C   C11       1.0  0.4177760489086921  0.7233187105712983  0.7271242923897033  1.0000
  C   C12       1.0  0.4144483365434227  0.8437753271583192  0.7207667429447326  1.0000
  C   C13       1.0  0.31943459288756065  0.5008965387288384  0.6353262161818664  1.0000
  C   C14       1.0  0.16996839994075677  0.4197935777091359  0.5791347765393268  1.0000
  C   C15       1.0  0.17674712738766366  0.29773010844584746  0.5806841116349942  1.0000
  C   C16       1.0  0.46559858250641645  0.32962031384148827  0.6895924755715371  1.0000
  C   C17       1.0  0.4693969143478471  0.45308967139308004  0.6926835363284028  1.0000
  C   C18       1.0  0.4035970666013355  0.8782924193457121  0.17081303723344385  1.0000
  C   C19       1.0  0.9434969280173888  0.9954717122607096  0.6113897199267556  1.0000
  C   C20       1.0  0.9905398378919513  0.9470972593006904  0.7136447685764225  1.0000
  C   C21       1.0  0.1300002606614895  0.0023401590117587  0.8123392593969639  1.0000
  C   C22       1.0  0.16664194129946713  0.9486196641749628  0.9030146081181201  1.0000
  C   C23       1.0  0.07100930740165978  0.8445296072113635  0.8989281752673506  1.0000
  C   C24       1.0  0.932875443512117  0.7917602510615963  0.8010042994741866  1.0000
  C   C25       1.0  0.8925017883571443  0.8430837629324446  0.70936146478644  1.0000
  C   C26       1.0  0.6901248687048919  0.21192393314116492  0.4637129897088741  1.0000
  C   C27       1.0  0.685789774161883  0.3345069172439635  0.46388012980003174  1.0000
  C   C28       1.0  0.6871863782551132  0.36983761349790006  0.367138627473537  1.0000
  C   C29       1.0  0.6914171750924255  0.27673676219734483  0.2731119063870509  1.0000
  C   C30       1.0  0.6937328126661768  0.15620678709964864  0.27923328312513723  1.0000
  C   C31       1.0  0.6852098328882478  0.49910835098336986  0.36505307918044144  1.0000
  C   C32       1.0  0.5915634378027121  0.5800556772145526  0.4210650883628801  1.0000
  C   C33       1.0  0.5963059397517015  0.702070719236019  0.4193121355708271  1.0000
  C   C34       1.0  0.7764804185338788  0.670462679415607  0.31046348199872403  1.0000
  C   C35       1.0  0.777774221065343  0.5470496898766726  0.30767266896786793  1.0000
  C   C36       1.0  0.232588417805445  0.1215718641567136  0.8289356906171789  1.0000
  N   N1        1.0  0.3225099885509336  0.25216079707026745  0.6334625496898453  1.0000
  N   N2        1.0  0.32101766177693475  0.876779384525193  0.627057228362048  1.0000
  N   N3        1.0  0.6891004590515877  0.7477722807822147  0.3664157283437888  1.0000
  N   N4        1.0  0.6937081458027663  0.12306616177991707  0.3728501375180216  1.0000
  O   O1        1.0  0.24133699763023492  0.02979312422120729  0.45558240278847256  1.0000
  O   O2        1.0  0.460523078457733  0.9419921083843262  0.4081831205453312  1.0000
  O   O3        1.0  0.30850536331447387  0.7817206195238026  0.12697332297781114  1.0000
  O   O4        1.0  0.5722697730161671  0.8868425372046003  0.201505842946446  1.0000
  O   O5        1.0  0.5970657111011306  0.07768497817471601  0.6684738982906921  1.0000
  O   O6        1.0  0.7855295786331168  0.9704020612325905  0.5442971941899656  1.0000
  O   O7        1.0  0.05243826058583071  0.0575737267743719  0.5914572484421114  1.0000
  O   O8        1.0  0.1814915653749978  0.21819903806143506  0.8727642579564971  1.0000
  O   O9        1.0  0.37057768261480833  0.11300835379910977  0.7982813448874353  1.0000
  O   O10       1.0  0.928465622369963  0.9225187966288005  0.3315202792011932  1.0000
  O   O11       1.0  0.3078875450734913  0.9997906636981708  0.9997846368420937  1.0000
