data_image0
_chemical_formula_structural       Zn2H20C40N6Cl4O8
_chemical_formula_sum              "Zn2 H20 C40 N6 Cl4 O8"
_cell_length_a       15.907045645938146
_cell_length_b       17.302876463868657
_cell_length_c       18.100731228639894
_cell_angle_alpha    90.2156555241037
_cell_angle_beta     92.44845678947013
_cell_angle_gamma    95.74005491240324

_space_group_name_H-M_alt    "P 1"
_space_group_IT_number       1

loop_
  _space_group_symop_operation_xyz
  'x, y, z'

loop_
  _atom_site_type_symbol
  _atom_site_label
  _atom_site_symmetry_multiplicity
  _atom_site_fract_x
  _atom_site_fract_y
  _atom_site_fract_z
  _atom_site_occupancy
  Zn  Zn1       1.0  0.4117835150177314  0.49601743661508374  0.496686524396715  1.0000
  Zn  Zn2       1.0  0.5882128009313445  0.5039926244514137  0.5032918767987768  1.0000
  H   H1        1.0  0.7162132828643947  0.4256250612653218  0.4251847482915211  1.0000
  H   H2        1.0  0.8753912326123438  0.42682528782746937  0.4270431902503305  1.0000
  H   H3        1.0  0.8886569685104531  0.6003780572631571  0.6001242123131834  1.0000
  H   H4        1.0  0.7283531997212335  0.5915069992844194  0.5914432211263334  1.0000
  H   H5        1.0  0.11133482625140798  0.3996546473079264  0.39986513446319805  1.0000
  H   H6        1.0  0.12460143643824037  0.5732097384099146  0.5729417762160836  1.0000
  H   H7        1.0  0.2837767305300432  0.5744146009732419  0.5747973699226421  1.0000
  H   H8        1.0  0.27163732046771116  0.4085077094563658  0.4085576277584338  1.0000
  H   H9        1.0  0.6213320185609916  0.2590473426078788  0.5047286526205497  1.0000
  H   H10       1.0  0.6142905541352944  0.1130842071882654  0.5047559216479698  1.0000
  H   H11       1.0  0.3429592516550953  0.0998550012678834  0.49389830389977635  1.0000
  H   H12       1.0  0.35047095906040937  0.2463489788587765  0.4938199916888096  1.0000
  H   H13       1.0  0.6570196549462821  0.9001568404606315  0.5061877342905916  1.0000
  H   H14       1.0  0.38568979585918567  0.8869293806299651  0.4953301755667285  1.0000
  H   H15       1.0  0.3786434188597596  0.7409673921060929  0.4953561592509319  1.0000
  H   H16       1.0  0.6495047860810103  0.7536628120334115  0.5062134440346497  1.0000
  H   H17       1.0  0.36399922311028376  0.4944575280541201  0.8728057321840766  1.0000
  H   H18       1.0  0.6360058900607299  0.5050580551945814  0.882964471207224  1.0000
  H   H19       1.0  0.36397935613976523  0.4946929964000832  0.11702768455084822  1.0000
  H   H20       1.0  0.6359958740914775  0.5053034031931318  0.12716251210792254  1.0000
  C   C1        1.0  0.4910467309149239  0.34786037441060097  0.49855624779742425  1.0000
  C   C2        1.0  0.5001050614736755  0.4994653095937026  0.3544391887086817  1.0000
  C   C3        1.0  0.5089247955792543  0.652147306253866  0.5014350310150278  1.0000
  C   C4        1.0  0.4999435088640494  0.500461853080651  0.6455365076623354  1.0000
  C   C5        1.0  0.7573789161856792  0.46307374252778283  0.46290007538696915  1.0000
  C   C6        1.0  0.8446697191755416  0.4639183245736476  0.4639313129742321  1.0000
  C   C7        1.0  0.892993599756302  0.5141910415423538  0.5140625037040466  1.0000
  C   C8        1.0  0.8518825230925771  0.5612312408135551  0.5609318105206924  1.0000
  C   C9        1.0  0.763969129148904  0.5566417403740402  0.5562174489268727  1.0000
  C   C10       1.0  0.1481113438707808  0.4388032098179337  0.43905540894081  1.0000
  C   C11       1.0  0.10700290805854708  0.4858445782429611  0.4859253703639369  1.0000
  C   C12       1.0  0.15532528327027958  0.5361149669247354  0.5360548406781904  1.0000
  C   C13       1.0  0.24261728341561198  0.536958971148053  0.5370855689056385  1.0000
  C   C14       1.0  0.23602412365924857  0.443386904688424  0.44377359804861544  1.0000
  C   C15       1.0  0.48630624018753815  0.2608843407253119  0.49876035929525414  1.0000
  C   C16       1.0  0.5608398151580614  0.2233547720967053  0.5020505153704491  1.0000
  C   C17       1.0  0.557164498558933  0.1429783182993418  0.5022052389506371  1.0000
  C   C18       1.0  0.47790278555658716  0.09848458774110472  0.4990560613820777  1.0000
  C   C19       1.0  0.40337705658104983  0.1357966369484203  0.49604014521816725  1.0000
  C   C20       1.0  0.4075875472849191  0.21643762040658027  0.4958951514347093  1.0000
  C   C21       1.0  0.5965997773644531  0.8642134573897023  0.504046362874135  1.0000
  C   C22       1.0  0.5220732347129696  0.901523763137966  0.5010315161725886  1.0000
  C   C23       1.0  0.4428106941387923  0.8570340969356635  0.49788452924651955  1.0000
  C   C24       1.0  0.43913430176121415  0.7766593778186816  0.49803369296230243  1.0000
  C   C25       1.0  0.5136665472940719  0.7391291982350694  0.5012906497108461  1.0000
  C   C26       1.0  0.5923912288518024  0.7835730378643291  0.5041638077209782  1.0000
  C   C27       1.0  0.4999476328379868  0.500202664678163  0.7292977483796221  1.0000
  C   C28       1.0  0.42412433123629967  0.49706261809315316  0.7687683677294646  1.0000
  C   C29       1.0  0.4239068767677807  0.4969692329254158  0.8456999744301614  1.0000
  C   C30       1.0  0.5000242644190036  0.4999829905443534  0.88817537787439  1.0000
  C   C31       1.0  0.5760832724844673  0.5029138747262678  0.8513808186140325  1.0000
  C   C32       1.0  0.5757782814264374  0.5029401838005116  0.7744173248721327  1.0000
  C   C33       1.0  0.5000333710287065  0.49990569263001544  0.9662905952786932  1.0000
  C   C34       1.0  0.4999525405181656  0.49982792041719637  0.03367722658643402  1.0000
  C   C35       1.0  0.4999689173541241  0.4997895528741553  0.11179724802759243  1.0000
  C   C36       1.0  0.42390897469007877  0.4968557697053343  0.14860060338747877  1.0000
  C   C37       1.0  0.42422992351890076  0.4968672501373986  0.2255648030680107  1.0000
  C   C38       1.0  0.500064739404486  0.49965006939663664  0.27067748419957394  1.0000
  C   C39       1.0  0.5758821386041288  0.502758158204486  0.23120268456804643  1.0000
  C   C40       1.0  0.5760909850858624  0.5027940314267809  0.15427169477978717  1.0000
  N   N1        1.0  0.7179814635154924  0.5085685969152466  0.5081141596505959  1.0000
  N   N2        1.0  0.9826115360120652  0.5217101104315488  0.5215915055540493  1.0000
  N   N3        1.0  0.017380948928270423  0.47832317453412554  0.478395106390437  1.0000
  N   N4        1.0  0.2820144295383073  0.4914612155277282  0.4918753320474352  1.0000
  N   N5        1.0  0.46607974221194576  0.016440395207275995  0.49884047803622894  1.0000
  N   N6        1.0  0.5338990418007298  0.983570286116759  0.5012472096105116  1.0000
  Cl  Cl1       1.0  0.32344214047073183  0.4926645615444799  0.7270757151746708  1.0000
  Cl  Cl2       1.0  0.6763353818269378  0.5059896726389397  0.7402420153669242  1.0000
  Cl  Cl3       1.0  0.32366736861504813  0.49370683886082395  0.2597467702900858  1.0000
  Cl  Cl4       1.0  0.6765662887690809  0.5072282132941055  0.2728790443986641  1.0000
  O   O1        1.0  0.4212463555309753  0.3782972594574971  0.49565687295339717  1.0000
  O   O2        1.0  0.5645902778853511  0.38483557223442233  0.5013621271619046  1.0000
  O   O3        1.0  0.5712218054324365  0.5026747971024575  0.3894278766983207  1.0000
  O   O4        1.0  0.42900754935629226  0.4961852139667329  0.3841456597332781  1.0000
  O   O5        1.0  0.578710388702504  0.621708283829591  0.5038918756100303  1.0000
  O   O6        1.0  0.43536398257150205  0.6151747093571628  0.4990351269538637  1.0000
  O   O7        1.0  0.42877950157545536  0.49673483202202834  0.610542347670048  1.0000
  O   O8        1.0  0.5710614540928628  0.5043447783122019  0.6158446958769801  1.0000
