data_image0
_chemical_formula_structural       Ni2H34C42N4Cl2O10
_chemical_formula_sum              "Ni2 H34 C42 N4 Cl2 O10"
_cell_length_a       8.423340557619962
_cell_length_b       10.060416531224492
_cell_length_c       15.503130996128801
_cell_angle_alpha    101.28125008379554
_cell_angle_beta     102.87488655219072
_cell_angle_gamma    104.25463364984033

_space_group_name_H-M_alt    "P 1"
_space_group_IT_number       1

loop_
  _space_group_symop_operation_xyz
  'x, y, z'

loop_
  _atom_site_type_symbol
  _atom_site_label
  _atom_site_symmetry_multiplicity
  _atom_site_fract_x
  _atom_site_fract_y
  _atom_site_fract_z
  _atom_site_occupancy
  Ni  Ni1       1.0  0.5237423952594469  0.5084272743411589  0.680793139734547  1.0000
  Ni  Ni2       1.0  0.4762610214636709  0.49157391755428387  0.3192094181001153  1.0000
  H   H1        1.0  0.7061523229782054  0.7494452893218551  0.7686007379632187  1.0000
  H   H2        1.0  0.293843543795802  0.2505556045460864  0.2314292389629884  1.0000
  H   H3        1.0  0.6467485859956951  0.6925995617525585  0.8474253851585163  1.0000
  H   H4        1.0  0.35317944478362756  0.3073713040451763  0.15257691333729181  1.0000
  H   H5        1.0  0.5739688817715916  0.07004423059742486  0.6877898434267423  1.0000
  H   H6        1.0  0.42605707746673  0.9299963823659708  0.3122192959872052  1.0000
  H   H7        1.0  0.23453976333024668  0.6772948939788177  0.5010617805704314  1.0000
  H   H8        1.0  0.7655411773362744  0.32271206520688617  0.4989574645630697  1.0000
  H   H9        1.0  0.16814206131302  0.08099322138721726  0.4686339925239977  1.0000
  H   H10       1.0  0.8318668806263716  0.9189857646299727  0.5313618464533505  1.0000
  H   H11       1.0  0.9361477280148093  0.8569576871440318  0.390562549846571  1.0000
  H   H12       1.0  0.06388567354584039  0.14301495539339726  0.6094515863644219  1.0000
  H   H13       1.0  0.9544917881809596  0.6914313646869416  0.4061216663386489  1.0000
  H   H14       1.0  0.045555767202536394  0.3085467396464523  0.5938878151678468  1.0000
  H   H15       1.0  0.07034037854510435  0.5569793455064412  0.31604845542078414  1.0000
  H   H16       1.0  0.9296363847284823  0.44298781564861395  0.6839348158768317  1.0000
  H   H17       1.0  0.13377082526843506  0.49547823470536667  0.1701929208583195  1.0000
  H   H18       1.0  0.8661701594272273  0.5044909050210719  0.8297752620248391  1.0000
  H   H19       1.0  0.13897323522735403  0.9190441352151806  0.14381970184945192  1.0000
  H   H20       1.0  0.8610663034878598  0.08097314088049498  0.8561977487995663  1.0000
  H   H21       1.0  0.07306819514353433  0.9645974726754856  0.29247282562934623  1.0000
  H   H22       1.0  0.9270174495118866  0.035412599856727005  0.7075590097965901  1.0000
  H   H23       1.0  0.18757099447354617  0.7636684356601079  0.02195878615663095  1.0000
  H   H24       1.0  0.8124276889859346  0.23635712890583696  0.9780463531832313  1.0000
  H   H25       1.0  0.23071489802284617  0.47949241405  0.053195556641483684  1.0000
  H   H26       1.0  0.7692336480512765  0.5205117573534324  0.9467819652144271  1.0000
  H   H27       1.0  0.3420185194782234  0.35010312194230403  0.9458675660298256  1.0000
  H   H28       1.0  0.6579325034105422  0.6498978265856079  0.05411629143969068  1.0000
  H   H29       1.0  0.428904886391166  0.3180196334523231  0.8012191752117631  1.0000
  H   H30       1.0  0.5710299492715335  0.6819631745152605  0.19875970327715453  1.0000
  H   H31       1.0  0.29902080691638827  0.6688121093805959  0.7455470161596127  1.0000
  H   H32       1.0  0.7009272268639323  0.33116661010604537  0.25442520704280014  1.0000
  H   H33       1.0  0.2136873684606683  0.7208510861537291  0.8881814654157199  1.0000
  H   H34       1.0  0.7862659731450492  0.27914254049531445  0.11179140562597213  1.0000
  C   C1        1.0  0.42949920731492597  0.24870478432205081  0.6165150397619359  1.0000
  C   C2        1.0  0.570510518338331  0.7513071559672184  0.3834787185120733  1.0000
  C   C3        1.0  0.377022335247986  0.09101848417947878  0.5809827198907487  1.0000
  C   C4        1.0  0.6229988005925479  0.9089913652656844  0.4190173241682658  1.0000
  C   C5        1.0  0.4658141389563609  0.013661104047052699  0.6276061377265736  1.0000
  C   C6        1.0  0.5342137553122583  0.9863678389718159  0.37240301516108343  1.0000
  C   C7        1.0  0.4148044874077499  0.8654089706150143  0.5989148583155809  1.0000
  C   C8        1.0  0.585253587484722  0.1346158793043699  0.40110326322986384  1.0000
  C   C9        1.0  0.272328445072084  0.7933714430203908  0.5228102076774306  1.0000
  C   C10       1.0  0.7277272434926588  0.20663641403201885  0.4772054180013258  1.0000
  C   C11       1.0  0.1823660628321306  0.8699604267384798  0.47567681142787416  1.0000
  C   C12       1.0  0.8176811767875876  0.13003044192668506  0.5243304165638351  1.0000
  C   C13       1.0  0.23579856781131528  0.018790721936824194  0.5042984200568128  1.0000
  C   C14       1.0  0.764225018465055  0.9812021163402563  0.4957055231611633  1.0000
  C   C15       1.0  0.5074179139490553  0.784328598944441  0.6529237819935078  1.0000
  C   C16       1.0  0.4926282650569505  0.21569715936406197  0.3471013868521169  1.0000
  C   C17       1.0  0.023633293846088883  0.7924429971162608  0.3965239802196762  1.0000
  C   C18       1.0  0.9764076014822365  0.2075403623523258  0.6034860126695492  1.0000
  C   C19       1.0  0.07730999403423058  0.63107085838174  0.2730937696470477  1.0000
  C   C20       1.0  0.922679069008474  0.36890696744030993  0.7268956154375914  1.0000
  C   C21       1.0  0.11578338698424061  0.5993280364838469  0.19116275948254474  1.0000
  C   C22       1.0  0.8841887040220726  0.4006602864469925  0.8088259095807973  1.0000
  C   C23       1.0  0.13801471048009964  0.700802322366499  0.14050008472159445  1.0000
  C   C24       1.0  0.8619827610193411  0.2991957253795405  0.859492307067484  1.0000
  C   C25       1.0  0.11828590132301998  0.8337730775162057  0.1776607795260077  1.0000
  C   C26       1.0  0.881745286076395  0.1662377989110979  0.8223522387900887  1.0000
  C   C27       1.0  0.08128774804210073  0.8613563234012741  0.26014693429431185  1.0000
  C   C28       1.0  0.9187590630193583  0.13864718506449947  0.7398722011540999  1.0000
  C   C29       1.0  0.1850145270229645  0.6779613970694667  0.055910014775427855  1.0000
  C   C30       1.0  0.8149664371033083  0.32204502877752356  0.9440814430560354  1.0000
  C   C31       1.0  0.22887618416459782  0.5635144247709148  0.018046620447087484  1.0000
  C   C32       1.0  0.7710877974554438  0.4364920056946248  0.9819292134400899  1.0000
  C   C33       1.0  0.27596470340053253  0.5424072347608017  0.9333553903711264  1.0000
  C   C34       1.0  0.7239920450899575  0.4575926909870773  0.06662903526880368  1.0000
  C   C35       1.0  0.33307124824140294  0.4254152823293609  0.9044449255607108  1.0000
  C   C36       1.0  0.6668748043654205  0.5745750561572436  0.0955330772926857  1.0000
  C   C37       1.0  0.3797762020660542  0.405382622823538  0.8236468408283246  1.0000
  C   C38       1.0  0.620167776865081  0.5946087516046673  0.1763323326414152  1.0000
  C   C39       1.0  0.3105306618765269  0.603649620241974  0.7936509381342561  1.0000
  C   C40       1.0  0.6894054201479703  0.3963332241890072  0.20632487242728814  1.0000
  C   C41       1.0  0.2647468800679533  0.6319946367858404  0.87403041159525  1.0000
  C   C42       1.0  0.7352083209343191  0.3680042738218957  0.12594724255844617  1.0000
  N   N1        1.0  0.3710502708127592  0.4934393717605303  0.7682328200278336  1.0000
  N   N2        1.0  0.6289042453764536  0.5065542121048093  0.23174599461378878  1.0000
  N   N3        1.0  0.05979337116720966  0.759949643759448  0.3065203571310136  1.0000
  N   N4        1.0  0.9402378611038174  0.240044244801588  0.693491753629914  1.0000
  Cl  Cl1       1.0  0.7379075257221784  0.5515309541443187  0.6118743013569201  1.0000
  Cl  Cl2       1.0  0.262119969478718  0.4484936238273677  0.388147782473844  1.0000
  O   O1        1.0  0.5533004350248377  0.30940592748953577  0.6906136944380848  1.0000
  O   O2        1.0  0.44670028035046977  0.6906047958607147  0.3093897688723573  1.0000
  O   O3        1.0  0.35182112902316476  0.32341634277620557  0.5769418878413434  1.0000
  O   O4        1.0  0.6481810572471146  0.676588108458155  0.4230512664523333  1.0000
  O   O5        1.0  0.6499984105562859  0.851397302233117  0.7127719616560668  1.0000
  O   O6        1.0  0.3500319909770155  0.14863565422169242  0.2872664004729089  1.0000
  O   O7        1.0  0.42836759670727537  0.651926092608342  0.6359938172780347  1.0000
  O   O8        1.0  0.5716686071172745  0.3480954448048266  0.36401926252947453  1.0000
  O   O9        1.0  0.7137246451943966  0.674179418873983  0.8052032385117016  1.0000
  O   O10       1.0  0.28623668809189695  0.3258064512179216  0.1948134676422058  1.0000
