data_image0
_chemical_formula_structural       Zn4H36C16N4O24
_chemical_formula_sum              "Zn4 H36 C16 N4 O24"
_cell_length_a       5.18803929044834
_cell_length_b       9.642013134662719
_cell_length_c       14.284974413316608
_cell_angle_alpha    90.0002757838382
_cell_angle_beta     90.0006685712609
_cell_angle_gamma    90.00134232169604

_space_group_name_H-M_alt    "P 1"
_space_group_IT_number       1

loop_
  _space_group_symop_operation_xyz
  'x, y, z'

loop_
  _atom_site_type_symbol
  _atom_site_label
  _atom_site_symmetry_multiplicity
  _atom_site_fract_x
  _atom_site_fract_y
  _atom_site_fract_z
  _atom_site_occupancy
  Zn  Zn1       1.0  0.8399992690887572  0.12485402919824647  0.0607734124219732  1.0000
  Zn  Zn2       1.0  0.1599742892209761  0.6248664513423775  0.9392218263639692  1.0000
  Zn  Zn3       1.0  0.15997640831030677  0.12486170568659817  0.5607771712838314  1.0000
  Zn  Zn4       1.0  0.8400202800430846  0.6248452923817494  0.4392299681408787  1.0000
  H   H1        1.0  0.5569623409576393  0.2219205837198857  0.2015825146291306  1.0000
  H   H2        1.0  0.4430538980296744  0.7219419267803531  0.7984151563553823  1.0000
  H   H3        1.0  0.4430377374077352  0.22193190943303157  0.7015873864757367  1.0000
  H   H4        1.0  0.5569785010081673  0.7218963758800925  0.2984193849215657  1.0000
  H   H5        1.0  0.8276850360369039  0.22035872382844704  0.3151835277058765  1.0000
  H   H6        1.0  0.17233691881866522  0.7203726978300152  0.6848113377903219  1.0000
  H   H7        1.0  0.1723092516972855  0.22037381909804307  0.8151887351103612  1.0000
  H   H8        1.0  0.8277165584103441  0.7203565655071102  0.1848208311530044  1.0000
  H   H9        1.0  0.0054244776547279  0.3529292934563415  0.2624043043888733  1.0000
  H   H10       1.0  0.994616610788995  0.8529469652427866  0.7375896145015304  1.0000
  H   H11       1.0  0.9945774874469748  0.3529269873260077  0.7624029444848617  1.0000
  H   H12       1.0  0.005459745398511  0.8529119347895389  0.23760357498672147  1.0000
  H   H13       1.0  0.6718761002211052  0.4759201133496661  0.1910889314165374  1.0000
  H   H14       1.0  0.32815672911203814  0.9759369345075514  0.808913808549022  1.0000
  H   H15       1.0  0.3281228593596239  0.4759309946426668  0.691090551262356  1.0000
  H   H16       1.0  0.6718559991346567  0.9759094587837893  0.3089009879886219  1.0000
  H   H17       1.0  0.5025217877581268  0.39921480679563365  0.09752722164311932  1.0000
  H   H18       1.0  0.49748079272632134  0.8992344432138066  0.9024808562074895  1.0000
  H   H19       1.0  0.49747068500698793  0.3992268343254323  0.5975288073605967  1.0000
  H   H20       1.0  0.5025338223998758  0.8992027102348672  0.4024694699525214  1.0000
  H   H21       1.0  0.565248880355597  0.8807857101907712  0.0691760001214732  1.0000
  H   H22       1.0  0.4347066557479663  0.38081231402243526  0.9308257142903713  1.0000
  H   H23       1.0  0.4346975713269288  0.8807990029224939  0.569164038412346  1.0000
  H   H24       1.0  0.5652637467843603  0.3807772416320744  0.4308341757923415  1.0000
  H   H25       1.0  0.6291414786515189  0.1866206026042647  0.8965239879420679  1.0000
  H   H26       1.0  0.370838562550567  0.6866093550734149  0.10348126258005412  1.0000
  H   H27       1.0  0.37083297230832807  0.18661517440625627  0.3965211844209762  1.0000
  H   H28       1.0  0.6291586340183741  0.6866261917164563  0.6034735655995505  1.0000
  H   H29       1.0  0.413181428917092  0.998608864412709  0.1260510482663335  1.0000
  H   H30       1.0  0.5867868303171946  0.49862252485294084  0.8739461688777297  1.0000
  H   H31       1.0  0.586795125617506  0.9986147837678132  0.6260522852013608  1.0000
  H   H32       1.0  0.4132039734051887  0.4985948260291125  0.37394983221987843  1.0000
  H   H33       1.0  0.39201382345326863  0.1536811602342141  0.9641602683902021  1.0000
  H   H34       1.0  0.6079686708117719  0.6536590303094911  0.03583716905860971  1.0000
  H   H35       1.0  0.6079711932838093  0.1536653066439655  0.46416469760887946  1.0000
  H   H36       1.0  0.39202286593571495  0.6536686612121443  0.535834139924539  1.0000
  C   C1        1.0  0.9194070537987142  0.2507458990536833  0.2489092275715166  1.0000
  C   C2        1.0  0.08061426655813618  0.7507601753503154  0.7510864418915517  1.0000
  C   C3        1.0  0.08060359125596508  0.2507515148637722  0.7489105741501874  1.0000
  C   C4        1.0  0.9194350764507461  0.7507317428874458  0.251099096033073  1.0000
  C   C5        1.0  0.13717458064488852  0.14883987867196413  0.2314899133139576  1.0000
  C   C6        1.0  0.8628250561199095  0.6488653945729226  0.7685012073654037  1.0000
  C   C7        1.0  0.8628157082455132  0.1488441709367549  0.7315006359958147  1.0000
  C   C8        1.0  0.13718778321791086  0.6488289514416861  0.2685114857238204  1.0000
  C   C9        1.0  0.6869388945725915  0.3973638138460771  0.1355787517628997  1.0000
  C   C10       1.0  0.31306938951981067  0.8973797785057013  0.8644244195080192  1.0000
  C   C11       1.0  0.31305481016620007  0.39737450090266435  0.6355789122970706  1.0000
  C   C12       1.0  0.6869457634969576  0.8973576829650869  0.3644158585041097  1.0000
  C   C13       1.0  0.9000344460425752  0.4357542413059434  0.0668230754154564  1.0000
  C   C14       1.0  0.09996776102832428  0.9357544403480418  0.9331697265770771  1.0000
  C   C15       1.0  0.09996237857773592  0.43575284690163574  0.5668265982388406  1.0000
  C   C16       1.0  0.9000244087004245  0.935767243068355  0.4331690038879117  1.0000
  N   N1        1.0  0.7263156059092921  0.25744009608943935  0.17329094305728182  1.0000
  N   N2        1.0  0.2736982893058908  0.757454261223863  0.8267082494680126  1.0000
  N   N3        1.0  0.2736811540707151  0.2574461269953757  0.6732930488649559  1.0000
  N   N4        1.0  0.7263288857686945  0.7574264506302697  0.3267124439418154  1.0000
  O   O1        1.0  0.1298452059063706  0.07070445203633109  0.15919912127193211  1.0000
  O   O2        1.0  0.870137613524399  0.5707253650333896  0.8407945322698325  1.0000
  O   O3        1.0  0.8701508329851039  0.07070780168814389  0.6592049725295509  1.0000
  O   O4        1.0  0.12983969587583027  0.570689864483235  0.3407928811899197  1.0000
  O   O5        1.0  0.3222589408403422  0.14691531990298048  0.28906825593463037  1.0000
  O   O6        1.0  0.6777406142431205  0.6469484319293811  0.7109256583201431  1.0000
  O   O7        1.0  0.6777313220683182  0.14692656007797916  0.7890691503861049  1.0000
  O   O8        1.0  0.32229521758223  0.6469008924926882  0.21093596443973445  1.0000
  O   O9        1.0  0.053238120480713684  0.3442014159425995  0.0388198037781819  1.0000
  O   O10       1.0  0.9467794662053208  0.8442002761026045  0.9611824856175062  1.0000
  O   O11       1.0  0.9467808289698141  0.34420264199090406  0.5388175558691444  1.0000
  O   O12       1.0  0.053256032854711984  0.8442063100496072  0.4611777332142992  1.0000
  O   O13       1.0  0.9048728607270249  0.564365293948839  0.0409695658748603  1.0000
  O   O14       1.0  0.0950942684774105  0.0643721528160128  0.9590177656043013  1.0000
  O   O15       1.0  0.0951034883253143  0.5643710969348348  0.5409751697539136  1.0000
  O   O16       1.0  0.9048694237740378  0.0643715355560204  0.45902686250684616  1.0000
  O   O17       1.0  0.5603096442604993  0.2039953811825441  0.9616664561329458  1.0000
  O   O18       1.0  0.439680773859294  0.7039845810928894  0.0383416539812202  1.0000
  O   O19       1.0  0.4396793550319841  0.2039887662357671  0.4616625232198288  1.0000
  O   O20       1.0  0.5603129903229985  0.7039901588746248  0.538330886134986  1.0000
  O   O21       1.0  0.5879554902439068  0.9677885548302565  0.10477583729337432  1.0000
  O   O22       1.0  0.41201338507261187  0.46780425421395216  0.8952184742975933  1.0000
  O   O23       1.0  0.4120228749603214  0.967792220916216  0.6047770870346484  1.0000
  O   O24       1.0  0.5879710576013933  0.46777258587874815  0.39522912517404757  1.0000
