data_image0
_chemical_formula_structural       Zn2H40C32N8O8
_chemical_formula_sum              "Zn2 H40 C32 N8 O8"
_cell_length_a       7.7869164210446975
_cell_length_b       10.207012993110192
_cell_length_c       11.757455205333592
_cell_angle_alpha    116.56657675253626
_cell_angle_beta     90.00016419586336
_cell_angle_gamma    89.9996123936012

_space_group_name_H-M_alt    "P 1"
_space_group_IT_number       1

loop_
  _space_group_symop_operation_xyz
  'x, y, z'

loop_
  _atom_site_type_symbol
  _atom_site_label
  _atom_site_symmetry_multiplicity
  _atom_site_fract_x
  _atom_site_fract_y
  _atom_site_fract_z
  _atom_site_occupancy
  Zn  Zn1       1.0  0.7537100628709085  0.17014299571641092  0.7803424499546452  1.0000
  Zn  Zn2       1.0  0.2537018476699302  0.8298591309271259  0.21965604949475898  1.0000
  H   H1        1.0  0.1258680397267469  0.21361023089126266  0.6697465202013148  1.0000
  H   H2        1.0  0.6258662839172261  0.7863893344685734  0.3302533357805189  1.0000
  H   H3        1.0  0.0260367900183596  0.18990474761511683  0.1696856349007803  1.0000
  H   H4        1.0  0.5260331329853399  0.8100964540487611  0.8303155028814827  1.0000
  H   H5        1.0  0.9925049628464251  0.7319244952747185  0.5008995411075361  1.0000
  H   H6        1.0  0.4925042145724703  0.2680786995859491  0.49910575122399337  1.0000
  H   H7        1.0  0.09777433425245621  0.47385661506920945  0.41044954928805305  1.0000
  H   H8        1.0  0.5977695827534362  0.5261463097943918  0.5895481133799052  1.0000
  H   H9        1.0  0.0442726833252607  0.3228286571559097  0.5238647784031585  1.0000
  H   H10       1.0  0.5442661042072173  0.6771691084080088  0.47613255138035265  1.0000
  H   H11       1.0  0.7822904232163808  0.6854763434511354  0.8186994022575361  1.0000
  H   H12       1.0  0.28228789006605126  0.3145168534391516  0.1812949478176549  1.0000
  H   H13       1.0  0.5182499840533836  0.43053988518098424  0.841192832135512  1.0000
  H   H14       1.0  0.0182450960401184  0.5694602070848518  0.15880532312228007  1.0000
  H   H15       1.0  0.2992083125712242  0.42752071882656395  0.8832272065596098  1.0000
  H   H16       1.0  0.7992036757553366  0.5724811878775853  0.11677214435685818  1.0000
  H   H17       1.0  0.3509280083134172  0.44868733415782475  0.7452350334824445  1.0000
  H   H18       1.0  0.8509254395780914  0.5513121479113893  0.2547652035776835  1.0000
  H   H19       1.0  0.5322975642922428  0.943706561725527  0.5456562937716497  1.0000
  H   H20       1.0  0.0322959296238565  0.0562945888301059  0.45434398566020917  1.0000
  H   H21       1.0  0.4699793155909404  0.9228798739035468  0.681606882859583  1.0000
  H   H22       1.0  0.9699760843181977  0.0771178712236775  0.3183920698443927  1.0000
  H   H23       1.0  0.17283963369685298  0.9586882087100863  0.6439531971053469  1.0000
  H   H24       1.0  0.6728420190834115  0.0413133194338755  0.3560483321614569  1.0000
  H   H25       1.0  0.2413324325619968  0.9541442157450178  0.4979780915027164  1.0000
  H   H26       1.0  0.7413302718108524  0.0458569537524909  0.5020234286561517  1.0000
  H   H27       1.0  0.10325507785903199  0.16483236446697455  0.8524237715480252  1.0000
  H   H28       1.0  0.6032533847285819  0.83517171850302  0.14757858898634887  1.0000
  H   H29       1.0  0.1927017201371584  0.12067240574154431  0.9715685078337655  1.0000
  H   H30       1.0  0.6926978367892785  0.8793290184122354  0.028433018792178216  1.0000
  H   H31       1.0  0.1833151099837096  0.3057964469930425  0.9990316905469  1.0000
  H   H32       1.0  0.6833200452153321  0.6942029269744907  0.0009691258971785659  1.0000
  H   H33       1.0  0.7170839942048701  0.3244180842152105  0.25643696785316183  1.0000
  H   H34       1.0  0.21708454642138258  0.675582080393049  0.7435624294877669  1.0000
  H   H35       1.0  0.7128673462268935  0.1303033958089088  0.17453408890170855  1.0000
  H   H36       1.0  0.21286396502369342  0.8696968275274486  0.8254670240356177  1.0000
  H   H37       1.0  0.5637911968784052  0.1486784543323694  0.003284532060185095  1.0000
  H   H38       1.0  0.0637925711856155  0.8513192822783752  0.9967162251980138  1.0000
  H   H39       1.0  0.5899279349978529  0.3418758403723601  0.07795213177241322  1.0000
  H   H40       1.0  0.08993069746340152  0.6581205908761236  0.9220447809322607  1.0000
  C   C1        1.0  0.8070488442391621  0.8777460757590563  0.7226980018157149  1.0000
  C   C2        1.0  0.3070497128783884  0.12225252253290361  0.2773009725546345  1.0000
  C   C3        1.0  0.8798471461020511  0.7255141917671822  0.6658519066094255  1.0000
  C   C4        1.0  0.3798469123233446  0.27448395204864073  0.33414362800940006  1.0000
  C   C5        1.0  0.9702385279467974  0.665321306146865  0.5505805261445005  1.0000
  C   C6        1.0  0.4702395435601758  0.3346742288530322  0.4494167469931439  1.0000
  C   C7        1.0  0.0287187440961176  0.5209257065206716  0.5004153793448581  1.0000
  C   C8        1.0  0.5287140206110338  0.47907110022197935  0.4995841140530714  1.0000
  C   C9        1.0  0.9995412880320204  0.43584285814962004  0.5643374096135148  1.0000
  C   C10       1.0  0.4995389277986888  0.5641558457146874  0.4356628076838618  1.0000
  C   C11       1.0  0.9112572906663984  0.49573047374174456  0.6805762503754664  1.0000
  C   C12       1.0  0.4112600951928016  0.5042686557652232  0.3194222636262509  1.0000
  C   C13       1.0  0.85234255112276  0.640030593121658  0.7294550547378832  1.0000
  C   C14       1.0  0.35234000121858605  0.3599710170240442  0.270543431594902  1.0000
  C   C15       1.0  0.8651176099478732  0.40987682171837747  0.7520289000581356  1.0000
  C   C16       1.0  0.3651219137531783  0.5901326078792692  0.24798275183635352  1.0000
  C   C17       1.0  0.38936721161172017  0.39388946879375203  0.8031146471669145  1.0000
  C   C18       1.0  0.8893626232381281  0.6061097936774191  0.19688472726396367  1.0000
  C   C19       1.0  0.3850271453515432  0.23205408072738012  0.7250808972212467  1.0000
  C   C20       1.0  0.8850253137081409  0.7679462996831035  0.27491888879352905  1.0000
  C   C21       1.0  0.45342935266124573  0.9908552609180178  0.6320239964764979  1.0000
  C   C22       1.0  0.9534282218612091  0.0091425708665795  0.3679749584281637  1.0000
  C   C23       1.0  0.2642984475735233  0.005470919689806001  0.6007895714052651  1.0000
  C   C24       1.0  0.7642989992119311  0.9945312430792942  0.3992132142240196  1.0000
  C   C25       1.0  0.1153485041906919  0.20016646127059803  0.9545376590908603  1.0000
  C   C26       1.0  0.6153518194564925  0.7998331957984492  0.04546391332494457  1.0000
  C   C27       1.0  0.9432915917050124  0.21614444365938823  0.01412427330131292  1.0000
  C   C28       1.0  0.44329351660206123  0.7838567635006584  0.9858776310074973  1.0000
  C   C29       1.0  0.747061422383233  0.22991570868603622  0.16548106251504177  1.0000
  C   C30       1.0  0.24705896244042688  0.7700832220538986  0.8345187773504249  1.0000
  C   C31       1.0  0.6572823419622581  0.23744254462030773  0.050430279093866714  1.0000
  C   C32       1.0  0.15728044594581553  0.7625535522619274  0.9495674821719575  1.0000
  N   N1        1.0  0.5118620672163701  0.1423842561950792  0.7158165520229502  1.0000
  N   N2        1.0  0.0118615903347106  0.8576148475642641  0.28418462314789394  1.0000
  N   N3        1.0  0.2446713516283552  0.1648504080176494  0.6566211259155423  1.0000
  N   N4        1.0  0.7446692207334917  0.8351517476218221  0.3433765172177345  1.0000
  N   N5        1.0  0.7976621505486604  0.22256920835356916  0.961045952857553  1.0000
  N   N6        1.0  0.29766132383456073  0.7774316478545273  0.03895470229274174  1.0000
  N   N7        1.0  0.9286736834485295  0.2285704020997343  0.1328901115408883  1.0000
  N   N8        1.0  0.4286739208656343  0.7714275409940329  0.867107989138013  1.0000
  O   O1        1.0  0.8648517286122798  0.9670560468952449  0.6816250660305487  1.0000
  O   O2        1.0  0.36484586043602707  0.0329433622718938  0.31837516917821057  1.0000
  O   O3        1.0  0.6924489598657075  0.9108548923385841  0.8070863144788518  1.0000
  O   O4        1.0  0.1924459043488156  0.08914430605894814  0.1929126751313675  1.0000
  O   O5        1.0  0.8972887389871005  0.2694561600609617  0.6956605651005247  1.0000
  O   O6        1.0  0.3972881902876678  0.7305496139204594  0.30434041680059215  1.0000
  O   O7        1.0  0.7928540396545714  0.47264298182975734  0.8579213072414048  1.0000
  O   O8        1.0  0.29284816802202573  0.527352606656649  0.14208586869096249  1.0000
