data_image0
_chemical_formula_structural       V8Zn2H16C20N4O21
_chemical_formula_sum              "V8 Zn2 H16 C20 N4 O21"
_cell_length_a       8.077491740249382
_cell_length_b       9.714096512748187
_cell_length_c       11.588766129084636
_cell_angle_alpha    86.281459540623
_cell_angle_beta     72.2681609271945
_cell_angle_gamma    73.29309869901711

_space_group_name_H-M_alt    "P 1"
_space_group_IT_number       1

loop_
  _space_group_symop_operation_xyz
  'x, y, z'

loop_
  _atom_site_type_symbol
  _atom_site_label
  _atom_site_symmetry_multiplicity
  _atom_site_fract_x
  _atom_site_fract_y
  _atom_site_fract_z
  _atom_site_occupancy
  V   V1        1.0  0.5325466624213246  0.9656228487010032  0.7484324780125036  1.0000
  V   V2        1.0  0.4674468515870062  0.03438194135383551  0.25156734487273263  1.0000
  V   V3        1.0  0.128201696121458  0.17251337509136994  0.8164825098676758  1.0000
  V   V4        1.0  0.8718027156886237  0.8274828879986844  0.18351727721049113  1.0000
  V   V5        1.0  0.8822936662108063  0.9223178384677055  0.8804733767842591  1.0000
  V   V6        1.0  0.11770372529912274  0.0776869883429256  0.11952650056839079  1.0000
  V   V7        1.0  0.19751854992035336  0.0088235419596145  0.5340029220776614  1.0000
  V   V8        1.0  0.8024785945156337  0.9911748241299208  0.465998251807008  1.0000
  Zn  Zn1       1.0  0.32016249087389065  0.7193034383622534  0.7146413426388278  1.0000
  Zn  Zn2       1.0  0.6798386488491274  0.28069819908562726  0.28535966986726174  1.0000
  H   H1        1.0  0.5952593431233026  0.7047179195749252  0.4534788052878298  1.0000
  H   H2        1.0  0.4047442714840699  0.29528050211824564  0.5465218828158456  1.0000
  H   H3        1.0  0.008512246738611423  0.3027768084099378  0.43735892168603396  1.0000
  H   H4        1.0  0.9914892025580214  0.6972204939237657  0.5626396940532173  1.0000
  H   H5        1.0  0.8852138731641477  0.5307338203996894  0.3362244325474251  1.0000
  H   H6        1.0  0.11478716027652074  0.46926457396160987  0.6637759309646256  1.0000
  H   H7        1.0  0.8405240872728541  0.2610042002323569  0.6488321740834522  1.0000
  H   H8        1.0  0.15947685138852574  0.7389909425583385  0.3511666755945199  1.0000
  H   H9        1.0  0.6995860917115737  0.25061678425696954  0.8307445703039206  1.0000
  H   H10       1.0  0.30041238356853495  0.74938156580442  0.16925373893644036  1.0000
  H   H11       1.0  0.49180086955148283  0.23357193175159108  0.03414819702838659  1.0000
  H   H12       1.0  0.5081984862075402  0.7664275197613153  0.9658515898605771  1.0000
  H   H13       1.0  0.18661615048208094  0.42020679325168697  0.1021460526431994  1.0000
  H   H14       1.0  0.8133833000562306  0.579795909831823  0.8978552480798354  1.0000
  H   H15       1.0  0.11044017261335172  0.6168150578276866  0.9616122317532927  1.0000
  H   H16       1.0  0.8895609901158252  0.3831865626521492  0.038387051072732055  1.0000
  C   C1        1.0  0.6542872799889137  0.6046329906526539  0.4926655197025056  1.0000
  C   C2        1.0  0.3457163576246032  0.39536541407246534  0.5073334387210977  1.0000
  C   C3        1.0  0.8828333594800384  0.3815817067708807  0.48507338369253716  1.0000
  C   C4        1.0  0.1171680783135187  0.6184156040468524  0.5149260968867395  1.0000
  C   C5        1.0  0.8152406122666349  0.506690064496759  0.42820950581030803  1.0000
  C   C6        1.0  0.18476381104652978  0.4933061901092728  0.5717894164278263  1.0000
  C   C7        1.0  0.7883168416075391  0.35773536043625864  0.6033936709371659  1.0000
  C   C8        1.0  0.21168422634234932  0.6422630084729732  0.39660409805478025  1.0000
  C   C9        1.0  0.6266689114342086  0.4595796576932116  0.6622318163121079  1.0000
  C   C10       1.0  0.37333251485627267  0.5404176616085439  0.3377685291072012  1.0000
  C   C11       1.0  0.5138376975824315  0.4417059876484403  0.7863380532178255  1.0000
  C   C12       1.0  0.486162966014561  0.5582934648043577  0.21366059870689463  1.0000
  C   C13       1.0  0.5676784398142162  0.32955905081056613  0.8604154304424084  1.0000
  C   C14       1.0  0.43232260512952086  0.6704393350667106  0.1395840682296097  1.0000
  C   C15       1.0  0.4507584910846846  0.32011449890701027  0.9752548096241113  1.0000
  C   C16       1.0  0.5492430759973886  0.6798860380292596  0.02474359026913924  1.0000
  C   C17       1.0  0.28306084568532  0.42264858080609724  0.013422118658056106  1.0000
  C   C18       1.0  0.716942921216713  0.5773530500375516  0.9865757590795212  1.0000
  C   C19       1.0  0.23862517494789862  0.5328227998771101  0.935527137242218  1.0000
  C   C20       1.0  0.7613776654629092  0.467177763451119  0.06447272220689369  1.0000
  N   N1        1.0  0.56245341925262  0.580994257776986  0.6062372755414883  1.0000
  N   N2        1.0  0.43754851767311465  0.4190052210677849  0.3937628359390999  1.0000
  N   N3        1.0  0.351641309762833  0.5419766496763716  0.8252774708450232  1.0000
  N   N4        1.0  0.6483628384859443  0.45802391459175623  0.1747212536398521  1.0000
  O   O1        1.0  0.4104020248434711  0.8497276060465425  0.7960865026104925  1.0000
  O   O2        1.0  0.589591443152564  0.15027721794439947  0.20391677963487348  1.0000
  O   O3        1.0  0.6697557127641784  0.9197559393248727  0.5954944792617738  1.0000
  O   O4        1.0  0.330236779973653  0.0802445316439488  0.4045058115009184  1.0000
  O   O5        1.0  0.3091626211543288  0.8466057382123253  0.564960639961768  1.0000
  O   O6        1.0  0.6908388051361597  0.15339158108943002  0.4350397054575481  1.0000
  O   O7        1.0  0.04950707874100862  0.7969931942634009  0.7874354910972484  1.0000
  O   O8        1.0  0.9504914568091538  0.20300843282066694  0.2125669264972885  1.0000
  O   O9        1.0  0.9999986404663234  0.9999969534463633  0.5000025833775865  1.0000
  O   O10       1.0  0.03766827370255044  0.3433603437143874  0.8195707694475232  1.0000
  O   O11       1.0  0.9623268182238436  0.6566508910333938  0.18042489226138517  1.0000
  O   O12       1.0  0.6759126527566793  0.9578881573309419  0.8379085621088719  1.0000
  O   O13       1.0  0.3240868322908597  0.042114520300494014  0.1620901440940585  1.0000
  O   O14       1.0  0.38686849406546026  0.13439518856070262  0.7547031701831912  1.0000
  O   O15       1.0  0.613133156292811  0.8656086084301937  0.24529760838417053  1.0000
  O   O16       1.0  0.13908035264611132  0.12207977333581972  0.6538656043513598  1.0000
  O   O17       1.0  0.8609201701593039  0.8779164614824712  0.3461349930994259  1.0000
  O   O18       1.0  0.9377265106929756  0.08117452923426781  0.8712152664834462  1.0000
  O   O19       1.0  0.0622720363602625  0.9188270893657774  0.1287862862710583  1.0000
  O   O20       1.0  0.8417189228874875  0.8645291772592504  0.026610243165727365  1.0000
  O   O21       1.0  0.15827547159976527  0.13547671424711177  0.9733910573681044  1.0000
