data_image0
_chemical_formula_structural       Hg4H48C52I8N16
_chemical_formula_sum              "Hg4 H48 C52 I8 N16"
_cell_length_a       9.692387012749048
_cell_length_b       13.587690713941003
_cell_length_c       15.246141375507882
_cell_angle_alpha    100.85634497934248
_cell_angle_beta     90.03801393026632
_cell_angle_gamma    110.89790635587245

_space_group_name_H-M_alt    "P 1"
_space_group_IT_number       1

loop_
  _space_group_symop_operation_xyz
  'x, y, z'

loop_
  _atom_site_type_symbol
  _atom_site_label
  _atom_site_symmetry_multiplicity
  _atom_site_fract_x
  _atom_site_fract_y
  _atom_site_fract_z
  _atom_site_occupancy
  Hg  Hg1       1.0  0.44418684118955537  0.6658441207905383  0.7729412405221653  1.0000
  Hg  Hg2       1.0  0.7782263130915652  0.3336842795494732  0.7268943548758955  1.0000
  Hg  Hg3       1.0  0.5558138678657442  0.3341586138738536  0.22705666336647576  1.0000
  Hg  Hg4       1.0  0.2217800361998599  0.6663152954245675  0.27309970323684507  1.0000
  H   H1        1.0  0.7042623487312272  0.9114635564852664  0.8576258049503167  1.0000
  H   H2        1.0  0.7924839920127836  0.0877929327800047  0.6424121144886001  1.0000
  H   H3        1.0  0.2957304283183077  0.08853981144725508  0.1423820504866313  1.0000
  H   H4        1.0  0.20751861017793524  0.9122032660059035  0.35759052045462175  1.0000
  H   H5        1.0  0.8128181242082276  0.6363888024229638  0.7725131501812684  1.0000
  H   H6        1.0  0.17595990582208285  0.36321143005373807  0.7273156906148799  1.0000
  H   H7        1.0  0.18717398149170353  0.36361941353968774  0.22749426330312875  1.0000
  H   H8        1.0  0.824045861034712  0.636784916603574  0.2726784439273615  1.0000
  H   H9        1.0  0.0732235840379262  0.8125595417335775  0.8190076399520976  1.0000
  H   H10       1.0  0.2605756648794397  0.18724148719750383  0.6807061592234831  1.0000
  H   H11       1.0  0.9267685109958633  0.1874486515174283  0.1810010813919547  1.0000
  H   H12       1.0  0.7394288428600504  0.812756467817408  0.3192882637255323  1.0000
  H   H13       1.0  0.8536943591233097  0.07238389433329931  0.8481655393799629  1.0000
  H   H14       1.0  0.7809658647268308  0.9271197434058182  0.6512625095545701  1.0000
  H   H15       1.0  0.14629864590220623  0.9276281725135931  0.15185240498450273  1.0000
  H   H16       1.0  0.2190379965811857  0.07287484702249711  0.3487398369818777  1.0000
  H   H17       1.0  0.012069232126492583  0.258433716613105  0.9147167606374111  1.0000
  H   H18       1.0  0.7533072670463027  0.7411186669790055  0.5847061638981829  1.0000
  H   H19       1.0  0.9879275573312186  0.7415818059126877  0.08528802938777606  1.0000
  H   H20       1.0  0.2466912720263608  0.258877667749168  0.4152886229713886  1.0000
  H   H21       1.0  0.35939012053483305  0.14939015068213019  0.9796796460926487  1.0000
  H   H22       1.0  0.21003031753111412  0.8502784971762695  0.5206569031931068  1.0000
  H   H23       1.0  0.6406034458292423  0.850618926402241  0.020324642403849714  1.0000
  H   H24       1.0  0.7899653268786153  0.1497161720875795  0.47934086400312037  1.0000
  H   H25       1.0  0.1976647313954772  0.9613101680366684  0.9174017826515596  1.0000
  H   H26       1.0  0.23655914007187556  0.0382680283337535  0.5831285782918413  1.0000
  H   H27       1.0  0.8023293951973329  0.0386979572432082  0.08261086272932523  1.0000
  H   H28       1.0  0.7634387739015978  0.9617249872311149  0.4168715164458519  1.0000
  H   H29       1.0  0.38570640742940293  0.3328135700132647  0.03568302295160211  1.0000
  H   H30       1.0  0.05311432233170157  0.6668987315391915  0.4645713363252355  1.0000
  H   H31       1.0  0.6143090796543902  0.6671836497768239  0.9643073345043405  1.0000
  H   H32       1.0  0.9468719145187307  0.3330936378455717  0.5354194564443375  1.0000
  H   H33       1.0  0.2337804240644631  0.37592282017585193  0.03018473004208742  1.0000
  H   H34       1.0  0.8580379710506277  0.6237127683239906  0.46958007954776804  1.0000
  H   H35       1.0  0.7662516892076141  0.624091130762622  0.9698178173414789  1.0000
  H   H36       1.0  0.14195726580595644  0.3762810853233417  0.5304181971459699  1.0000
  H   H37       1.0  0.2844937797726104  0.5229805353813005  0.9491138445800331  1.0000
  H   H38       1.0  0.7613708371532726  0.4766209629845974  0.550544060937824  1.0000
  H   H39       1.0  0.7155456775013106  0.477035715272457  0.0508956767723276  1.0000
  H   H40       1.0  0.23863437306062707  0.5233680774371904  0.44945269797933923  1.0000
  H   H41       1.0  0.5361386497703363  0.4393320736266801  0.7417525353042579  1.0000
  H   H42       1.0  0.09571424368238717  0.5606539356205146  0.7588651589394857  1.0000
  H   H43       1.0  0.4638552064181523  0.5606610892362766  0.25823905742995384  1.0000
  H   H44       1.0  0.9043058160383239  0.4393544869583437  0.24113048998906814  1.0000
  H   H45       1.0  0.4711764399289606  0.2885319414312519  0.8517053631713409  1.0000
  H   H46       1.0  0.18185461503396283  0.7116451682018622  0.6490658216038625  1.0000
  H   H47       1.0  0.5288160142591635  0.7114604852240447  0.1482821613226619  1.0000
  H   H48       1.0  0.8181446502300175  0.2883608741062105  0.35092742788862813  1.0000
  C   C1        1.0  0.7679191332094463  0.8604838601804377  0.838446293729149  1.0000
  C   C2        1.0  0.907161852708775  0.1388899938518762  0.6614949092867094  1.0000
  C   C3        1.0  0.23207257472986947  0.139519428179419  0.16156613898766642  1.0000
  C   C4        1.0  0.09283400837338739  0.8611030442608371  0.3385038771334692  1.0000
  C   C5        1.0  0.8286895311364191  0.7202844361776786  0.7967005412276933  1.0000
  C   C6        1.0  0.10808058092670342  0.2792805280649304  0.703144625636277  1.0000
  C   C7        1.0  0.1713064378819453  0.2797294437592441  0.2033059217223467  1.0000
  C   C8        1.0  0.8919282074768873  0.7207197945544975  0.2968528470157779  1.0000
  C   C9        1.0  0.958842727792941  0.8069657622496463  0.81948243192101  1.0000
  C   C10       1.0  0.1517358483133648  0.19267950618171173  0.6802879457203233  1.0000
  C   C11       1.0  0.04114192191066479  0.1930399155254321  0.1805317401209834  1.0000
  C   C12       1.0  0.8482783369885637  0.8073192311193791  0.3197079315810143  1.0000
  C   C13       1.0  0.014725852937608903  0.004238859503367101  0.8790867674593629  1.0000
  C   C14       1.0  0.01040306983237837  0.9953262884387686  0.6208380955572039  1.0000
  C   C15       1.0  0.9852635125222022  0.9957741929697904  0.12092085754445497  1.0000
  C   C16       1.0  0.9895992836874753  0.004671473363338002  0.3791674437410251  1.0000
  C   C17       1.0  0.9635294495547698  0.0883404384751714  0.8780925842133341  1.0000
  C   C18       1.0  0.8749454375702613  0.9112167166995352  0.6215533482703466  1.0000
  C   C19       1.0  0.03645840660587413  0.9116613433199844  0.12191367358362022  1.0000
  C   C20       1.0  0.12505261482682073  0.0887827667726881  0.3784459394495912  1.0000
  C   C21       1.0  0.05370731710393529  0.19365706880270037  0.9153252375768659  1.0000
  C   C22       1.0  0.8598033405365086  0.805957698083276  0.5843279037537171  1.0000
  C   C23       1.0  0.9462935994686746  0.8063584540507024  0.08467955336404033  1.0000
  C   C24       1.0  0.140187922754393  0.19403852251333834  0.4156734208116362  1.0000
  C   C25       1.0  0.19669677358033508  0.216771168122051  0.9524613021387368  1.0000
  C   C26       1.0  0.9797811812286241  0.7828537831432525  0.5474476816088156  1.0000
  C   C27       1.0  0.8033030572454507  0.7832339337373425  0.04753965030830903  1.0000
  C   C28       1.0  0.020215272954317194  0.2171425059978205  0.4525497205222138  1.0000
  C   C29       1.0  0.2479619847365555  0.13242940177621418  0.9509889289228823  1.0000
  C   C30       1.0  0.1154841831047053  0.867216274880157  0.5491721610933596  1.0000
  C   C31       1.0  0.7520408098458659  0.8675836858291532  0.04901673726751451  1.0000
  C   C32       1.0  0.8845059473153541  0.1327735572179662  0.45082539275202294  1.0000
  C   C33       1.0  0.15754917804667906  0.0263118514634115  0.9153169973489099  1.0000
  C   C34       1.0  0.1312903248124185  0.9732683725789996  0.584957232019427  1.0000
  C   C35       1.0  0.8424354132293742  0.9736875287416636  0.0846881727634141  1.0000
  C   C36       1.0  0.8687072820626369  0.026719908432063698  0.4150367651436113  1.0000
  C   C37       1.0  0.29549992630310135  0.3311148546242891  0.9912014727064359  1.0000
  C   C38       1.0  0.9644103156360943  0.6685776799454288  0.5087927213251788  1.0000
  C   C39       1.0  0.7045176463078134  0.6688927181067682  0.008796647051262613  1.0000
  C   C40       1.0  0.03557978365915193  0.3314162187156738  0.49120293850460683  1.0000
  C   C41       1.0  0.3446875816595992  0.4811860808564178  0.9065635218670138  1.0000
  C   C42       1.0  0.8632520427325403  0.5184757586524569  0.5933231926455846  1.0000
  C   C43       1.0  0.6553382923051103  0.5188174600343557  0.09343453194821903  1.0000
  C   C44       1.0  0.1367566179135765  0.48151811877125544  0.40667377916456365  1.0000
  C   C45       1.0  0.47580605515707924  0.43499411417508327  0.8016812088713507  1.0000
  C   C46       1.0  0.04002944724825136  0.5649332154653733  0.6987398404860415  1.0000
  C   C47       1.0  0.5242070725743844  0.5650087009629131  0.1983121202556362  1.0000
  C   C48       1.0  0.9599860938036356  0.43507442523682033  0.30125435523483196  1.0000
  C   C49       1.0  0.44314115466439574  0.3593555182358942  0.8546206272774484  1.0000
  C   C50       1.0  0.08313049221793285  0.6406400681338412  0.6458686291276052  1.0000
  C   C51       1.0  0.5568552517571277  0.6406344960468218  0.14536646506425652  1.0000
  C   C52       1.0  0.9168704868405085  0.3593611489376443  0.3541237546867109  1.0000
  I   I1        1.0  0.35037275636690174  0.7943075579648635  0.8977119827970199  1.0000
  I   I2        1.0  0.5558556077549284  0.2046915180713782  0.6021472872505741  1.0000
  I   I3        1.0  0.6495762726888827  0.2056784995455487  0.1022704537312933  1.0000
  I   I4        1.0  0.4441543271340933  0.7952966503642926  0.39785325195788357  1.0000
  I   I5        1.0  0.45218723561333013  0.5775799841115444  0.5993682313686861  1.0000
  I   I6        1.0  0.8750151627050399  0.4216631528758655  0.9005330378470903  1.0000
  I   I7        1.0  0.5477614893838947  0.4223579766194376  0.4006429629186243  1.0000
  I   I8        1.0  0.12498024369996595  0.5783331021158348  0.09946632584449593  1.0000
  N   N1        1.0  0.7111038518612317  0.7549826106547853  0.8093027375655595  1.0000
  N   N2        1.0  0.9557045442347772  0.2443992515251594  0.6906486806202707  1.0000
  N   N3        1.0  0.28888914719380665  0.2450191374824158  0.19070548316552302  1.0000
  N   N4        1.0  0.0442927197213692  0.7555986574931381  0.309348356445554  1.0000
  N   N5        1.0  0.9192029772253107  0.8962290987366613  0.8457447121405579  1.0000
  N   N6        1.0  0.02284119110910859  0.10330452180217968  0.6541188831224787  1.0000
  N   N7        1.0  0.0807901709194851  0.10377914001954032  0.15426139371311362  1.0000
  N   N8        1.0  0.9771676284192949  0.8966917342542615  0.345880483545173  1.0000
  N   N9        1.0  0.414217765289827  0.510327436460223  0.8349995207257166  1.0000
  N   N10       1.0  0.9033346426829566  0.48940426496233863  0.6650595890607038  1.0000
  N   N11       1.0  0.5858024684387644  0.48967926412090895  0.16500237886542382  1.0000
  N   N12       1.0  0.09668067548981443  0.5106008608372505  0.3349400589606049  1.0000
  N   N13       1.0  0.3602777650394343  0.3897966801106278  0.9205762173367732  1.0000
  N   N14       1.0  0.9701847112445988  0.6100008346282523  0.5795642939958939  1.0000
  N   N15       1.0  0.6397406644687108  0.610208480002143  0.07942146958183831  1.0000
  N   N16       1.0  0.0298138278280646  0.3899955000999142  0.4204304928736775  1.0000
