data_image0
_chemical_formula_structural       K2Y2H16C8O24
_chemical_formula_sum              "K2 Y2 H16 C8 O24"
_cell_length_a       8.765339490690467
_cell_length_b       9.271434571042072
_cell_length_c       9.271413640838421
_cell_angle_alpha    77.08787806827723
_cell_angle_beta     61.78982348832707
_cell_angle_gamma    61.789853961785184

_space_group_name_H-M_alt    "P 1"
_space_group_IT_number       1

loop_
  _space_group_symop_operation_xyz
  'x, y, z'

loop_
  _atom_site_type_symbol
  _atom_site_label
  _atom_site_symmetry_multiplicity
  _atom_site_fract_x
  _atom_site_fract_y
  _atom_site_fract_z
  _atom_site_occupancy
  K   K1        1.0  0.1250043372545733  0.7500028753804885  0.7499919796394963  1.0000
  K   K2        1.0  0.8749982666898577  0.2499920289988252  0.25000740532920673  1.0000
  Y   Y1        1.0  0.3749999416680583  0.25000014267164505  0.2499998892917574  1.0000
  Y   Y2        1.0  0.6249991181428958  0.7500002313437333  0.7500007196310747  1.0000
  H   H1        1.0  0.05084686249342956  0.5929119351279937  0.09855744936592711  1.0000
  H   H2        1.0  0.14940434954158394  0.9014384564597792  0.09291428563742701  1.0000
  H   H3        1.0  0.24232488273549557  0.9070842742240474  0.401434988294298  1.0000
  H   H4        1.0  0.6437607555113163  0.5985583271370272  0.40708322010293335  1.0000
  H   H5        1.0  0.9491586557863915  0.4070859157811309  0.9014431595648986  1.0000
  H   H6        1.0  0.8505930126181415  0.09856299030832347  0.9070875472502279  1.0000
  H   H7        1.0  0.7576799197433677  0.09291738427334881  0.5985619487239833  1.0000
  H   H8        1.0  0.3562394349809212  0.40144145758328875  0.5929137169180481  1.0000
  H   H9        1.0  0.824427351129437  0.6743953783509863  0.1710800732636173  1.0000
  H   H10       1.0  0.9955070850801069  0.828916406888403  0.1743991795338502  1.0000
  H   H11       1.0  0.16990720821521454  0.8256026917357884  0.32891505382576725  1.0000
  H   H12       1.0  0.4988271059937192  0.6710785357311975  0.3255985677105713  1.0000
  H   H13       1.0  0.17557515225420428  0.3256029560002247  0.8289229836007906  1.0000
  H   H14       1.0  0.004490232068008061  0.1710845564181511  0.825606325258491  1.0000
  H   H15       1.0  0.8300923147462814  0.1744010064140935  0.6710831071538905  1.0000
  H   H16       1.0  0.5011772783462053  0.32892028209324997  0.6743971453461982  1.0000
  C   C1        1.0  0.41257801201238237  0.5285864933486265  0.9821082988611781  1.0000
  C   C2        1.0  0.39467612422306086  0.017891165937541552  0.028576072723467405  1.0000
  C   C3        1.0  0.4232747853209206  0.971408500495393  0.5178942217394821  1.0000
  C   C4        1.0  0.9411438324775936  0.4821087267044743  0.4714251315996308  1.0000
  C   C5        1.0  0.5874314612608985  0.47141274787212223  0.017897205939291904  1.0000
  C   C6        1.0  0.6053066756382606  0.9821128639826211  0.971418416346083  1.0000
  C   C7        1.0  0.576741672399898  0.02858360904539829  0.48210393927251965  1.0000
  C   C8        1.0  0.05884233147077824  0.5178878997333953  0.5285828211345135  1.0000
  O   O1        1.0  0.3024962562215025  0.457816493930906  0.06215826479748901  1.0000
  O   O2        1.0  0.36464470367175095  0.9378332532494793  0.9578164798845209  1.0000
  O   O3        1.0  0.322470043036006  0.04218338594236554  0.4378390227865907  1.0000
  O   O4        1.0  0.7602934754833302  0.562167996757786  0.5421861402699336  1.0000
  O   O5        1.0  0.6975251245468577  0.5421845152723318  0.9378276565172142  1.0000
  O   O6        1.0  0.6353426915186803  0.06215935392143017  0.042184129052067504  1.0000
  O   O7        1.0  0.6775375010107684  0.9578152659638588  0.5621689299502819  1.0000
  O   O8        1.0  0.23968313847567685  0.437844343451921  0.45781691655351864  1.0000
  O   O9        1.0  0.39283823642359317  0.6407624373775745  0.8776986807776269  1.0000
  O   O10       1.0  0.27053774349736415  0.12230520412232684  0.14074143010817866  1.0000
  O   O11       1.0  0.41130091022961357  0.8592368585575157  0.6223001569866398  1.0000
  O   O12       1.0  0.03358076372280303  0.37769815963730474  0.3592630907672573  1.0000
  O   O13       1.0  0.6071601619765733  0.3592595434887043  0.12229336032049791  1.0000
  O   O14       1.0  0.7294637577225915  0.8776959251491476  0.8592371473922144  1.0000
  O   O15       1.0  0.5887133217616879  0.14073959723388185  0.3777028999318688  1.0000
  O   O16       1.0  0.966397519930631  0.6223074722225802  0.6407632214615335  1.0000
  O   O17       1.0  0.9388016382029749  0.6978087035280889  0.1085157177653713  1.0000
  O   O18       1.0  0.04731825533517788  0.8914802995638238  0.19781199109332454  1.0000
  O   O19       1.0  0.24513211297559692  0.8021872518843197  0.3914782506636101  1.0000
  O   O20       1.0  0.6366139454252818  0.6085137971062335  0.30218547703069015  1.0000
  O   O21       1.0  0.06120015991727009  0.30218904151638526  0.8914873391001522  1.0000
  O   O22       1.0  0.9526823082843878  0.10852184236787792  0.8021898417938474  1.0000
  O   O23       1.0  0.7548687827800296  0.1978131221427331  0.6085186863562626  1.0000
  O   O24       1.0  0.3633905321964693  0.3914856100210569  0.6978114599926287  1.0000
