data_image0
_chemical_formula_structural       Cd4H28C24N20O24
_chemical_formula_sum              "Cd4 H28 C24 N20 O24"
_cell_length_a       7.468610613000047
_cell_length_b       12.587815480561268
_cell_length_c       12.766635890188383
_cell_angle_alpha    111.30419424123616
_cell_angle_beta     90.00000872682773
_cell_angle_gamma    90.0000054446094

_space_group_name_H-M_alt    "P 1"
_space_group_IT_number       1

loop_
  _space_group_symop_operation_xyz
  'x, y, z'

loop_
  _atom_site_type_symbol
  _atom_site_label
  _atom_site_symmetry_multiplicity
  _atom_site_fract_x
  _atom_site_fract_y
  _atom_site_fract_z
  _atom_site_occupancy
  Cd  Cd1       1.0  0.19954189141976286  0.6697227584494173  0.2998133009687154  1.0000
  Cd  Cd2       1.0  0.699541244781251  0.8302771054450985  0.7001870180102331  1.0000
  Cd  Cd3       1.0  0.8004582343064895  0.33027714168569844  0.7001871957818013  1.0000
  Cd  Cd4       1.0  0.3004588809450084  0.16972364990409264  0.2998130041399493  1.0000
  H   H1        1.0  0.18457255632732475  0.4225345439975783  0.3144094747502138  1.0000
  H   H2        1.0  0.6845732041572531  0.07746538547632302  0.685589620160684  1.0000
  H   H3        1.0  0.8154289083359456  0.5774653586676949  0.685590239618492  1.0000
  H   H4        1.0  0.3154269215688926  0.922534517188879  0.31441009420792915  1.0000
  H   H5        1.0  0.6857059205704701  0.2988584589992342  0.35353343332062803  1.0000
  H   H6        1.0  0.18570532152453714  0.20114061790759757  0.6464653539538363  1.0000
  H   H7        1.0  0.3142942051555693  0.7011405909819717  0.6464659732664233  1.0000
  H   H8        1.0  0.8142948042017153  0.7988592822275182  0.3535351427966875  1.0000
  H   H9        1.0  0.8307543305645736  0.47434788112711596  0.34157143631598086  1.0000
  H   H10       1.0  0.3307537062714588  0.025652065966021112  0.6584268949418829  1.0000
  H   H11       1.0  0.16924579516135907  0.5256503161700935  0.6584276624895156  1.0000
  H   H12       1.0  0.6692464194544953  0.9743478417593465  0.34157125466292393  1.0000
  H   H13       1.0  0.6258434019526575  0.6234474939373628  0.31429922378435304  1.0000
  H   H14       1.0  0.1258428411653369  0.8765515172560898  0.6856984308250066  1.0000
  H   H15       1.0  0.37415806271040697  0.37655155857400063  0.6856994004208875  1.0000
  H   H16       1.0  0.8741572845606027  0.1234475352552025  0.3143001933801416  1.0000
  H   H17       1.0  0.7118768938117622  0.6325387384671617  0.9931407235746338  1.0000
  H   H18       1.0  0.2118774978005433  0.8674619793846576  0.0068599047663298485  1.0000
  H   H19       1.0  0.28812323191459643  0.36746201435194364  0.006860080957444866  1.0000
  H   H20       1.0  0.7881226279256095  0.13253792328054462  0.9931398096022906  1.0000
  H   H21       1.0  0.6225402170429958  0.770843576464074  0.008398738319783765  1.0000
  H   H22       1.0  0.12254104925214895  0.7291554267982294  0.9916012630121646  1.0000
  H   H23       1.0  0.3774572308091137  0.2291563211408132  0.9916025408124656  1.0000
  H   H24       1.0  0.8774590764740039  0.2708444758669728  0.008398451356448806  1.0000
  H   H25       1.0  0.5210877170837023  0.6430346671288234  0.9126404603890352  1.0000
  H   H26       1.0  0.0210883398596522  0.8569651732851257  0.08736140049008168  1.0000
  H   H27       1.0  0.4789110697055249  0.35696523047613493  0.08736081874330644  1.0000
  H   H28       1.0  0.9789117858665005  0.14303472938007641  0.9126383138785317  1.0000
  C   C1        1.0  0.32869307212027377  0.4347167316618724  0.32121848307121337  1.0000
  C   C2        1.0  0.8286937162541433  0.0652832126884846  0.6787806303045445  1.0000
  C   C3        1.0  0.6713070536066112  0.5652865741490416  0.6787848095693578  1.0000
  C   C4        1.0  0.17130640947211617  0.9347175426607066  0.3212193918456381  1.0000
  C   C5        1.0  0.6068572563206445  0.3661834695958889  0.34177894956151544  1.0000
  C   C6        1.0  0.10685798834903437  0.13381730454005242  0.6582204431739884  1.0000
  C   C7        1.0  0.3931415304682772  0.633815580385253  0.6582204570254577  1.0000
  C   C8        1.0  0.8931421373771258  0.8661834533392253  0.34177879659428373  1.0000
  C   C9        1.0  0.6862562346437429  0.46326390994452993  0.335171368732823  1.0000
  C   C10       1.0  0.18625561376551047  0.0367360247632718  0.6648261616299039  1.0000
  C   C11       1.0  0.31374389108218986  0.5367342873526867  0.6648277300726735  1.0000
  C   C12       1.0  0.8137445119606566  0.9632655883300885  0.3351726035380267  1.0000
  C   C13       1.0  0.5741363227405144  0.5452830310027111  0.3211244171294681  1.0000
  C   C14       1.0  0.07413711175504999  0.9547176776913772  0.6788746288002443  1.0000
  C   C15       1.0  0.4258664808598809  0.45471687166262603  0.6788752972393228  1.0000
  C   C16       1.0  0.9258630139710105  0.0452830827179866  0.3211238285861243  1.0000
  C   C17       1.0  0.47137020088292997  0.6772219840598908  0.08134585242356002  1.0000
  C   C18       1.0  0.9713682696759703  0.8227787656374732  0.9186532443999699  1.0000
  C   C19       1.0  0.5286312637800348  0.3227770709815588  0.9186519893997772  1.0000
  C   C20       1.0  0.028631856050395792  0.17722284239570746  0.08134708553176752  1.0000
  C   C21       1.0  0.5894873333897976  0.6813530584963702  0.993904820378177  1.0000
  C   C22       1.0  0.08948792931502678  0.8186476441920192  0.0060965746640206766  1.0000
  C   C23       1.0  0.4105127923365543  0.31864683910865926  0.0060964587542429284  1.0000
  C   C24       1.0  0.9105121964111188  0.1813522584731828  0.9939031397045995  1.0000
  N   N1        1.0  0.933373127663337  0.5208197061753026  0.14065469447975695  1.0000
  N   N2        1.0  0.4333726275958013  0.9791818897538962  0.8593454876391109  1.0000
  N   N3        1.0  0.06662565912579768  0.47918104917381754  0.8593453276703403  1.0000
  N   N4        1.0  0.5666274981303516  0.020818012911306003  0.14065422672950237  1.0000
  N   N5        1.0  0.9541936601346633  0.6721101752396094  0.518240800107485  1.0000
  N   N6        1.0  0.45419437855763073  0.8278897174708107  0.4817587691158779  1.0000
  N   N7        1.0  0.04580512665436488  0.3278897274255216  0.4817589142610431  1.0000
  N   N8        1.0  0.5458057471686287  0.1721110378783806  0.5182412530342975  1.0000
  N   N9        1.0  0.39529181158167853  0.5310659886591225  0.3152728313788985  1.0000
  N   N10       1.0  0.8952911833624666  0.9689321951333485  0.684725332352791  1.0000
  N   N11       1.0  0.6047096530817129  0.4689356219042226  0.6847267161710209  1.0000
  N   N12       1.0  0.10470760342645488  0.031066854847793507  0.315274074234175  1.0000
  N   N13       1.0  0.42762445307996433  0.3515347967246144  0.3337130644204935  1.0000
  N   N14       1.0  0.9276251074447328  0.14846430515367362  0.6662857538488896  1.0000
  N   N15       1.0  0.5723756726463022  0.6484668138386525  0.6662864831293407  1.0000
  N   N16       1.0  0.07237635721853757  0.851534742297517  0.33371443512015736  1.0000
  N   N17       1.0  0.3729007566562572  0.6740770925571057  0.15048870438963052  1.0000
  N   N18       1.0  0.8729014862408134  0.8259236444460643  0.8495111621999742  1.0000
  N   N19       1.0  0.6270966911959447  0.3259228025177023  0.8495133571245221  1.0000
  N   N20       1.0  0.12709730054801574  0.1740762632792396  0.15048698740475433  1.0000
  O   O1        1.0  0.9282316244969238  0.6302439514794643  0.19224534635444718  1.0000
  O   O2        1.0  0.4282310936646495  0.8697567912350267  0.8077545273241217  1.0000
  O   O3        1.0  0.0717685012294353  0.3697568013396478  0.8077554581776386  1.0000
  O   O4        1.0  0.5717676931244782  0.13024310890001803  0.19224596942630975  1.0000
  O   O5        1.0  0.0660458092966323  0.467043259281951  0.15904945450520108  1.0000
  O   O6        1.0  0.5660451505379882  0.0329592134791596  0.8409513309464389  1.0000
  O   O7        1.0  0.9339556553671711  0.5329600515891998  0.840952273371656  1.0000
  O   O8        1.0  0.4339549751882713  0.9670415418700319  0.15904869120373655  1.0000
  O   O9        1.0  0.8090126355649044  0.4714949235989396  0.07599075416778338  1.0000
  O   O10       1.0  0.30901074035800485  0.0285058714038158  0.9240086644678985  1.0000
  O   O11       1.0  0.19098882909836587  0.5285049790663336  0.9240089602009152  1.0000
  O   O12       1.0  0.6909880464311371  0.9714948839453047  0.0759913576821988  1.0000
  O   O13       1.0  0.0477144678397181  0.6045221653877279  0.43892527556722905  1.0000
  O   O14       1.0  0.54771513525926  0.8954768301508766  0.5610747161779701  1.0000
  O   O15       1.0  0.9522843189493101  0.39547773727740326  0.5610744388013063  1.0000
  O   O16       1.0  0.4522863294040177  0.1045230725143966  0.43892499819073566  1.0000
  O   O17       1.0  0.8237490515578827  0.7258725906492315  0.49677746265533085  1.0000
  O   O18       1.0  0.32375110571094007  0.7741247305444787  0.5032211665107484  1.0000
  O   O19       1.0  0.1762483962937083  0.2741256091779292  0.5032208537680846  1.0000
  O   O20       1.0  0.6762490200151062  0.22587431943672703  0.49677824007631005  1.0000
  O   O21       1.0  0.9891118152967097  0.6859334382697997  0.6191965830399371  1.0000
  O   O22       1.0  0.48911250580819393  0.8140664605750348  0.38080220827527017  1.0000
  O   O23       1.0  0.010888310429343998  0.31406646692548185  0.380802348946773  1.0000
  O   O24       1.0  0.5108876199178595  0.1859334446202467  0.61919672371144  1.0000
