data_image0
_chemical_formula_structural       Cu6H36C18S6I6N12
_chemical_formula_sum              "Cu6 H36 C18 S6 I6 N12"
_cell_length_a       7.8488189987691905
_cell_length_b       11.919850330960982
_cell_length_c       12.546360611191284
_cell_angle_alpha    68.23430597281663
_cell_angle_beta     72.97356083637706
_cell_angle_gamma    88.50819204575257

_space_group_name_H-M_alt    "P 1"
_space_group_IT_number       1

loop_
  _space_group_symop_operation_xyz
  'x, y, z'

loop_
  _atom_site_type_symbol
  _atom_site_label
  _atom_site_symmetry_multiplicity
  _atom_site_fract_x
  _atom_site_fract_y
  _atom_site_fract_z
  _atom_site_occupancy
  Cu  Cu1       1.0  0.46049017621612637  0.49189962982745783  0.9079358175395029  1.0000
  Cu  Cu2       1.0  0.5395151408166613  0.5080987721963124  0.09206271397976454  1.0000
  Cu  Cu3       1.0  0.6551448581819203  0.6950846833495491  0.7400520410881057  1.0000
  Cu  Cu4       1.0  0.3448508848850764  0.30491182837763375  0.2599520774211967  1.0000
  Cu  Cu5       1.0  0.43834384879750143  0.1186952072442864  0.05193482388236251  1.0000
  Cu  Cu6       1.0  0.5616523422515556  0.8813049333495824  0.948067948861592  1.0000
  H   H1        1.0  0.11960081574677874  0.632514278796883  0.9507236782979759  1.0000
  H   H2        1.0  0.8804024986336147  0.36748954124201555  0.049274923633745964  1.0000
  H   H3        1.0  0.06828982458832661  0.48103125272204755  0.3090674094257722  1.0000
  H   H4        1.0  0.931714259650903  0.5189680354533124  0.690933428585268  1.0000
  H   H5        1.0  0.9800697421989003  0.8484432035219385  0.578938065979848  1.0000
  H   H6        1.0  0.0199179277019681  0.1515632622611491  0.4210576753648779  1.0000
  H   H7        1.0  0.9397140461907656  0.9889304222027632  0.8350232847381421  1.0000
  H   H8        1.0  0.0602839272578279  0.011062490153946702  0.1649792912745909  1.0000
  H   H9        1.0  0.6185326382759871  0.12187101296954948  0.8037052539997092  1.0000
  H   H10       1.0  0.3814686630803905  0.878127346915548  0.19629721031170527  1.0000
  H   H11       1.0  0.5706591212859495  0.4826529607639642  0.6660831017714557  1.0000
  H   H12       1.0  0.4293518585554141  0.5173481882117699  0.33391503751146706  1.0000
  H   H13       1.0  0.8190918842448343  0.69108999828903  0.07499010340552546  1.0000
  H   H14       1.0  0.18091051548061193  0.3089065429599244  0.9250151860640727  1.0000
  H   H15       1.0  0.008751061127391326  0.7919792225710655  0.04222975621863144  1.0000
  H   H16       1.0  0.9912399038806756  0.20802178730359336  0.957774460600632  1.0000
  H   H17       1.0  0.9982309675309509  0.7112740380315117  0.2482531748861021  1.0000
  H   H18       1.0  0.0017733332229851993  0.28872705615457056  0.7517485886451355  1.0000
  H   H19       1.0  0.8034123645819095  0.6146678578441396  0.28226220199602636  1.0000
  H   H20       1.0  0.19659292254557675  0.3853305104891263  0.7177427231347265  1.0000
  H   H21       1.0  0.3001168613270409  0.883414064787047  0.5829050414983785  1.0000
  H   H22       1.0  0.6998702672870606  0.1165878859692313  0.4170883860458545  1.0000
  H   H23       1.0  0.23795088045265805  0.0302128532431709  0.5052002578180321  1.0000
  H   H24       1.0  0.7620445594283825  0.9697918402708012  0.49479628283943095  1.0000
  H   H25       1.0  0.25041888947711044  0.07741729835217373  0.6714751124611382  1.0000
  H   H26       1.0  0.7495758709544944  0.9225819434391339  0.3285250452472112  1.0000
  H   H27       1.0  0.25646631376416457  0.9214708516421554  0.7614808038604506  1.0000
  H   H28       1.0  0.743530695739864  0.0785248118352442  0.2385138153441559  1.0000
  H   H29       1.0  0.5237129396556102  0.18473068550817115  0.6128857623798682  1.0000
  H   H30       1.0  0.4762860342762991  0.8152703833759674  0.387115384063712  1.0000
  H   H31       1.0  0.7638874607532957  0.196510219048541  0.5688607778495867  1.0000
  H   H32       1.0  0.23611628749938526  0.803486347476806  0.43114106948546294  1.0000
  H   H33       1.0  0.7856570089734877  0.4114540277102918  0.5124648224324843  1.0000
  H   H34       1.0  0.21435206610121332  0.5885425641169916  0.48753764199022953  1.0000
  H   H35       1.0  0.5666177349721694  0.39877874832246357  0.4985294741452861  1.0000
  H   H36       1.0  0.43339024173346985  0.60121966214097  0.501470165119251  1.0000
  C   C1        1.0  0.1192902593232219  0.5326447637161917  0.12516643491684934  1.0000
  C   C2        1.0  0.8807140563833685  0.4673563473151391  0.8748321318086453  1.0000
  C   C3        1.0  0.9505706841491846  0.697274923692845  0.08778758029788485  1.0000
  C   C4        1.0  0.04943059851638051  0.3027234151356879  0.9122188800207097  1.0000
  C   C5        1.0  0.9411422502965225  0.6453900491813727  0.2226940229575192  1.0000
  C   C6        1.0  0.05886337655567792  0.354611045013229  0.7773090936477871  1.0000
  C   C7        1.0  0.9079501299389392  0.918134145041513  0.7131482041994774  1.0000
  C   C8        1.0  0.09204387184831833  0.08186964124725898  0.2868473198252488  1.0000
  C   C9        1.0  0.2032700364512223  0.9503097439108855  0.5904350312586146  1.0000
  C   C10       1.0  0.7967198638312496  0.0496931225017292  0.40955916758954913  1.0000
  C   C11       1.0  0.19178230298958707  0.984663726098972  0.6992351635334871  1.0000
  C   C12       1.0  0.8082123566610024  0.015334621109594996  0.3007629330118959  1.0000
  C   C13       1.0  0.5827129014817845  0.30291742047458575  0.7671225208773933  1.0000
  C   C14       1.0  0.4172925238083636  0.6970818845545425  0.23287647340197273  1.0000
  C   C15       1.0  0.6436901148906743  0.22938291625225563  0.6144079838558059  1.0000
  C   C16       1.0  0.35631240804477227  0.7706145448473051  0.38559457156814864  1.0000
  C   C17       1.0  0.6477526827780836  0.36853056502125975  0.5599960791521639  1.0000
  C   C18       1.0  0.352250075362889  0.6314687231455878  0.4400034057848076  1.0000
  S   S1        1.0  0.2507990680239871  0.4209366355641607  0.10000820109507191  1.0000
  S   S2        1.0  0.7492053447254678  0.579065365838595  0.8999932259948337  1.0000
  S   S3        1.0  0.6799715672371536  0.882111976795457  0.7609734407257776  1.0000
  S   S4        1.0  0.32001853086920573  0.11789267457131562  0.23902567964976382  1.0000
  S   S5        1.0  0.5347299443414287  0.3066613060674754  0.9067645178589245  1.0000
  S   S6        1.0  0.4652714690104602  0.6933379610342953  0.09323761001115824  1.0000
  I   I1        1.0  0.3233797391638619  0.6456653337511042  0.7505111497813673  1.0000
  I   I2        1.0  0.6766165750952027  0.35433572669337116  0.24948888891694304  1.0000
  I   I3        1.0  0.836141931403759  0.6927738862678581  0.526005772484609  1.0000
  I   I4        1.0  0.16385380418691403  0.3072226170366932  0.47399994442756826  1.0000
  I   I5        1.0  0.2634766268734339  0.0014468357507908991  0.9670826397513537  1.0000
  I   I6        1.0  0.7365201241532094  0.998557840926445  0.03291845078591379  1.0000
  N   N1        1.0  0.0680458655448177  0.6184086828119747  0.04016638091648155  1.0000
  N   N2        1.0  0.9319626599239188  0.3815942511008785  0.959833973745674  1.0000
  N   N3        1.0  0.049935539011414704  0.5421668912965387  0.23161573752103948  1.0000
  N   N4        1.0  0.950077768254417  0.45783154868014725  0.7683837196297247  1.0000
  N   N5        1.0  0.020739264524912857  0.8976807664544422  0.6203419265424444  1.0000
  N   N6        1.0  0.9792487563151585  0.10232843782391397  0.37964960867252967  1.0000
  N   N7        1.0  0.9980497872671635  0.9747610223003704  0.757164498548164  1.0000
  N   N8        1.0  0.0019474163225865  0.025236421919871105  0.2428358413852578  1.0000
  N   N9        1.0  0.6377082711165016  0.20708161987601403  0.7384500492491028  1.0000
  N   N10       1.0  0.3622942592952755  0.7929158496461709  0.2615509077719764  1.0000
  N   N11       1.0  0.5721078559807113  0.39613853065974775  0.6681954295329078  1.0000
  N   N12       1.0  0.42790023645861214  0.6038607912316678  0.33180307408885307  1.0000
