data_image0
_chemical_formula_structural       Cu3H28C38N12Cl4
_chemical_formula_sum              "Cu3 H28 C38 N12 Cl4"
_cell_length_a       9.234076337406904
_cell_length_b       9.779242964937204
_cell_length_c       11.842898657158944
_cell_angle_alpha    94.96608386101396
_cell_angle_beta     114.30491601436671
_cell_angle_gamma    95.2153715318226

_space_group_name_H-M_alt    "P 1"
_space_group_IT_number       1

loop_
  _space_group_symop_operation_xyz
  'x, y, z'

loop_
  _atom_site_type_symbol
  _atom_site_label
  _atom_site_symmetry_multiplicity
  _atom_site_fract_x
  _atom_site_fract_y
  _atom_site_fract_z
  _atom_site_occupancy
  Cu  Cu1       1.0  0.49999705617695867  0.49999515130262046  0.4999951207154112  1.0000
  Cu  Cu2       1.0  0.6913363603379851  0.6142011233543201  0.2992874024362848  1.0000
  Cu  Cu3       1.0  0.30865386951193596  0.38579934424250684  0.7007110634433361  1.0000
  H   H1        1.0  0.8566739978547062  0.30599704916448184  0.3696368863589043  1.0000
  H   H2        1.0  0.14333819050068541  0.6939982959414621  0.6303709169216064  1.0000
  H   H3        1.0  0.8522923976197632  0.5457496441632514  0.13414011948356125  1.0000
  H   H4        1.0  0.1477115718053597  0.4542543767690004  0.8658440819949932  1.0000
  H   H5        1.0  0.25445267648007064  0.3173456721212489  0.27752528651732433  1.0000
  H   H6        1.0  0.7455470170514359  0.6826531138555223  0.722458889632904  1.0000
  H   H7        1.0  0.09602816729720588  0.19439648405818125  0.3835257043303741  1.0000
  H   H8        1.0  0.9039856212250825  0.8056009072845213  0.6164844391770147  1.0000
  H   H9        1.0  0.2702726378679969  0.6892556978802843  0.48103322153920675  1.0000
  H   H10       1.0  0.7297154137784858  0.31072914100224125  0.5189674403620332  1.0000
  H   H11       1.0  0.9810006999474364  0.3334551000170265  0.11619136731315638  1.0000
  H   H12       1.0  0.019008371125444536  0.6665604239355716  0.8837911240746267  1.0000
  H   H13       1.0  0.3922437047988154  0.5853538923251306  0.06167218086560674  1.0000
  H   H14       1.0  0.6077591668969191  0.41465402881237867  0.9383238804969809  1.0000
  H   H15       1.0  0.2765464485167399  0.0358076451821958  0.4108145890926594  1.0000
  H   H16       1.0  0.723450953137352  0.9641845279085073  0.5891877673485626  1.0000
  H   H17       1.0  0.3063694776237611  0.8599017853878549  0.3899369903255235  1.0000
  H   H18       1.0  0.6936257516410932  0.14008526546064098  0.610060894061782  1.0000
  H   H19       1.0  0.5729128808578564  0.9057193739842898  0.30251648433860373  1.0000
  H   H20       1.0  0.427086716543144  0.09428294745669057  0.697498405925572  1.0000
  H   H21       1.0  0.3198670018171724  0.6742807552335249  0.2300257931081973  1.0000
  H   H22       1.0  0.6801304929794226  0.32571357352868086  0.7699725568181892  1.0000
  H   H23       1.0  0.6011126229691398  0.16595699990345736  0.3296670152386483  1.0000
  H   H24       1.0  0.3988983548828386  0.8340433812704758  0.6703476451318978  1.0000
  H   H25       1.0  0.38384279911984004  0.7241240341575049  0.8937870844049982  1.0000
  H   H26       1.0  0.6161661052995767  0.2758838869178246  0.10621242932128186  1.0000
  H   H27       1.0  0.2960809316646901  0.959247453458246  0.8885509779297678  1.0000
  H   H28       1.0  0.703938918753117  0.04076547040246229  0.11146401163485108  1.0000
  C   C1        1.0  0.8494028207781311  0.19335749734043617  0.35904865847813744  1.0000
  C   C2        1.0  0.1506114017467723  0.8066368909325944  0.6409562728289799  1.0000
  C   C3        1.0  0.05263672171765421  0.6360733293497631  0.3081497027831901  1.0000
  C   C4        1.0  0.9473627892549885  0.3639294629263076  0.6918415388569203  1.0000
  C   C5        1.0  0.96954831395783  0.5327764570944993  0.20499006957118845  1.0000
  C   C6        1.0  0.030451884099242932  0.4672304641540704  0.7950025861542117  1.0000
  C   C7        1.0  0.19364132632625086  0.4057717692377166  0.2843312960744484  1.0000
  C   C8        1.0  0.8063481274728446  0.5942267913746804  0.7156583211632467  1.0000
  C   C9        1.0  0.9825185578229705  0.13261504265416585  0.36502708030748476  1.0000
  C   C10       1.0  0.017495734036792512  0.8673804151650512  0.6349762762474427  1.0000
  C   C11       1.0  0.9628758493961058  0.9880252151178155  0.34639385435519193  1.0000
  C   C12       1.0  0.0371339622915912  0.01197011674968  0.6536132535881976  1.0000
  C   C13       1.0  0.20260309041081828  0.6155095519645142  0.39704600613625735  1.0000
  C   C14       1.0  0.7973902015531493  0.3844889290307164  0.602949796169824  1.0000
  C   C15       1.0  0.8172385884866671  0.9065839127678995  0.32432023511652375  1.0000
  C   C16       1.0  0.1827627461128714  0.09341646518967649  0.6756890728741922  1.0000
  C   C17       1.0  0.04100702212919321  0.4161894015788049  0.1942191827492579  1.0000
  C   C18       1.0  0.9589830076183858  0.5838205526813596  0.8057716187756868  1.0000
  C   C19       1.0  0.3523143376996813  0.6870858551360755  0.06045485907977622  1.0000
  C   C20       1.0  0.647690546445979  0.3129222118729728  0.9395350415363242  1.0000
  C   C21       1.0  0.22609270864669645  0.9360867043872857  0.34992425334264965  1.0000
  C   C22       1.0  0.7739135163198796  0.0639097103270103  0.6500785228219713  1.0000
  C   C23       1.0  0.6849402604634776  0.9688976972809792  0.31986084766651873  1.0000
  C   C24       1.0  0.3150569840774651  0.0311056970468755  0.6801509154978974  1.0000
  C   C25       1.0  0.2549368598953166  0.9468667501348804  0.05528538013393101  1.0000
  C   C26       1.0  0.7450572081194763  0.05313363784478749  0.9447192708140835  1.0000
  C   C27       1.0  0.2627657504955963  0.867401561670661  0.15142578943001442  1.0000
  C   C28       1.0  0.7372183735696537  0.13258951879983982  0.8485717463778856  1.0000
  C   C29       1.0  0.9856252612518047  0.7632367964969972  0.3213731452276178  1.0000
  C   C30       1.0  0.014381421075036396  0.2367616412556969  0.678632480505776  1.0000
  C   C31       1.0  0.30980475613424835  0.7349729793887718  0.15513556278312995  1.0000
  C   C32       1.0  0.690189059248702  0.2650163365659708  0.8448519683476335  1.0000
  C   C33       1.0  0.7028525220079445  0.1130643198926791  0.3364633813648795  1.0000
  C   C34       1.0  0.29715679006841367  0.8869412631406204  0.6635495659911967  1.0000
  C   C35       1.0  0.347905345797173  0.7666019156097548  0.9650613633985119  1.0000
  C   C36       1.0  0.6521093436283036  0.2334133198160941  0.03493880186207575  1.0000
  C   C37       1.0  0.298624279374117  0.8967938784030874  0.960855651114102  1.0000
  C   C38       1.0  0.7013783166202573  0.10321589336221136  0.039151482253195966  1.0000
  N   N1        1.0  0.2721529959874899  0.504225657079125  0.38374974844806087  1.0000
  N   N2        1.0  0.7278446115831301  0.4957675358203417  0.6162536042723162  1.0000
  N   N3        1.0  0.19103297224677357  0.07666633000125958  0.18202150311236662  1.0000
  N   N4        1.0  0.80897919602711  0.9233362466216729  0.8179877843910006  1.0000
  N   N5        1.0  0.06764432136736086  0.8949065960798065  0.34495896770928175  1.0000
  N   N6        1.0  0.9323616045401905  0.10508664315421608  0.6550468186910124  1.0000
  N   N7        1.0  0.222948965458535  0.9533672958025645  0.228978112782336  1.0000
  N   N8        1.0  0.7770434552240602  0.046624933706944184  0.7710185679323873  1.0000
  N   N9        1.0  0.20857334659721968  0.07306173972770577  0.0786968649134252  1.0000
  N   N10       1.0  0.7914397602048381  0.9269459690973533  0.9213156899648425  1.0000
  N   N11       1.0  0.8355124793667483  0.7671185535837066  0.30973771131391453  1.0000
  N   N12       1.0  0.16448979421094376  0.23288301659324154  0.6902643705200193  1.0000
  Cl  Cl1       1.0  0.5479659712304822  0.4246464347761004  0.2751853314929988  1.0000
  Cl  Cl2       1.0  0.4520243008705052  0.5753417586165169  0.7248044454051764  1.0000
  Cl  Cl3       1.0  0.5665959156654666  0.7326444209724343  0.4818935858608385  1.0000
  Cl  Cl4       1.0  0.4333977192466635  0.2673510901113971  0.5180952902240676  1.0000
