data_image0
_chemical_formula_structural       Cd4H40C36O20
_chemical_formula_sum              "Cd4 H40 C36 O20"
_cell_length_a       9.003117168720534
_cell_length_b       9.362347072010595
_cell_length_c       11.658836505536819
_cell_angle_alpha    90.0000796692421
_cell_angle_beta     92.60835176071727
_cell_angle_gamma    90.00014919115324

_space_group_name_H-M_alt    "P 1"
_space_group_IT_number       1

loop_
  _space_group_symop_operation_xyz
  'x, y, z'

loop_
  _atom_site_type_symbol
  _atom_site_label
  _atom_site_symmetry_multiplicity
  _atom_site_fract_x
  _atom_site_fract_y
  _atom_site_fract_z
  _atom_site_occupancy
  Cd  Cd1       1.0  0.9772221837520475  0.2017032487553791  0.5372741777334441  1.0000
  Cd  Cd2       1.0  0.522778801220035  0.7017043738186002  0.4627278429052382  1.0000
  Cd  Cd3       1.0  0.0227797097966089  0.7982949119649873  0.46272625432040126  1.0000
  Cd  Cd4       1.0  0.4772219804604915  0.29829805933327685  0.5372725476891419  1.0000
  H   H1        1.0  0.16462726432902028  0.37837362347307385  0.4003284313493652  1.0000
  H   H2        1.0  0.33537353360012645  0.8783725645844029  0.5996712837085667  1.0000
  H   H3        1.0  0.8353735142542218  0.6216277415713096  0.5996728168507773  1.0000
  H   H4        1.0  0.664626136204852  0.12162880045781317  0.4003290654231294  1.0000
  H   H5        1.0  0.007225852675368601  0.45851038115250725  0.3982063266596043  1.0000
  H   H6        1.0  0.4927740499993049  0.9585107880036292  0.6017951591267875  1.0000
  H   H7        1.0  0.9927760377819367  0.5414909838933042  0.6017949630025755  1.0000
  H   H8        1.0  0.5072256228999876  0.0414895089296081  0.3982043323978602  1.0000
  H   H9        1.0  0.0796774997951815  0.8079916565576538  0.907875048349503  1.0000
  H   H10       1.0  0.42031977302064405  0.30799388783619724  0.0921227419393347  1.0000
  H   H11       1.0  0.9203221700083118  0.1920086403763221  0.0921253007815466  1.0000
  H   H12       1.0  0.5796810055655753  0.6920096134246592  0.907878506262094  1.0000
  H   H13       1.0  0.327536499361841  0.730574328098406  0.8092592040264677  1.0000
  H   H14       1.0  0.1724594432368249  0.23057717854169377  0.1907393087211773  1.0000
  H   H15       1.0  0.6724620616619036  0.2694249007251698  0.19074024603548173  1.0000
  H   H16       1.0  0.8275413322506181  0.7694241865034286  0.80926279708536  1.0000
  H   H17       1.0  0.5229503059573518  0.9442443069041672  0.8351906489261012  1.0000
  H   H18       1.0  0.9770480332267368  0.4442478745960513  0.1648072528049198  1.0000
  H   H19       1.0  0.47704937003328507  0.05575278570362489  0.16480798499020471  1.0000
  H   H20       1.0  0.022951633480957405  0.5557524223386705  0.8351939539325316  1.0000
  H   H21       1.0  0.39400757738916076  0.1548332162861712  0.9455447887215699  1.0000
  H   H22       1.0  0.10599260211945699  0.6548370443540676  0.0544537982173878  1.0000
  H   H23       1.0  0.6059932073797469  0.8451638763237882  0.054454744263182406  1.0000
  H   H24       1.0  0.8940059558114585  0.3451643206867204  0.9455465094522568  1.0000
  H   H25       1.0  0.1593392538638625  0.21880289336235145  0.8310223021783898  1.0000
  H   H26       1.0  0.34066333034562757  0.7188053715850272  0.16897558748979696  1.0000
  H   H27       1.0  0.8406637577504553  0.7811952673579583  0.168976456124696  1.0000
  H   H28       1.0  0.6593341126169109  0.2811970615633043  0.8310255363248445  1.0000
  H   H29       1.0  0.9941228461091356  0.041189279033751795  0.8208967756521588  1.0000
  H   H30       1.0  0.5058765868958517  0.5411920050676072  0.17910329406802114  1.0000
  H   H31       1.0  0.0058768205985587  0.9588110179009702  0.17910443108528545  1.0000
  H   H32       1.0  0.49412308291358187  0.4588125642993148  0.8208970550656078  1.0000
  H   H33       1.0  0.12481947511846413  0.06569522975677701  0.009780329759934104  1.0000
  H   H34       1.0  0.37517934777332584  0.5656970854934754  0.9902172502398018  1.0000
  H   H35       1.0  0.8751813127492128  0.9343039990689092  0.9902183456197023  1.0000
  H   H36       1.0  0.6248192101575895  0.4343042795473123  0.009783057429842793  1.0000
  H   H37       1.0  0.26686522993173156  0.9406715561270147  0.056861653218788916  1.0000
  H   H38       1.0  0.23313352056035092  0.4406737298914507  0.9431371966999154  1.0000
  H   H39       1.0  0.7331344429645907  0.0593266045897565  0.9431378383045583  1.0000
  H   H40       1.0  0.7668672580214064  0.5593265670446925  0.05686405149958062  1.0000
  C   C1        1.0  0.1619089338509525  0.8888240360923945  0.8867880754757992  1.0000
  C   C2        1.0  0.3380896755834186  0.3888271663225566  0.11320985409424372  1.0000
  C   C3        1.0  0.8380907421411763  0.11117412462363063  0.11321055844114623  1.0000
  C   C4        1.0  0.6619111030013086  0.6111752668300668  0.8867913941065384  1.0000
  C   C5        1.0  0.31068899319005544  0.8337952535898693  0.8494422767745464  1.0000
  C   C6        1.0  0.1893072395003088  0.33380128068415627  0.1505555032805503  1.0000
  C   C7        1.0  0.6893073440796227  0.1661997027979183  0.15055709036072784  1.0000
  C   C8        1.0  0.810695765926866  0.6662000843623374  0.849444970237279  1.0000
  C   C9        1.0  0.4089002995114299  0.9414959451901622  0.8622265309601361  1.0000
  C   C10       1.0  0.0911006739211615  0.4414952956209675  0.13777326048498403  1.0000
  C   C11       1.0  0.5911027059157448  0.05850541985633839  0.1377739425576934  1.0000
  C   C12       1.0  0.9088978809139546  0.5585060694205594  0.8622279047910625  1.0000
  C   C13       1.0  0.3258449473375434  0.06951154336968558  0.90670329475158  1.0000
  C   C14       1.0  0.1741550011334567  0.5695124052153561  0.09329347372148082  1.0000
  C   C15       1.0  0.6741569554999884  0.93048768545669  0.09329456448370621  1.0000
  C   C16       1.0  0.8258435598917727  0.4304878917164531  0.9067059763411153  1.0000
  C   C17       1.0  0.2191460135205432  0.12196932156300024  0.8054442568340224  1.0000
  C   C18       1.0  0.28085518648957475  0.6219738307724897  0.19455433179742704  1.0000
  C   C19       1.0  0.7808536593728165  0.8780267029373054  0.19455523468803193  1.0000
  C   C20       1.0  0.7191444864141731  0.3780296704854536  0.8054451597291534  1.0000
  C   C21       1.0  0.10067709271595499  0.9986147244439961  0.7942381394159245  1.0000
  C   C22       1.0  0.3993229245603517  0.49861603256651665  0.2057625372965433  1.0000
  C   C23       1.0  0.8993236889601234  0.0013845043831750999  0.20576225117652314  1.0000
  C   C24       1.0  0.6006767483419181  0.5013864005831861  0.7942369542293903  1.0000
  C   C25       1.0  0.2134285064990422  0.9945177656542299  0.9821529596806402  1.0000
  C   C26       1.0  0.2865715117700702  0.4945195330879671  0.017844281648592603  1.0000
  C   C27       1.0  0.7865733870510995  0.0054814631743696  0.017847472373851807  1.0000
  C   C28       1.0  0.7134281611292224  0.5054807638452772  0.9821552098760478  1.0000
  C   C29       1.0  0.29875761631248565  0.16749210215591853  0.6996015664456651  1.0000
  C   C30       1.0  0.20123815398396522  0.6674901874144226  0.3003960123542698  1.0000
  C   C31       1.0  0.7012420565868068  0.8325081947773186  0.30039792507897545  1.0000
  C   C32       1.0  0.7987581832916532  0.33250904140629695  0.6996033547835908  1.0000
  C   C33       1.0  0.0700086129657223  0.9358856547482474  0.6759142268053752  1.0000
  C   C34       1.0  0.4299890123434693  0.4358861771647183  0.3240845758586701  1.0000
  C   C35       1.0  0.9299899387706246  0.06411357407755248  0.32408779607578  1.0000
  C   C36       1.0  0.5700117724328564  0.5641162559864128  0.675914957129315  1.0000
  O   O1        1.0  0.2278373089181542  0.1901069860421885  0.6040802493901937  1.0000
  O   O2        1.0  0.27215963613187455  0.690106482927689  0.3959173982398597  1.0000
  O   O3        1.0  0.7721623670739672  0.8098911746738438  0.39591838452675887  1.0000
  O   O4        1.0  0.727837816113606  0.3098927458937197  0.6040811527536434  1.0000
  O   O5        1.0  0.43860619979427184  0.18983283852010394  0.7105675904415136  1.0000
  O   O6        1.0  0.0613918656584573  0.6898348271412401  0.2894275255011252  1.0000
  O   O7        1.0  0.561392367421071  0.8101663903019868  0.28943014440763193  1.0000
  O   O8        1.0  0.9386055834897393  0.3101633335726746  0.7105718830981334  1.0000
  O   O9        1.0  0.9490870073258364  0.9696602889488799  0.6203996839595192  1.0000
  O   O10       1.0  0.5509091694873832  0.4696631634212735  0.37960073842312175  1.0000
  O   O11       1.0  0.050908205685097095  0.030333599332209395  0.3796030721386643  1.0000
  O   O12       1.0  0.44909161219315064  0.5303392697305964  0.6203996521712583  1.0000
  O   O13       1.0  0.1608686547862064  0.8473801472537801  0.6336990151598414  1.0000
  O   O14       1.0  0.33912983941682023  0.34738158374617717  0.3662988642562084  1.0000
  O   O15       1.0  0.8391310150172872  0.1526201496802031  0.366301333971201  1.0000
  O   O16       1.0  0.6608709422651913  0.6526219175139332  0.6337015263388183  1.0000
  O   O17       1.0  0.07218147117329468  0.3940256025147448  0.4425170630789026  1.0000
  O   O18       1.0  0.4278193609883232  0.8940257697841927  0.5574852437400821  1.0000
  O   O19       1.0  0.9278193105027841  0.6059736263124266  0.5574833275135376  1.0000
  O   O20       1.0  0.572181417593434  0.10597452715195739  0.4425160044594064  1.0000
