data_image0
_chemical_formula_structural       Ga12P12H78C24N18O48
_chemical_formula_sum              "Ga12 P12 H78 C24 N18 O48"
_cell_length_a       13.475504567088242
_cell_length_b       14.212331165046974
_cell_length_c       14.209972430656626
_cell_angle_alpha    110.49329051548743
_cell_angle_beta     108.41863894178888
_cell_angle_gamma    108.43967260846051

_space_group_name_H-M_alt    "P 1"
_space_group_IT_number       1

loop_
  _space_group_symop_operation_xyz
  'x, y, z'

loop_
  _atom_site_type_symbol
  _atom_site_label
  _atom_site_symmetry_multiplicity
  _atom_site_fract_x
  _atom_site_fract_y
  _atom_site_fract_z
  _atom_site_occupancy
  Ga  Ga1       1.0  0.5196358057759057  0.5429366051203317  0.373558171107824  1.0000
  Ga  Ga2       1.0  0.9766565008403775  0.8306692842816475  0.4570668708529909  1.0000
  Ga  Ga3       1.0  0.14604514776860356  0.626415323565496  0.16934777051135094  1.0000
  Ga  Ga4       1.0  0.48036508984848336  0.4570641312980116  0.626442582961275  1.0000
  Ga  Ga5       1.0  0.023344473558338987  0.1693331649096308  0.5429352142201226  1.0000
  Ga  Ga6       1.0  0.8539549830075401  0.37358541268451984  0.8306555731198132  1.0000
  Ga  Ga7       1.0  0.7334480103546285  0.41453271638506095  0.5442993855901579  1.0000
  Ga  Ga8       1.0  0.3188077402646599  0.12973283492195975  0.5853950792603657  1.0000
  Ga  Ga9       1.0  0.1891094783062428  0.4557024463238832  0.870291528068542  1.0000
  Ga  Ga10      1.0  0.2665520329785309  0.585466307133018  0.4557012170134273  1.0000
  Ga  Ga11      1.0  0.6811907300287315  0.87026618846447  0.4146036523495413  1.0000
  Ga  Ga12      1.0  0.8108934056677126  0.5442991467274751  0.12970941019755605  1.0000
  P   P1        1.0  0.45844718545654933  0.33918989950790035  0.39418520049144246  1.0000
  P   P2        1.0  0.11921647022083451  0.054887280713565204  0.6607810906953234  1.0000
  P   P3        1.0  0.06434320603902674  0.6059307388027619  0.9450649055415213  1.0000
  P   P4        1.0  0.5415494227057138  0.6608022725321377  0.6058105661794073  1.0000
  P   P5        1.0  0.8807654691620713  0.9451023209493601  0.3391953727779438  1.0000
  P   P6        1.0  0.9356657148356647  0.3940862705062786  0.05492565475562122  1.0000
  P   P7        1.0  0.3984911144282747  0.6883463442722472  0.3338478074991188  1.0000
  P   P8        1.0  0.7101190278521231  0.6454784160050623  0.3115633868003159  1.0000
  P   P9        1.0  0.06463687593703336  0.6661645440041755  0.35452804619437495  1.0000
  P   P10       1.0  0.6015104759386888  0.3116526795004689  0.6661504360274793  1.0000
  P   P11       1.0  0.28988341480607005  0.35452232066791123  0.688435008191796  1.0000
  P   P12       1.0  0.9353621057777912  0.3338370485745799  0.645473149669968  1.0000
  H   H1        1.0  0.7134941161387972  0.23122802066844636  0.3949345306810488  1.0000
  H   H2        1.0  0.4822791521161491  0.16371002524829953  0.7686069033923674  1.0000
  H   H3        1.0  0.3187465233699739  0.6050496516661283  0.8363952571234423  1.0000
  H   H4        1.0  0.2865047080273656  0.7687701463644249  0.6050640031752724  1.0000
  H   H5        1.0  0.5177214640754643  0.836293280317037  0.23139467442255343  1.0000
  H   H6        1.0  0.6812520300320699  0.39495108447275123  0.16360551050225777  1.0000
  H   H7        1.0  0.5843952316733764  0.23721579453744113  0.34486265893664847  1.0000
  H   H8        1.0  0.34722413964203713  0.10771284760428305  0.7627701982046562  1.0000
  H   H9        1.0  0.2396437129615875  0.6551363412065002  0.8923359596787181  1.0000
  H   H10       1.0  0.41560203679033253  0.7627823722817911  0.6551368239731022  1.0000
  H   H11       1.0  0.6527775251649288  0.8922878889618744  0.23722867131417052  1.0000
  H   H12       1.0  0.7603512877197716  0.3448635381267026  0.10766416277985508  1.0000
  H   H13       1.0  0.7617117963248106  0.5433998710276172  0.4520780835271412  1.0000
  H   H14       1.0  0.21817974970483778  0.908669915330833  0.45649127154680263  1.0000
  H   H15       1.0  0.30954754606434426  0.5478699880499464  0.09135808325501678  1.0000
  H   H16       1.0  0.2382866783028987  0.4565991523383204  0.5479213530945446  1.0000
  H   H17       1.0  0.7818202979626463  0.0913291081667467  0.5435100360685612  1.0000
  H   H18       1.0  0.6904545513897277  0.45213160493559484  0.9086419195142386  1.0000
  H   H19       1.0  0.8611364411289344  0.5659370321022054  0.7600486173373258  1.0000
  H   H20       1.0  0.2950139553549747  0.19408367389156214  0.43400219630148495  1.0000
  H   H21       1.0  0.10103691652486188  0.2399791520238921  0.8058936942948524  1.0000
  H   H22       1.0  0.13886401751401684  0.4340628479172538  0.23995029846957297  1.0000
  H   H23       1.0  0.7049836539785236  0.805913636635616  0.5659949738193436  1.0000
  H   H24       1.0  0.898963196913975  0.7600215843081273  0.19410682928918288  1.0000
  H   H25       1.0  0.7411978045279496  0.5803325301835187  0.7034491920127126  1.0000
  H   H26       1.0  0.16066714920457767  0.12295507673265156  0.41956962994596847  1.0000
  H   H27       1.0  0.03763103587434099  0.2964697216243408  0.8768831779933353  1.0000
  H   H28       1.0  0.25880429726044707  0.4196690627815159  0.29655151576832156  1.0000
  H   H29       1.0  0.8393316749615849  0.8770430903002266  0.5804289039103526  1.0000
  H   H30       1.0  0.962371926873942  0.7035335841999598  0.12311909127677725  1.0000
  H   H31       1.0  0.7280957401341013  0.2731685541504376  0.25295411246024474  1.0000
  H   H32       1.0  0.45478522433633367  0.9797816597826741  0.7267532187874581  1.0000
  H   H33       1.0  0.4751230034913903  0.7471139678253638  0.020434721677261892  1.0000
  H   H34       1.0  0.2718999552898325  0.7268296125371522  0.7470434994558206  1.0000
  H   H35       1.0  0.54521575006239  0.020220789408604403  0.2732488662856555  1.0000
  H   H36       1.0  0.5248775295915636  0.2528876249875296  0.9795648201218656  1.0000
  H   H37       1.0  0.6488801301097241  0.35094879166028664  0.2767304298522079  1.0000
  H   H38       1.0  0.29777446564907006  0.9258162517480744  0.6489773329961255  1.0000
  H   H39       1.0  0.37195652722768807  0.7230822885802581  0.0742561680176692  1.0000
  H   H40       1.0  0.35111635183410067  0.6490493750931209  0.7232681175607072  1.0000
  H   H41       1.0  0.7022272909352054  0.0741861975295279  0.351024982562052  1.0000
  H   H42       1.0  0.6280443683967007  0.27691844783807806  0.9257445860514297  1.0000
  H   H43       1.0  0.9684223929738708  0.6859327971159532  0.5789500770380516  1.0000
  H   H44       1.0  0.282372465454351  0.8930550518205038  0.313964296431145  1.0000
  H   H45       1.0  0.3893093853282465  0.42100141147641784  0.10704579258614906  1.0000
  H   H46       1.0  0.03157598987652928  0.3140645135385398  0.4210459135442834  1.0000
  H   H47       1.0  0.7176283557300351  0.10694397180439813  0.6860358316457252  1.0000
  H   H48       1.0  0.6106939226241578  0.5790010380353224  0.8929548689068201  1.0000
  H   H49       1.0  0.9853029592504612  0.5907090985864302  0.6312089303051353  1.0000
  H   H50       1.0  0.39451861827360096  0.04054688414453981  0.40921626519117643  1.0000
  H   H51       1.0  0.3540241312778605  0.3687544186834019  0.9595702668061467  1.0000
  H   H52       1.0  0.014694999621489957  0.4092873556076881  0.3687873370503355  1.0000
  H   H53       1.0  0.6054794981470124  0.9594529955954486  0.5907826641723093  1.0000
  H   H54       1.0  0.6459771839906523  0.6312471742158082  0.04042950547804478  1.0000
  H   H55       1.0  0.8663752531548994  0.4855113172929323  0.35617847990975093  1.0000
  H   H56       1.0  0.3806966947771641  0.8706556124071554  0.5144063176409048  1.0000
  H   H57       1.0  0.5101024671682738  0.643804590482013  0.12942518319190557  1.0000
  H   H58       1.0  0.13362122445459332  0.5144868494809743  0.6438193624913853  1.0000
  H   H59       1.0  0.6193053455742188  0.12934426770294755  0.4855958791832294  1.0000
  H   H60       1.0  0.48989884810023915  0.35619700241720403  0.8705745890922857  1.0000
  H   H61       1.0  0.9045558440963076  0.4256199172910443  0.4449305890532713  1.0000
  H   H62       1.0  0.47885492251594297  0.019296122513985405  0.5743209082802354  1.0000
  H   H63       1.0  0.4596612929846557  0.5551176505059844  0.9807942457649123  1.0000
  H   H64       1.0  0.09544063351319214  0.5743782494828624  0.5550672533478649  1.0000
  H   H65       1.0  0.521145968774121  0.9807046139248501  0.42567914077709207  1.0000
  H   H66       1.0  0.5403400222838571  0.44488394239323276  0.019205526519279204  1.0000
  H   H67       1.0  0.9559656706785803  0.7339228731127606  0.7623950295112824  1.0000
  H   H68       1.0  0.22198331464240792  0.028539260297591802  0.26604046299576123  1.0000
  H   H69       1.0  0.19339610929076653  0.23752991685456243  0.9714699296007158  1.0000
  H   H70       1.0  0.04403670187393519  0.2660761507462795  0.2376034445003726  1.0000
  H   H71       1.0  0.7780134467341924  0.9714563373088226  0.733957260671332  1.0000
  H   H72       1.0  0.8066067790175141  0.7624716761762972  0.028531713677161147  1.0000
  H   H73       1.0  0.8208295179846418  0.6964084186712116  0.6458938526196649  1.0000
  H   H74       1.0  0.12428262267179936  0.9494451354236305  0.30343807275187373  1.0000
  H   H75       1.0  0.17474006475863751  0.3539743829743928  0.05050303751754375  1.0000
  H   H76       1.0  0.179172579469423  0.3035931743143295  0.35410615014959035  1.0000
  H   H77       1.0  0.8757149996646802  0.05055217504204281  0.6965612124042979  1.0000
  H   H78       1.0  0.8252620413640841  0.6460272099701428  0.9494983752752691  1.0000
  C   C1        1.0  0.7181870630868729  0.33262793547068276  0.31908916562744594  1.0000
  C   C2        1.0  0.3854300610095151  0.9864602401804703  0.6672888819419216  1.0000
  C   C3        1.0  0.39905278932784694  0.6808770009240777  0.013644457617957195  1.0000
  C   C4        1.0  0.28180941885694477  0.6673702312827319  0.6809093817854619  1.0000
  C   C5        1.0  0.6145720494475385  0.0135413527435659  0.33271323586267  1.0000
  C   C6        1.0  0.6009461092783185  0.31912287890224195  0.9863547022305927  1.0000
  C   C7        1.0  0.8365014290098571  0.444188446827603  0.40176501289889216  1.0000
  C   C8        1.0  0.39218357404484294  0.9575685231749635  0.5557384217334803  1.0000
  C   C9        1.0  0.43468953645121633  0.5982162207860499  0.042499873849301734  1.0000
  C   C10       1.0  0.16349625909796828  0.55581057647251  0.5982334882259509  1.0000
  C   C11       1.0  0.6078173302481958  0.042432213202374704  0.4442637423591834  1.0000
  C   C12       1.0  0.5653113505045155  0.4017845156732849  0.9574994701962399  1.0000
  C   C13       1.0  0.9235147272557215  0.6189220971489462  0.5952937702614634  1.0000
  C   C14       1.0  0.30449408351561397  0.9763972687954168  0.38099700077110316  1.0000
  C   C15       1.0  0.32809818068799507  0.4046538918172475  0.023674064241888032  1.0000
  C   C16       1.0  0.07648365992901061  0.38107521348504764  0.4047029253326502  1.0000
  C   C17       1.0  0.6955043954464345  0.02360175455001471  0.6190031408623611  1.0000
  C   C18       1.0  0.6719039211004016  0.5953477011477873  0.9763266435391462  1.0000
  C   C19       1.0  0.8796211356353325  0.6641417921110887  0.6791967141053024  1.0000
  C   C20       1.0  0.21536814814883337  0.015070334072305505  0.3357866652544105  1.0000
  C   C21       1.0  0.20025451192611135  0.3207288934967565  0.984920498699147  1.0000
  C   C22       1.0  0.1203801095275097  0.335858087974195  0.3208031371984319  1.0000
  C   C23       1.0  0.7846310342244391  0.9849269765865075  0.6642123758601033  1.0000
  C   C24       1.0  0.7997475811936282  0.6792726995092836  0.015078799058322457  1.0000
  N   N1        1.0  0.677022669386325  0.2816069956369773  0.3829617046049878  1.0000
  N   N2        1.0  0.39538615817704686  0.10137311871464048  0.7183108983175263  1.0000
  N   N3        1.0  0.2941268090987422  0.6170062230921761  0.8986796927610147  1.0000
  N   N4        1.0  0.322976587426943  0.7183920278152841  0.6170379625017619  1.0000
  N   N5        1.0  0.6046096290242033  0.898626760684387  0.281690159637897  1.0000
  N   N6        1.0  0.7058754933481025  0.38299108795293085  0.10131886027018311  1.0000
  N   N7        1.0  0.818826316523392  0.5182213433267933  0.4899932814652602  1.0000
  N   N8        1.0  0.30049687662656055  0.9717640840842496  0.4816818167586594  1.0000
  N   N9        1.0  0.3287588424350645  0.5099466994650328  0.028262704659290705  1.0000
  N   N10       1.0  0.18116972843899498  0.4817759670277439  0.5100034276854403  1.0000
  N   N11       1.0  0.6995039445578257  0.028234939540652704  0.5183183113182112  1.0000
  N   N12       1.0  0.6712432593533322  0.49005489350000186  0.9717380031217363  1.0000
  N   N13       1.0  0.8089376507456194  0.5693558939117267  0.6914899025703677  1.0000
  N   N14       1.0  0.23943030612023358  0.12208032629173005  0.4305752121043228  1.0000
  N   N15       1.0  0.11734782877238105  0.30849193524638013  0.8778741407027086  1.0000
  N   N16       1.0  0.19106366885722545  0.43064569896699123  0.3085105747256024  1.0000
  N   N17       1.0  0.7605673075475962  0.8779169842149415  0.5694226630282913  1.0000
  N   N18       1.0  0.8826542773503478  0.691509657698163  0.12212727209010425  1.0000
  O   O1        1.0  0.5920311828057692  0.431877144118282  0.47667426679826996  1.0000
  O   O2        1.0  0.16002639122943663  0.04452816635942011  0.5680258634553113  1.0000
  O   O3        1.0  0.11556103840385396  0.5235703941781085  0.955423694174137  1.0000
  O   O4        1.0  0.40796902674470203  0.568125304904676  0.5233304078368947  1.0000
  O   O5        1.0  0.8399717555314652  0.9554717132370739  0.43197800099063255  1.0000
  O   O6        1.0  0.8844420021288356  0.47642520401637983  0.04457939843234736  1.0000
  O   O7        1.0  0.41054282681403725  0.39293585692556837  0.32082695160430336  1.0000
  O   O8        1.0  0.01740455368857853  0.9278454558870525  0.6070568776493986  1.0000
  O   O9        1.0  0.0895491525327614  0.6791521272908768  0.07213639054694453  1.0000
  O   O10       1.0  0.5894589998759159  0.6070683051659672  0.6791752849343313  1.0000
  O   O11       1.0  0.9825940741534681  0.0721569930452546  0.39294451596853025  1.0000
  O   O12       1.0  0.9104509869120322  0.3208486089181478  0.92786836310777  1.0000
  O   O13       1.0  0.39603233556438516  0.3411866638617625  0.47296350171818363  1.0000
  O   O14       1.0  0.0550169123034649  0.13181195873507082  0.6588651059530835  1.0000
  O   O15       1.0  0.9231762814641228  0.5270263121751599  0.8681418434030238  1.0000
  O   O16       1.0  0.6039658639648806  0.6588149286306689  0.5270374636610955  1.0000
  O   O17       1.0  0.9449819949713573  0.8681879210502502  0.341135463919031  1.0000
  O   O18       1.0  0.07682219749791831  0.47297271117027145  0.1318582982304406  1.0000
  O   O19       1.0  0.4341514828998925  0.22009709294839302  0.3219579226368766  1.0000
  O   O20       1.0  0.21409516157305572  0.10168710670802034  0.7798573181111552  1.0000
  O   O21       1.0  0.11236331199722106  0.6782267144027615  0.8982996671518041  1.0000
  O   O22       1.0  0.5658485787604945  0.7799113508904371  0.6780460076814523  1.0000
  O   O23       1.0  0.7859154129472613  0.8983187687984966  0.22015935994386382  1.0000
  O   O24       1.0  0.8876304677707908  0.3217611749005727  0.10170923809988615  1.0000
  O   O25       1.0  0.41320923012384003  0.5788635838763981  0.2904363420729368  1.0000
  O   O26       1.0  0.83432017749827  0.7114979606377573  0.4210574541523329  1.0000
  O   O27       1.0  0.12284217062443063  0.7095801634453386  0.2884802421323444  1.0000
  O   O28       1.0  0.5867931337600254  0.4211354400236402  0.7095607219151605  1.0000
  O   O29       1.0  0.1656791580893255  0.288502775587439  0.578943543958424  1.0000
  O   O30       1.0  0.877159524522824  0.2904205729773183  0.7115235624689334  1.0000
  O   O31       1.0  0.31001353860758474  0.6780340636514097  0.22175155536489657  1.0000
  O   O32       1.0  0.6318705142151019  0.5436717535910419  0.32180545822821227  1.0000
  O   O33       1.0  0.088151451024146  0.7782244646815006  0.4562480890751745  1.0000
  O   O34       1.0  0.6899872782424765  0.32196495999399144  0.778247867700195  1.0000
  O   O35       1.0  0.368129241016625  0.45632983911503544  0.6781945580976372  1.0000
  O   O36       1.0  0.9118478101234545  0.2217745587502549  0.5437522830433468  1.0000
  O   O37       1.0  0.5150189886300325  0.7991493467402864  0.39574528258865643  1.0000
  O   O38       1.0  0.7158124796082176  0.5965724451657977  0.20074424905573815  1.0000
  O   O39       1.0  0.11925610203109466  0.6043510964593467  0.40353631891724023  1.0000
  O   O40       1.0  0.4849809715944673  0.20084796402534982  0.6042532839991425  1.0000
  O   O41       1.0  0.28419026415438964  0.4034257222576871  0.7992568472494459  1.0000
  O   O42       1.0  0.8807452392433819  0.39565049631686844  0.5964676834376307  1.0000
  O   O43       1.0  0.34067765426942725  0.6898504056758624  0.41141321381246604  1.0000
  O   O44       1.0  0.650916959210527  0.7216183552126484  0.3101153805132883  1.0000
  O   O45       1.0  0.9292727875311114  0.5885051374805671  0.27837019955573794  1.0000
  O   O46       1.0  0.6593238703261833  0.31014690526242117  0.5885858137454536  1.0000
  O   O47       1.0  0.34908589875746543  0.2783832379617054  0.6898813276821303  1.0000
  O   O48       1.0  0.07072925282026427  0.41149474262953595  0.7216319972684035  1.0000
