data_image0
_chemical_formula_structural       Mg6H36C72N12O18
_chemical_formula_sum              "Mg6 H36 C72 N12 O18"
_cell_length_a       6.949212957267985
_cell_length_b       35.74213882967392
_cell_length_c       35.73959211108912
_cell_angle_alpha    119.58671499241382
_cell_angle_beta     93.71509137953782
_cell_angle_gamma    93.71918527557564

_space_group_name_H-M_alt    "P 1"
_space_group_IT_number       1

loop_
  _space_group_symop_operation_xyz
  'x, y, z'

loop_
  _atom_site_type_symbol
  _atom_site_label
  _atom_site_symmetry_multiplicity
  _atom_site_fract_x
  _atom_site_fract_y
  _atom_site_fract_z
  _atom_site_occupancy
  Mg  Mg1       1.0  0.8534406737188218  0.69344023847853  0.3287341520015088  1.0000
  Mg  Mg2       1.0  0.524727498493064  0.6712731328555462  0.3647279395294233  1.0000
  Mg  Mg3       1.0  0.15995625097292507  0.6352868730465174  0.30656231835401104  1.0000
  Mg  Mg4       1.0  0.14655841563769909  0.3065597638468489  0.671265852523703  1.0000
  Mg  Mg5       1.0  0.475271590863457  0.32872686946983254  0.6352720649957887  1.0000
  Mg  Mg6       1.0  0.8400428383835961  0.36471312927886157  0.6934376861712082  1.0000
  H   H1        1.0  0.622142411549234  0.4200784345507316  0.8156079682416574  1.0000
  H   H2        1.0  0.08603021478111113  0.43841401135627217  0.8724333379808581  1.0000
  H   H3        1.0  0.9038982946141021  0.3919542588073385  0.7991942689911155  1.0000
  H   H4        1.0  0.9547652491006886  0.42699268561636233  0.9175091565479148  1.0000
  H   H5        1.0  0.2603160983570233  0.4384280700567372  0.964461954745836  1.0000
  H   H6        1.0  0.46492085317518667  0.481308691550467  0.03553355138554079  1.0000
  H   H7        1.0  0.8065050089945558  0.18438613589913186  0.6044603070046577  1.0000
  H   H8        1.0  0.2135161271071198  0.1275648862344738  0.5659781656809527  1.0000
  H   H9        1.0  0.1046614247751663  0.20081000551716247  0.5927763131629716  1.0000
  H   H10       1.0  0.037228365070553986  0.0824890813356092  0.5094927614550426  1.0000
  H   H11       1.0  0.29587119558587455  0.035544454174115  0.47396583316467655  1.0000
  H   H12       1.0  0.4294248480140723  0.9644834742794616  0.44578230882034103  1.0000
  H   H13       1.0  0.20210239301979263  0.3955388600738984  0.5799234113544499  1.0000
  H   H14       1.0  0.6476276946465802  0.4340221156087694  0.5615914292494962  1.0000
  H   H15       1.0  0.5119518298174625  0.40722842742053444  0.608033443325631  1.0000
  H   H16       1.0  0.5277983516936757  0.49051092021034043  0.5730022669630583  1.0000
  H   H17       1.0  0.8219042119416218  0.5260360936913671  0.5615712438967149  1.0000
  H   H18       1.0  0.9836226713209584  0.5542134828478069  0.5186880456833974  1.0000
  H   H19       1.0  0.3778581199083816  0.5799215677718903  0.18439177466087386  1.0000
  H   H20       1.0  0.9139703166226384  0.5615859909791397  0.12756668472903956  1.0000
  H   H21       1.0  0.09610095666491235  0.6080460672737756  0.20080589742569524  1.0000
  H   H22       1.0  0.045233840255832436  0.573007316709017  0.08249084797730433  1.0000
  H   H23       1.0  0.7396829909994979  0.5615719322686417  0.03553804977938309  1.0000
  H   H24       1.0  0.5350783981038276  0.5186916345306399  0.96446661503127  1.0000
  H   H25       1.0  0.1934940803619653  0.815613866426247  0.39553969752055435  1.0000
  H   H26       1.0  0.7864844042966226  0.8724351161009309  0.4340218570289449  1.0000
  H   H27       1.0  0.8953389446522165  0.799189673075304  0.4072238274627009  1.0000
  H   H28       1.0  0.9627721663331955  0.9175109209997957  0.4905072612548622  1.0000
  H   H29       1.0  0.7041294977403679  0.964455871917025  0.5260343514368201  1.0000
  H   H30       1.0  0.5705756833896701  0.03551652805594328  0.5542177138895568  1.0000
  H   H31       1.0  0.7978966963367287  0.6044611422514806  0.4200765931707621  1.0000
  H   H32       1.0  0.3523713947099408  0.5659778867166095  0.43840857527572286  1.0000
  H   H33       1.0  0.48804870158627983  0.5927715749148775  0.3919665793842667  1.0000
  H   H34       1.0  0.47220217965619327  0.5094890821378543  0.42699803555421306  1.0000
  H   H35       1.0  0.178096481384614  0.4739642323997657  0.4384289407047816  1.0000
  H   H36       1.0  0.016376579958055956  0.44578684323330015  0.48131212073341345  1.0000
  C   C1        1.0  0.4790921289269577  0.3762623388623467  0.7334167428115775  1.0000
  C   C2        1.0  0.3652173951808353  0.38881369307497954  0.7704572552611706  1.0000
  C   C3        1.0  0.4651725421306453  0.4129907674841391  0.8120812382481261  1.0000
  C   C4        1.0  0.36741612317421607  0.4293915745504222  0.8490047843459647  1.0000
  C   C5        1.0  0.162973640735224  0.4234178655075027  0.8437851800550502  1.0000
  C   C6        1.0  0.06158431647838817  0.39801738494084304  0.8031247118286656  1.0000
  C   C7        1.0  0.15772893799240958  0.3788093172419522  0.7653801421040709  1.0000
  C   C8        1.0  0.7368794495906883  0.4706796072537429  0.9367580123843381  1.0000
  C   C9        1.0  0.9118174437331633  0.4568754747365417  0.9434904251568026  1.0000
  C   C10       1.0  0.0313428893928388  0.4805677055980055  0.9831193388022753  1.0000
  C   C11       1.0  0.2125490390296747  0.46752121764152593  0.9906372553232499  1.0000
  C   C12       1.0  0.32621840517549566  0.49105686146264566  0.029592560328161665  1.0000
  C   C13       1.0  0.7456363355892537  0.2665620123117662  0.6428400830684919  1.0000
  C   C14       1.0  0.5947087787724641  0.2295232397282732  0.6183580557436554  1.0000
  C   C15       1.0  0.6530485880209725  0.18790218483525223  0.6008965274795557  1.0000
  C   C16       1.0  0.5183257015347706  0.15098121648019713  0.5803661409202048  1.0000
  C   C17       1.0  0.31910478258951963  0.1562113442740127  0.5796212713828622  1.0000
  C   C18       1.0  0.2584054129206379  0.1968736690185651  0.5949089959694189  1.0000
  C   C19       1.0  0.39231921559252214  0.23460649901185351  0.6134388431606295  1.0000
  C   C20       1.0  0.8000201388122647  0.0632343652682721  0.5339205522501158  1.0000
  C   C21       1.0  0.9682776508493944  0.056510916731859616  0.5133981918922074  1.0000
  C   C22       1.0  0.04820494358325791  0.0168909235470238  0.49745632596504646  1.0000
  C   C23       1.0  0.2219220220494975  0.009377564662770501  0.4768953853664825  1.0000
  C   C24       1.0  0.29668966982595885  0.9704273453628502  0.4614788929543606  1.0000
  C   C25       1.0  0.10275714005135228  0.35718103016090913  0.623740852611064  1.0000
  C   C26       1.0  0.9763886668275819  0.38165452549571205  0.6111720577848913  1.0000
  C   C27       1.0  0.05222098792116722  0.39911175067187793  0.5870120702521431  1.0000
  C   C28       1.0  0.9380562923162401  0.4196338130496359  0.5706136776906374  1.0000
  C   C29       1.0  0.739597241231614  0.4203852091903642  0.5765944506210373  1.0000
  C   C30       1.0  0.6635519102002618  0.4050881758538267  0.6019572379785102  1.0000
  C   C31       1.0  0.7788741536186022  0.3865471620950132  0.6211512470930101  1.0000
  C   C32       1.0  0.26614856236879086  0.46609768047422756  0.5293348545961151  1.0000
  C   C33       1.0  0.4549430888653134  0.48660890612473656  0.5431199769630907  1.0000
  C   C34       1.0  0.550764428304518  0.5025461905331524  0.5194314736655057  1.0000
  C   C35       1.0  0.7450419930958034  0.5230982091380553  0.5324686942942518  1.0000
  C   C36       1.0  0.8352082712876552  0.5385035472672897  0.5089247175453407  1.0000
  C   C37       1.0  0.5209084024767917  0.6237376634730579  0.2665832798983201  1.0000
  C   C38       1.0  0.634781694175686  0.6111863092503994  0.22954274926404838  1.0000
  C   C39       1.0  0.5348279893269705  0.5870092348384831  0.18791850465439813  1.0000
  C   C40       1.0  0.6325844082295333  0.5706084277849828  0.15099523836393303  1.0000
  C   C41       1.0  0.8370268907223918  0.5765821368151195  0.1562145628474737  1.0000
  C   C42       1.0  0.9384162149792276  0.601982617381772  0.19687503107385837  1.0000
  C   C43       1.0  0.8422701513641114  0.6211906850834269  0.23461986242114113  1.0000
  C   C44       1.0  0.26311963976583286  0.529320395071629  0.06324199214088097  1.0000
  C   C45       1.0  0.08818148375473094  0.5431242038203195  0.05650913766944396  1.0000
  C   C46       1.0  0.9686590841658642  0.5194322967218524  0.01688014247756082  1.0000
  C   C47       1.0  0.7874529344751622  0.5324787846911221  0.009362505763959944  1.0000
  C   C48       1.0  0.6737821262282466  0.5089431408727592  0.970407462381736  1.0000
  C   C49       1.0  0.2543627537672675  0.7334379900136125  0.3571599214567198  1.0000
  C   C50       1.0  0.40529031058405707  0.7704767625971057  0.38164194878156343  1.0000
  C   C51       1.0  0.3469505013355486  0.8120978174901268  0.3991034770456635  1.0000
  C   C52       1.0  0.4816748298689717  0.8490187858552076  0.41963388178969996  1.0000
  C   C53       1.0  0.680895748706483  0.8437886580869716  0.42037931094177583  1.0000
  C   C54       1.0  0.741595118375365  0.8031263333424192  0.405091586355226  1.0000
  C   C55       1.0  0.6076798737101328  0.7653935033263153  0.3865614411719561  1.0000
  C   C56       1.0  0.19997895059812965  0.9367656370443173  0.46607917246772956  1.0000
  C   C57       1.0  0.03172143850712667  0.9434890855935195  0.4866018126330116  1.0000
  C   C58       1.0  0.9517955878743578  0.9831090787755913  0.5025434169374775  1.0000
  C   C59       1.0  0.7780785094081182  0.9906224376598516  0.5231043575360416  1.0000
  C   C60       1.0  0.7033094195305624  0.029572656962528802  0.5385211115708515  1.0000
  C   C61       1.0  0.8972435532748831  0.6428192959302307  0.37625933199043243  1.0000
  C   C62       1.0  0.023612026498653866  0.618345800595428  0.3888281268166052  1.0000
  C   C63       1.0  0.9477797054050682  0.6008885754192618  0.41298811434935334  1.0000
  C   C64       1.0  0.06194295896277414  0.5803665130314783  0.42938648872618046  1.0000
  C   C65       1.0  0.2604032901721284  0.5796147931450406  0.42340557208886037  1.0000
  C   C66       1.0  0.33644717915625927  0.5949118264715452  0.3980427665467089  1.0000
  C   C67       1.0  0.22112493573791864  0.6134528402303656  0.3788487574322017  1.0000
  C   C68       1.0  0.7338503650113637  0.5339019981082059  0.4706652678448789  1.0000
  C   C69       1.0  0.5450560004373344  0.5133910962134323  0.45688030736949503  1.0000
  C   C70       1.0  0.44923466099813686  0.4974538118050162  0.4805688106670799  1.0000
  C   C71       1.0  0.2549556541596303  0.47690179319008064  0.467531571853655  1.0000
  C   C72       1.0  0.16479081801499976  0.46149645507087206  0.49107556678724507  1.0000
  N   N1        1.0  0.46087798295638294  0.4529901123634303  0.8915312822038286  1.0000
  N   N2        1.0  0.6351204322975122  0.44523731932496  0.8951872287270034  1.0000
  N   N3        1.0  0.5692419648235757  0.108460353891175  0.5614473277447514  1.0000
  N   N4        1.0  0.7398532280284585  0.1048029006026567  0.5500507842144413  1.0000
  N   N5        1.0  0.007870281424189244  0.43855144943703556  0.5470124183654262  1.0000
  N   N6        1.0  0.18987232775224774  0.44995858197950156  0.5547641482672245  1.0000
  N   N7        1.0  0.5391225484473666  0.5470098899719815  0.10846874050606906  1.0000
  N   N8        1.0  0.36487881898150226  0.5547630067561471  0.10481293768980747  1.0000
  N   N9        1.0  0.43075856663404005  0.8915396484314471  0.4385524151577797  1.0000
  N   N10       1.0  0.26014586138192897  0.8951971017099325  0.44994894050340384  1.0000
  N   N11       1.0  0.9921302499795531  0.5614485528983763  0.45298760434447133  1.0000
  N   N12       1.0  0.8101267616042805  0.5500414203458774  0.44523585625799444  1.0000
  O   O1        1.0  0.34311472596640874  0.6091932258356821  0.2610883010233707  1.0000
  O   O2        1.0  0.6072462632257893  0.6499628539547401  0.30500760451965897  1.0000
  O   O3        1.0  0.9476166034826791  0.6468325982517201  0.27291441823768275  1.0000
  O   O4        1.0  0.08206377023836339  0.7389333827186491  0.3481088838360761  1.0000
  O   O5        1.0  0.30220123878945054  0.6950154090730223  0.3449798926720432  1.0000
  O   O6        1.0  0.6746698591499013  0.7270940470277125  0.3739111118765661  1.0000
  O   O7        1.0  0.7340258418577221  0.6518806068231842  0.39081281060429507  1.0000
  O   O8        1.0  0.9573112899107842  0.6550205162574088  0.3500339840757362  1.0000
  O   O9        1.0  0.3007496622989406  0.6261068104364682  0.35320122549286737  1.0000
  O   O10       1.0  0.6568858054373339  0.39080677649972273  0.7389117216865343  1.0000
  O   O11       1.0  0.392752664262112  0.3500368246021211  0.6949919583065877  1.0000
  O   O12       1.0  0.052383927921063354  0.35316740408368474  0.727085604472215  1.0000
  O   O13       1.0  0.9179369230878721  0.2610669433724908  0.6518913007654203  1.0000
  O   O14       1.0  0.6977978505670706  0.3049845932523495  0.6550201118531758  1.0000
  O   O15       1.0  0.32532923020662  0.27290595529766654  0.6260888926486529  1.0000
  O   O16       1.0  0.2659748514685204  0.3481197192679487  0.6091873739972014  1.0000
  O   O17       1.0  0.042687799499610365  0.3449794860551876  0.649965740642102  1.0000
  O   O18       1.0  0.6992508691048017  0.3738931918989437  0.6467987972170304  1.0000
