data_image0
_chemical_formula_structural       Zn4H52C64N4O24
_chemical_formula_sum              "Zn4 H52 C64 N4 O24"
_cell_length_a       10.835362504582063
_cell_length_b       10.835935842341371
_cell_length_c       16.118
_cell_angle_alpha    71.4450085938705
_cell_angle_beta     71.44399095341804
_cell_angle_gamma    64.92933985412283

_space_group_name_H-M_alt    "P 1"
_space_group_IT_number       1

loop_
  _space_group_symop_operation_xyz
  'x, y, z'

loop_
  _atom_site_type_symbol
  _atom_site_label
  _atom_site_symmetry_multiplicity
  _atom_site_fract_x
  _atom_site_fract_y
  _atom_site_fract_z
  _atom_site_occupancy
  Zn  Zn1       1.0  0.09213510472358875  0.43911435973605256  0.15295508339283265  1.0000
  Zn  Zn2       1.0  0.5608863028399469  0.9078648271184947  0.3470442931026982  1.0000
  Zn  Zn3       1.0  0.9078642311588824  0.5608865678197787  0.8470449843341896  1.0000
  Zn  Zn4       1.0  0.4391143807759761  0.0921350575366944  0.6529550889865021  1.0000
  H   H1        1.0  0.16729970053571463  0.3260868735657922  0.39858401234430835  1.0000
  H   H2        1.0  0.6739123911264286  0.8327019346885152  0.10141529879538076  1.0000
  H   H3        1.0  0.8327009830802014  0.6739130110893967  0.6014153697448918  1.0000
  H   H4        1.0  0.32608731897537524  0.1672979499666738  0.898584911983896  1.0000
  H   H5        1.0  0.9927764125677356  0.2575088558122118  0.68035884419249  1.0000
  H   H6        1.0  0.7424920492799529  0.0072231298715195  0.8196405637267719  1.0000
  H   H7        1.0  0.00722427104818017  0.7424910288429771  0.3196405378967029  1.0000
  H   H8        1.0  0.25750900855529585  0.9927757118830272  0.18035958183904197  1.0000
  H   H9        1.0  0.7219561035155949  0.45917142495248703  0.4917651314184539  1.0000
  H   H10       1.0  0.5408288515472393  0.2780425266236861  0.008234606146814432  1.0000
  H   H11       1.0  0.27804458010032107  0.540828459702702  0.5082348710951125  1.0000
  H   H12       1.0  0.4591708585545646  0.7219573580315028  0.991764984208082  1.0000
  H   H13       1.0  0.5921526106613655  0.5820647512302486  0.6147442428790201  1.0000
  H   H14       1.0  0.4179345765653366  0.4078481983805702  0.8852552315075785  1.0000
  H   H15       1.0  0.4078476987352176  0.4179361763255898  0.3852549961579328  1.0000
  H   H16       1.0  0.5820651335364674  0.5921516862746188  0.11474435884731797  1.0000
  H   H17       1.0  0.3990869757654565  0.6009130945984111  0.7499997367771768  1.0000
  H   H18       1.0  0.6009140820697922  0.3990857471561284  0.24999978836427064  1.0000
  H   H19       1.0  0.8248311848293286  0.1751687211391157  0.7499997719465983  1.0000
  H   H20       1.0  0.1751694987865875  0.8248311635160732  0.2499996101426021  1.0000
  H   H21       1.0  0.9271527755597476  0.703188275112403  0.21309610278946417  1.0000
  H   H22       1.0  0.2968110561089361  0.072847652996721  0.2869034522622229  1.0000
  H   H23       1.0  0.07284730876138922  0.2968105666421437  0.7869036306176794  1.0000
  H   H24       1.0  0.7031882797735349  0.9271532745591103  0.7130959950404331  1.0000
  H   H25       1.0  0.8854782009751005  0.9525572913856023  0.15361524785174654  1.0000
  H   H26       1.0  0.04744284183373539  0.11452196279542191  0.3463854331218955  1.0000
  H   H27       1.0  0.1145215091267033  0.0474425932695866  0.8463855833518963  1.0000
  H   H28       1.0  0.9525578417821876  0.885477921859767  0.6536145693916708  1.0000
  H   H29       1.0  0.14695958096346837  0.8478552810692718  0.8998923659400901  1.0000
  H   H30       1.0  0.15214428406923727  0.8530405830792631  0.6001071956571807  1.0000
  H   H31       1.0  0.8530401291383425  0.1521446035859171  0.10010784483917944  1.0000
  H   H32       1.0  0.8478554260325666  0.1469593015759258  0.3998923946977229  1.0000
  H   H33       1.0  0.17912292162421298  0.6014679177418785  0.9717621649631737  1.0000
  H   H34       1.0  0.39853283182275595  0.8208775271685482  0.5282377027548506  1.0000
  H   H35       1.0  0.820876788477598  0.3985319669133105  0.028237425391722592  1.0000
  H   H36       1.0  0.6014665040597151  0.179123400387283  0.47176236497217167  1.0000
  H   H37       1.0  0.3858619831932231  0.3390428282862459  0.1503162039134978  1.0000
  H   H38       1.0  0.6609578099852698  0.6141381176854352  0.3496831416192165  1.0000
  H   H39       1.0  0.614138700422693  0.6609570563689431  0.8496831781756954  1.0000
  H   H40       1.0  0.33904152589720143  0.3858628098704031  0.6503163056834325  1.0000
  H   H41       1.0  0.8430663701777377  0.5466342875968309  0.10277690272316438  1.0000
  H   H42       1.0  0.4533643474288667  0.1569346462512158  0.39722391635103804  1.0000
  H   H43       1.0  0.1569343134381782  0.45336559705835816  0.897223099790402  1.0000
  H   H44       1.0  0.5466363361870492  0.8430652384039733  0.6027760861625283  1.0000
  H   H45       1.0  0.8334152193144674  0.4871117761491064  0.20960414185906034  1.0000
  H   H46       1.0  0.5128880589337115  0.166584605925074  0.29039667531806407  1.0000
  H   H47       1.0  0.16658546430145554  0.5128881085060826  0.7903958606545134  1.0000
  H   H48       1.0  0.48711165116809974  0.8334152787301151  0.7096035354612128  1.0000
  H   H49       1.0  0.3175141614401582  0.4871847791943011  0.17279712923784274  1.0000
  H   H50       1.0  0.5128155507918777  0.6824846114956884  0.3272025663362399  1.0000
  H   H51       1.0  0.6824851744423129  0.5128161483615372  0.8272029384891795  1.0000
  H   H52       1.0  0.4871845335292592  0.3175142302588512  0.6727977874952842  1.0000
  C   C1        1.0  0.9305564797875477  0.4448148546649763  0.34025796200658937  1.0000
  C   C2        1.0  0.5551839391598606  0.0694446681900871  0.15974341537733489  1.0000
  C   C3        1.0  0.06944420382837539  0.5551850299902128  0.6597414200826108  1.0000
  C   C4        1.0  0.44481539672261056  0.9305562593657443  0.8402566523496876  1.0000
  C   C5        1.0  0.9429903545223509  0.3970374902881488  0.43617431609413876  1.0000
  C   C6        1.0  0.6029636143455407  0.0570091208917987  0.0638250634756403  1.0000
  C   C7        1.0  0.05701032909356482  0.6029623943670401  0.5638256864194348  1.0000
  C   C8        1.0  0.3970360957562634  0.9429907637633903  0.9361751473036292  1.0000
  C   C9        1.0  0.07705234358812163  0.3340379480879463  0.4539395313559993  1.0000
  C   C10       1.0  0.6659606314240564  0.9229493420566469  0.04606115642776135  1.0000
  C   C11       1.0  0.9229483400277945  0.6659619365672427  0.5460604711575741  1.0000
  C   C12       1.0  0.3340381051636356  0.0770505425985419  0.9539392626172117  1.0000
  C   C13       1.0  0.09449622045612929  0.2817750680343352  0.5419157867915629  1.0000
  C   C14       1.0  0.7182249552232493  0.9055037000568262  0.9580831084738437  1.0000
  C   C15       1.0  0.9055044631597868  0.7182248166208538  0.45808359529763737  1.0000
  C   C16       1.0  0.2817761026119996  0.0944951416977133  0.0419170370919772  1.0000
  C   C17       1.0  0.9769717709994411  0.2955204985435174  0.6120300713988345  1.0000
  C   C18       1.0  0.7044796430356899  0.023028289155782  0.8879706299529886  1.0000
  C   C19       1.0  0.023028912616482013  0.7044793861116716  0.38796931069036594  1.0000
  C   C20       1.0  0.29552141479955923  0.9769705525987575  0.11202951561283214  1.0000
  C   C21       1.0  0.841746827701279  0.3611627509797017  0.5957849934627645  1.0000
  C   C22       1.0  0.6388373969516933  0.1582528726672763  0.9042145426512179  1.0000
  C   C23       1.0  0.1582538559146371  0.6388371336754872  0.4042150090508019  1.0000
  C   C24       1.0  0.3611623131501106  0.8417470119879128  0.09578504770368572  1.0000
  C   C25       1.0  0.8256781397239835  0.4107516337779629  0.5067526821429595  1.0000
  C   C26       1.0  0.5892480884975697  0.1743208429142342  0.9932489598508882  1.0000
  C   C27       1.0  0.1743225438919396  0.5892482508772261  0.49324794079498  1.0000
  C   C28       1.0  0.41075162160423423  0.8256790417409547  0.0067506305040084345  1.0000
  C   C29       1.0  0.7218591589346988  0.3760720586093882  0.6729714654734167  1.0000
  C   C30       1.0  0.6239272866520125  0.2781395163837317  0.827029082072535  1.0000
  C   C31       1.0  0.2781405511671124  0.6239278260458008  0.3270287453058529  1.0000
  C   C32       1.0  0.3760727976691244  0.721859325370815  0.17297065133461595  1.0000
  C   C33       1.0  0.6003424336586676  0.4963059882408345  0.6734239581482556  1.0000
  C   C34       1.0  0.503694434665988  0.3996572567099292  0.8265755212790252  1.0000
  C   C35       1.0  0.3996578757379228  0.5036949393150039  0.3265759013130635  1.0000
  C   C36       1.0  0.49630602387448164  0.600340542143968  0.17342497560473907  1.0000
  C   C37       1.0  0.4927716144031821  0.5072272438016938  0.7500012369453658  1.0000
  C   C38       1.0  0.5072294434320669  0.4927715979528529  0.24999952904482112  1.0000
  C   C39       1.0  0.7311066402707952  0.2688952450610174  0.749998728073308  1.0000
  C   C40       1.0  0.2688940433451208  0.7311046395941716  0.2500006540158922  1.0000
  C   C41       1.0  0.23701340215248484  0.21510555846222698  0.5618801462638388  1.0000
  C   C42       1.0  0.7848947427668946  0.7629850694299236  0.9381208607801383  1.0000
  C   C43       1.0  0.7629863079493263  0.784894326192962  0.4381194440910646  1.0000
  C   C44       1.0  0.2151053415542421  0.2370137723246231  0.06188011347575181  1.0000
  C   C45       1.0  0.9750703617323068  0.7398952491360475  0.144121756360704  1.0000
  C   C46       1.0  0.2601076764847861  0.0249294970327369  0.3558777720552726  1.0000
  C   C47       1.0  0.024929348369497003  0.2601046355191414  0.8558784544185656  1.0000
  C   C48       1.0  0.7398926329117969  0.9750714305231014  0.6441220874060535  1.0000
  C   C49       1.0  0.952026048113652  0.8804730416614674  0.10958189189697978  1.0000
  C   C50       1.0  0.11952435504956331  0.0479744725988525  0.3904192981417581  1.0000
  C   C51       1.0  0.047973661988152116  0.1195268429937215  0.89041831888229  1.0000
  C   C52       1.0  0.8804753550522478  0.9520254120563364  0.6095809126375115  1.0000
  C   C53       1.0  0.012310273113527618  0.9253907724680275  0.01993252195519093  1.0000
  C   C54       1.0  0.07460880017138997  0.9876894854343733  0.4800671247856628  1.0000
  C   C55       1.0  0.9876904105023885  0.0746091121871615  0.9800674805583754  1.0000
  C   C56       1.0  0.9253912841497468  0.0123093563201735  0.5199326086214883  1.0000
  C   C57       1.0  0.09581108401471988  0.8225127953808737  0.9696666982235129  1.0000
  C   C58       1.0  0.1774853050278652  0.9041886023427068  0.5303338993426294  1.0000
  C   C59       1.0  0.9041882518677511  0.1774881321749646  0.030333369503509323  1.0000
  C   C60       1.0  0.8225144050739388  0.095811282312475  0.469665691012267  1.0000
  C   C61       1.0  0.11548938807915485  0.6835671423658383  0.009015388281426366  1.0000
  C   C62       1.0  0.3164348465760014  0.8845111529612809  0.49098357413522115  1.0000
  C   C63       1.0  0.8845103220226492  0.3164327422893507  0.9909842020734771  1.0000
  C   C64       1.0  0.6835644893064768  0.1154897745945505  0.5090164935918011  1.0000
  N   N1        1.0  0.05579758321572106  0.6430525380850582  0.09473428209680183  1.0000
  N   N2        1.0  0.3569494238605203  0.9442015714129469  0.4052656031172504  1.0000
  N   N3        1.0  0.9442021268860828  0.3569473465701307  0.9052653082581016  1.0000
  N   N4        1.0  0.6430512597553957  0.0557983132422422  0.5947343993963231  1.0000
  O   O1        1.0  0.04586995379707301  0.4356738305061754  0.2832816028030507  1.0000
  O   O2        1.0  0.564326396505223  0.9541341571617679  0.21671635240296183  1.0000
  O   O3        1.0  0.9541293820854051  0.5643270970496559  0.7167178444995984  1.0000
  O   O4        1.0  0.4356719658631434  0.0458667703940634  0.7832839235897638  1.0000
  O   O5        1.0  0.8126158326280902  0.48694699784709883  0.3202957704334041  1.0000
  O   O6        1.0  0.513054582041697  0.1873800447986014  0.179704277188371  1.0000
  O   O7        1.0  0.18738387747371382  0.5130528868080901  0.6797044403458657  1.0000
  O   O8        1.0  0.4869461015742189  0.8126198398565876  0.8202957253252027  1.0000
  O   O9        1.0  0.24111374546571082  0.1750394014590597  0.6458065431082501  1.0000
  O   O10       1.0  0.8249607658857482  0.7588854269920162  0.8541943426382802  1.0000
  O   O11       1.0  0.758885964636093  0.8249604831961292  0.3541936676710193  1.0000
  O   O12       1.0  0.1750402919495002  0.2411134147625305  0.14580642335191382  1.0000
  O   O13       1.0  0.3453031178751332  0.2011661484329608  0.5000682351099783  1.0000
  O   O14       1.0  0.7988335907006388  0.6546986095946181  0.9999309547973142  1.0000
  O   O15       1.0  0.6546968173021243  0.7988358220235199  0.4999314812990932  1.0000
  O   O16       1.0  0.2011645465922741  0.3453002321599286  6.98155656095857e-05  1.0000
  O   O17       1.0  0.3106482856759741  0.43202472114717944  0.1382236692412633  1.0000
  O   O18       1.0  0.5679755637495276  0.6893521122470503  0.3617763087667  1.0000
  O   O19       1.0  0.689351050206497  0.5679762064086589  0.8617757780613858  1.0000
  O   O20       1.0  0.43202511986638836  0.3106477724081387  0.6382236937468664  1.0000
  O   O21       1.0  0.8806754634816159  0.4644766605367181  0.14918341748093417  1.0000
  O   O22       1.0  0.5355246899579172  0.1193245202684707  0.3508151803177242  1.0000
  O   O23       1.0  0.11932522013430001  0.5355232241184709  0.8508165850326395  1.0000
  O   O24       1.0  0.4644759936580059  0.8806753643867183  0.649184201771476  1.0000
