data_image0
_chemical_formula_structural       Mn6H18C18N18Cl6O6
_chemical_formula_sum              "Mn6 H18 C18 N18 Cl6 O6"
_cell_length_a       8.276667250749796
_cell_length_b       14.285490979905214
_cell_length_c       14.280490767536447
_cell_angle_alpha    116.54252367472525
_cell_angle_beta     101.47218794598692
_cell_angle_gamma    101.46259749592704

_space_group_name_H-M_alt    "P 1"
_space_group_IT_number       1

loop_
  _space_group_symop_operation_xyz
  'x, y, z'

loop_
  _atom_site_type_symbol
  _atom_site_label
  _atom_site_symmetry_multiplicity
  _atom_site_fract_x
  _atom_site_fract_y
  _atom_site_fract_z
  _atom_site_occupancy
  Mn  Mn1       1.0  0.7136922748880181  0.7076788879909232  0.4335479890423031  1.0000
  Mn  Mn2       1.0  0.9941363320535996  0.7049950181159302  0.2824718845443072  1.0000
  Mn  Mn3       1.0  0.28081119582512315  0.5665233917418037  0.277906829661937  1.0000
  Mn  Mn4       1.0  0.28070211503782627  0.2776478231630293  0.5665014102696658  1.0000
  Mn  Mn5       1.0  0.9941071656365494  0.2823070132520016  0.7050752821873585  1.0000
  Mn  Mn6       1.0  0.7136092717778126  0.43320062739889664  0.7076930696697444  1.0000
  H   H1        1.0  0.756182298576256  0.8753711662857383  0.6473791761962955  1.0000
  H   H2        1.0  0.9335246197940847  0.8548597618713103  0.24494782790303288  1.0000
  H   H3        1.0  0.09744656875214021  0.3584582732166623  0.2044095111382233  1.0000
  H   H4        1.0  0.10829166758393453  0.8520024518825127  0.22175941980005826  1.0000
  H   H5        1.0  0.9400155081558595  0.8716380033126186  0.6413277594923981  1.0000
  H   H6        1.0  0.2973381292867288  0.37837877264319536  0.23194174701397682  1.0000
  H   H7        1.0  0.29715647715160287  0.23151365603784063  0.3783129858861613  1.0000
  H   H8        1.0  0.10824306047428682  0.22173211946224572  0.8522963402492888  1.0000
  H   H9        1.0  0.9393597653748952  0.6427644115326743  0.869933243743311  1.0000
  H   H10       1.0  0.9334714912565117  0.24494402249545288  0.8550663717408467  1.0000
  H   H11       1.0  0.09724428797856896  0.2039493178764077  0.35832408974764707  1.0000
  H   H12       1.0  0.7549863096112687  0.6478321889243263  0.8734208948853915  1.0000
  H   H13       1.0  0.7991043989839638  0.9919014917566927  0.562934782871288  1.0000
  H   H14       1.0  0.7989711325914256  0.5631820581171638  0.991950324224106  1.0000
  H   H15       1.0  0.23442325131750152  0.4143424441197184  0.4144149340529849  1.0000
  H   H16       1.0  0.17981855608076108  0.9920309727888893  0.42600355311018484  1.0000
  H   H17       1.0  0.7884096300522144  0.5736142952870225  0.5738128067536576  1.0000
  H   H18       1.0  0.17992413369343305  0.42592633813587366  0.9921931324385366  1.0000
  C   C1        1.0  0.524083393883437  0.8939873629434203  0.46829801027804036  1.0000
  C   C2        1.0  0.6264021481134918  0.5630500439497298  0.08910610223821176  1.0000
  C   C3        1.0  0.06894465032903001  0.5167215774021727  0.4190120798128304  1.0000
  C   C4        1.0  0.3503018473158337  0.892715898802699  0.4262532345086996  1.0000
  C   C5        1.0  0.9460087380078119  0.5623175821080935  0.46592576737111796  1.0000
  C   C6        1.0  0.45215737759686186  0.5234999041977417  0.08819798981405563  1.0000
  C   C7        1.0  0.452063147381068  0.08801880959274651  0.523583284056478  1.0000
  C   C8        1.0  0.3503221955385739  0.4261944896554084  0.8928181793728027  1.0000
  C   C9        1.0  0.9459685721801561  0.4657276971207552  0.562377259667059  1.0000
  C   C10       1.0  0.6263607754411211  0.08895606670921555  0.5630881305755435  1.0000
  C   C11       1.0  0.0688887072030156  0.4188306388643215  0.5167411738787206  1.0000
  C   C12       1.0  0.5240428697186204  0.4682865568315577  0.8940720772120865  1.0000
  C   C13       1.0  0.6661505604731418  0.9913842200785086  0.536710242933644  1.0000
  C   C14       1.0  0.6661118743052726  0.5367531130987616  0.9914886257134864  1.0000
  C   C15       1.0  0.13238231046414486  0.4431514252212311  0.4432305437366323  1.0000
  C   C16       1.0  0.3106413569700594  0.9902362496388123  0.45327956843058786  1.0000
  C   C17       1.0  0.8819304163014793  0.5386606122618788  0.5388087916807933  1.0000
  C   C18       1.0  0.3107243494354749  0.4532118441538061  0.9903892411440649  1.0000
  N   N1        1.0  0.5186729345778859  0.7862426471062706  0.4279206035705413  1.0000
  N   N2        1.0  0.7306061058336438  0.6261400255325994  0.19830195412278323  1.0000
  N   N3        1.0  0.1038462161299806  0.5607311381114998  0.35345114979745057  1.0000
  N   N4        1.0  0.24705188811283557  0.7828238750333796  0.3597894453734083  1.0000
  N   N5        1.0  0.910262646191498  0.6304985777479006  0.4275794498601967  1.0000
  N   N6        1.0  0.45974134965096164  0.5664910236077745  0.19705696609349835  1.0000
  N   N7        1.0  0.4596046053367857  0.19683425069705857  0.566568826629016  1.0000
  N   N8        1.0  0.24704618858966412  0.35966952589349444  0.7828998479889291  1.0000
  N   N9        1.0  0.9101588958742893  0.4272988824637522  0.6304979942503051  1.0000
  N   N10       1.0  0.7305385073996433  0.19810474998900673  0.6261697857716368  1.0000
  N   N11       1.0  0.10371861523915273  0.3531989626152452  0.5606713854514778  1.0000
  N   N12       1.0  0.5185769309425864  0.4278767344011103  0.7862689090896137  1.0000
  N   N13       1.0  0.35431781795572437  0.7213913871636349  0.36141336289123394  1.0000
  N   N14       1.0  0.6263647920072444  0.6260701202266931  0.2587619252127454  1.0000
  N   N15       1.0  0.0022482488090247547  0.6269963072624307  0.3591452553773919  1.0000
  N   N16       1.0  0.6262401464142967  0.2585263356869234  0.626120936635672  1.0000
  N   N17       1.0  0.3542509917500923  0.3612874488052428  0.7214168471554172  1.0000
  N   N18       1.0  0.002124362589413062  0.3588662254381276  0.6269538896733946  1.0000
  Cl  Cl1       1.0  0.4796213815276075  0.546247341177363  0.4031803063925991  1.0000
  Cl  Cl2       1.0  0.9272609942077068  0.8487030314193903  0.41447754440683576  1.0000
  Cl  Cl3       1.0  0.07234764456803348  0.5745461703463806  0.1535701313835105  1.0000
  Cl  Cl4       1.0  0.4794281556726221  0.402589064439866  0.5459087390305797  1.0000
  Cl  Cl5       1.0  0.07237011504028601  0.1534326631311416  0.574664718599976  1.0000
  Cl  Cl6       1.0  0.9271821943284239  0.4143494419799013  0.8487816594759249  1.0000
  O   O1        1.0  0.8233797418243114  0.8249188626641272  0.6256589922321465  1.0000
  O   O2        1.0  0.986831610124554  0.8062328989846606  0.19689650731708486  1.0000
  O   O3        1.0  0.19658157941317003  0.37792201357435584  0.18164200287913698  1.0000
  O   O4        1.0  0.1963947128015704  0.18120607771971464  0.3778196596424691  1.0000
  O   O5        1.0  0.9868152867626349  0.1969057279801447  0.8064594084881092  1.0000
  O   O6        1.0  0.8219806447376639  0.6253997729814245  0.8229485055314354  1.0000
