data_image0
_chemical_formula_structural       Zn2H36C36N4O8
_chemical_formula_sum              "Zn2 H36 C36 N4 O8"
_cell_length_a       8.048497483425473
_cell_length_b       8.911002995173916
_cell_length_c       11.496427922791682
_cell_angle_alpha    96.1842230607527
_cell_angle_beta     95.56929182349096
_cell_angle_gamma    100.5396541097166

_space_group_name_H-M_alt    "P 1"
_space_group_IT_number       1

loop_
  _space_group_symop_operation_xyz
  'x, y, z'

loop_
  _atom_site_type_symbol
  _atom_site_label
  _atom_site_symmetry_multiplicity
  _atom_site_fract_x
  _atom_site_fract_y
  _atom_site_fract_z
  _atom_site_occupancy
  Zn  Zn1       1.0  0.3500832776354629  0.04126787875759418  0.37759336132391064  1.0000
  Zn  Zn2       1.0  0.6499185737907497  0.9587325676637732  0.6224050466389743  1.0000
  H   H1        1.0  0.8683802142842509  0.0863939739314006  0.16625207679481244  1.0000
  H   H2        1.0  0.13161309214999753  0.9136076599343425  0.8337553872570853  1.0000
  H   H3        1.0  0.9553352606182842  0.2716393201634091  0.13067432947334373  1.0000
  H   H4        1.0  0.04465189218821309  0.7283625147670276  0.8693283557919858  1.0000
  H   H5        1.0  0.8726526732979208  0.09098055956948768  0.9476486350008175  1.0000
  H   H6        1.0  0.12733428843012715  0.9090154414722489  0.05235698288417011  1.0000
  H   H7        1.0  0.09589095432686888  0.1541817558673131  0.9708242365076248  1.0000
  H   H8        1.0  0.9041006125647684  0.8458176714111189  0.02917854978104368  1.0000
  H   H9        1.0  0.8268977109957804  0.35401070437290366  0.3314212708947438  1.0000
  H   H10       1.0  0.1731073122699058  0.6459873610189959  0.6685771501708759  1.0000
  H   H11       1.0  0.9702240685577551  0.24961913572506222  0.3977487761786166  1.0000
  H   H12       1.0  0.029783283708333406  0.7503834781871744  0.6022519697992197  1.0000
  H   H13       1.0  0.8205887090117587  0.5004343221989345  0.5335001965515576  1.0000
  H   H14       1.0  0.1794076300544702  0.49956394314116886  0.4664967412330797  1.0000
  H   H15       1.0  0.963635908023477  0.3932869549726162  0.5944656678118891  1.0000
  H   H16       1.0  0.03636244803410444  0.6067146675357191  0.4055360730655338  1.0000
  H   H17       1.0  0.5770449263397168  0.025766539694792794  0.17802481590734232  1.0000
  H   H18       1.0  0.42295915516925925  0.9742327300813614  0.821971906893808  1.0000
  H   H19       1.0  0.5895676685975388  0.8587542769594378  0.9885119862555034  1.0000
  H   H20       1.0  0.4104371751097986  0.1412379681341562  0.011488499593063799  1.0000
  H   H21       1.0  0.17581386630546803  0.5303977097903283  0.08355052054505312  1.0000
  H   H22       1.0  0.8241873726227524  0.46960036751723055  0.916451975942245  1.0000
  H   H23       1.0  0.1846995218097334  0.7086107087918734  0.26728206473077887  1.0000
  H   H24       1.0  0.815300665951284  0.2913932290269372  0.7327174112162498  1.0000
  H   H25       1.0  0.4882845166519587  0.6433042630289804  0.856054813742617  1.0000
  H   H26       1.0  0.5117192182876664  0.35669377462389207  0.14394699074919973  1.0000
  H   H27       1.0  0.1769710450937154  0.4087806623972978  0.9052227647005185  1.0000
  H   H28       1.0  0.8230340875824637  0.5912127468676046  0.09477697864090122  1.0000
  H   H29       1.0  0.5093938535656833  0.5321582569086372  0.6954069866051641  1.0000
  H   H30       1.0  0.4906082983494643  0.4678433672744404  0.3045898110138695  1.0000
  H   H31       1.0  0.5218964470982429  0.3659441007021797  0.5106757403837536  1.0000
  H   H32       1.0  0.47810625971438014  0.6340598246427261  0.48932130789438605  1.0000
  H   H33       1.0  0.11472967710912493  0.037855963278381886  0.5716965963457243  1.0000
  H   H34       1.0  0.8852778191277649  0.9621420352780419  0.4283028683978147  1.0000
  H   H35       1.0  0.0822945025847162  0.18579807956034236  0.7571923925276209  1.0000
  H   H36       1.0  0.9177129936521736  0.8141999189960812  0.24280707221591777  1.0000
  C   C1        1.0  0.1403554323727434  0.15686558223462302  0.2106116277270474  1.0000
  C   C2        1.0  0.8596363140772354  0.8431396653421215  0.7893890937786666  1.0000
  C   C3        1.0  0.9763280128708944  0.15302193607574566  0.13069953803458395  1.0000
  C   C4        1.0  0.023661589866605885  0.8469798048384193  0.8693059265820796  1.0000
  C   C5        1.0  0.9881529918256149  0.08356039774361788  0.004468093351313492  1.0000
  C   C6        1.0  0.011836488954045902  0.9164355908242072  0.9955350968647851  1.0000
  C   C7        1.0  0.7186745931185925  0.19359793590749766  0.44220551020985255  1.0000
  C   C8        1.0  0.2813294538300752  0.8064012930974656  0.5577938161014091  1.0000
  C   C9        1.0  0.8652990669116676  0.31049358904371616  0.41354757923836877  1.0000
  C   C10       1.0  0.1347040037199889  0.6895068035743179  0.5864526523185349  1.0000
  C   C11       1.0  0.9258407885714915  0.4415996683087469  0.5142188008921168  1.0000
  C   C12       1.0  0.0741542506485686  0.5583985557019275  0.48578238815542124  1.0000
  C   C13       1.0  0.4906566120718807  0.9152496665381161  0.15227861305648102  1.0000
  C   C14       1.0  0.5093464470396682  0.08475071248952298  0.8477224863371265  1.0000
  C   C15       1.0  0.495780239716602  0.8234110994080339  0.04755576970468672  1.0000
  C   C16       1.0  0.5042228078748465  0.17658926602921096  0.9524461975256177  1.0000
  C   C17       1.0  0.3790440186563941  0.683258247050027  0.016763344250300283  1.0000
  C   C18       1.0  0.6209619233258009  0.316738586776843  0.9832385107531824  1.0000
  C   C19       1.0  0.26526477966363154  0.6402910829217275  0.09851984488029333  1.0000
  C   C20       1.0  0.7347377130303345  0.359706981353682  0.9014818716909121  1.0000
  C   C21       1.0  0.26998953941596676  0.7382050515918905  0.2016321882287856  1.0000
  C   C22       1.0  0.730011601621861  0.26179769543306725  0.7983681181460017  1.0000
  C   C23       1.0  0.3854344742365398  0.5937968908909494  0.9043097117072637  1.0000
  C   C24       1.0  0.6145644702515869  0.40619667866746306  0.09568785635769933  1.0000
  C   C25       1.0  0.2796837017953067  0.4604458522756401  0.8576474460939  1.0000
  C   C26       1.0  0.720319669325292  0.5395557181041042  0.14235117511914555  1.0000
  C   C27       1.0  0.294695699424885  0.3737315978256603  0.7456043417798812  1.0000
  C   C28       1.0  0.7053083590438833  0.6262676447697048  0.2543941166946767  1.0000
  C   C29       1.0  0.4187365055579875  0.4233824817535776  0.6720190770623378  1.0000
  C   C30       1.0  0.5812664787033769  0.5766225941722427  0.3279780965453512  1.0000
  C   C31       1.0  0.4267778967579758  0.3307613226284473  0.5686443791097278  1.0000
  C   C32       1.0  0.57322411118637  0.6692449169104435  0.4313536997436104  1.0000
  C   C33       1.0  0.20040900151047228  0.1476329986469622  0.6015392626288902  1.0000
  C   C34       1.0  0.7995958893045128  0.8523696956911518  0.39845957183432307  1.0000
  C   C35       1.0  0.18290053982274662  0.23258142162175938  0.706557583200244  1.0000
  C   C36       1.0  0.8171036751641696  0.7674236140911218  0.2934405461647601  1.0000
  N   N1        1.0  0.3788573021275425  0.874911811299462  0.22837435942321352  1.0000
  N   N2        1.0  0.6211423422560999  0.12508983894790754  0.7716239980280054  1.0000
  N   N3        1.0  0.32206336968846466  0.19364599851515854  0.5334643059570113  1.0000
  N   N4        1.0  0.6779412436777861  0.8063555452420417  0.4665344031766524  1.0000
  O   O1        1.0  0.1278615282719997  0.0673624829635813  0.29248619395261244  1.0000
  O   O2        1.0  0.8721394572749191  0.9326448658267878  0.7075162614931758  1.0000
  O   O3        1.0  0.2758562314683388  0.24027705159511464  0.19193450794902844  1.0000
  O   O4        1.0  0.724132267264743  0.7597248790263365  0.8080604547065848  1.0000
  O   O5        1.0  0.5877569805795703  0.15428324801788307  0.3656682969991395  1.0000
  O   O6        1.0  0.4122448478064341  0.8457171712226949  0.634331846637153  1.0000
  O   O7        1.0  0.7369154748491624  0.1451233785547146  0.5416854154935111  1.0000
  O   O8        1.0  0.26309192247009616  0.8548688948361588  0.4583100391760625  1.0000
