data_image0
_chemical_formula_structural       Zn2H16C20O10
_chemical_formula_sum              "Zn2 H16 C20 O10"
_cell_length_a       4.8127720375677905
_cell_length_b       9.486801902150178
_cell_length_c       11.58236769227908
_cell_angle_alpha    83.14068401062983
_cell_angle_beta     87.09681187246083
_cell_angle_gamma    84.72402030522312

_space_group_name_H-M_alt    "P 1"
_space_group_IT_number       1

loop_
  _space_group_symop_operation_xyz
  'x, y, z'

loop_
  _atom_site_type_symbol
  _atom_site_label
  _atom_site_symmetry_multiplicity
  _atom_site_fract_x
  _atom_site_fract_y
  _atom_site_fract_z
  _atom_site_occupancy
  Zn  Zn1       1.0  0.29483205928938355  0.9314906925422692  0.6206278319239757  1.0000
  Zn  Zn2       1.0  0.7051680255565173  0.06850857716909793  0.3793718230267515  1.0000
  H   H1        1.0  0.31054411373231966  0.24642259380161846  0.8034117201462864  1.0000
  H   H2        1.0  0.6894558020206389  0.7535777325519605  0.19658870564764894  1.0000
  H   H3        1.0  0.42358673209406567  0.4258252088828129  0.9309955646948893  1.0000
  H   H4        1.0  0.5764131840680734  0.5741751264741383  0.06900399685954989  1.0000
  H   H5        1.0  0.002257321064909886  0.5938661719545522  0.6623822654969729  1.0000
  H   H6        1.0  0.9977427633718109  0.4061330887534354  0.3376182536932432  1.0000
  H   H7        1.0  0.8951002425597991  0.4100561770720502  0.5409060450688088  1.0000
  H   H8        1.0  0.10489759209959709  0.5899441645567124  0.45909355891771486  1.0000
  H   H9        1.0  0.1336434449306481  0.6931532104326054  0.8043573538584495  1.0000
  H   H10       1.0  0.866356639915253  0.3068460592787616  0.19564230109227757  1.0000
  H   H11       1.0  0.0856946775345193  0.7381137902490239  0.011844096401269176  1.0000
  H   H12       1.0  0.9143054073113818  0.2618854794623432  0.988155558549458  1.0000
  H   H13       1.0  0.7698621276014634  0.8492882513914709  0.9829625777209046  1.0000
  H   H14       1.0  0.23014228893368482  0.15070994013069594  0.017037085761941698  1.0000
  H   H15       1.0  0.09621139406731767  0.9000416102833741  0.9175121535688291  1.0000
  H   H16       1.0  0.9037909409650806  0.0999565875105972  0.0824875523461017  1.0000
  C   C1        1.0  0.5380720290753089  0.207229808435649  0.5900811807280916  1.0000
  C   C2        1.0  0.4619278866776498  0.79277051791793  0.40991924506584343  1.0000
  C   C3        1.0  0.5959556918333107  0.3173779831253541  0.6637500648998226  1.0000
  C   C4        1.0  0.40404422391964795  0.6826223432282249  0.3362503608941125  1.0000
  C   C5        1.0  0.4633213603816627  0.32225926407626565  0.7742475469319885  1.0000
  C   C6        1.0  0.536678724055058  0.6777399966317292  0.2257529722582276  1.0000
  C   C7        1.0  0.5254466688409352  0.42207654360320385  0.8451036930839493  1.0000
  C   C8        1.0  0.4745532473211966  0.5779237917537473  0.15489586847049708  1.0000
  C   C9        1.0  0.7201907829471565  0.5205723024481231  0.8057494817002392  1.0000
  C   C10       1.0  0.27980913280580216  0.47942802390544886  0.19425094409369584  1.0000
  C   C11       1.0  0.8506116502006973  0.5186518762208794  0.69466850461027  1.0000
  C   C12       1.0  0.1493882655522611  0.48134845013269256  0.30533192118366503  1.0000
  C   C13       1.0  0.7894972422268366  0.4161197706164829  0.6256666833261804  1.0000
  C   C14       1.0  0.2105026739352951  0.5838805647404758  0.374332878228266  1.0000
  C   C15       1.0  0.9296103912773218  0.7312206136019769  0.8413288891532815  1.0000
  C   C16       1.0  0.07038969356857898  0.26877865610939017  0.15867076579743866  1.0000
  C   C17       1.0  0.9720566519303444  0.8098145622568113  0.9453759783641685  1.0000
  C   C18       1.0  0.0279434325063832  0.1901846984511835  0.0546245408260475  1.0000
  C   C19       1.0  0.7698528156006788  0.8316157710055664  0.7486221020011427  1.0000
  C   C20       1.0  0.2301472692452222  0.16838349870580774  0.2513775529495845  1.0000
  O   O1        1.0  0.336637807743962  0.13101351596174027  0.6231498855643096  1.0000
  O   O2        1.0  0.6633641895117323  0.8689868041200273  0.3768504977975481  1.0000
  O   O3        1.0  0.6935858726983852  0.19618457709356826  0.49818556381563184  1.0000
  O   O4        1.0  0.30641196196101106  0.8038157645351945  0.5018140401708919  1.0000
  O   O5        1.0  0.771919390366449  0.6126189664396691  0.8828195854277041  1.0000
  O   O6        1.0  0.22807844388376705  0.3873813661857143  0.11718088279831558  1.0000
  O   O7        1.0  0.8969851987183334  0.9148017404670415  0.6743496070868459  1.0000
  O   O8        1.0  0.1030148857183946  0.08519752024094633  0.3256509121033773  1.0000
  O   O9        1.0  0.5059068318972848  0.8287124442577111  0.7532605744377461  1.0000
  O   O10       1.0  0.4940932529486091  0.17128682545366303  0.246739080512981  1.0000
