data_image0
_chemical_formula_structural       Zn5H22C36N6O14
_chemical_formula_sum              "Zn5 H22 C36 N6 O14"
_cell_length_a       9.32155115748661
_cell_length_b       11.140415846611198
_cell_length_c       11.460726095867487
_cell_angle_alpha    70.68348404240506
_cell_angle_beta     67.14737261360206
_cell_angle_gamma    67.4574239888489

_space_group_name_H-M_alt    "P 1"
_space_group_IT_number       1

loop_
  _space_group_symop_operation_xyz
  'x, y, z'

loop_
  _atom_site_type_symbol
  _atom_site_label
  _atom_site_symmetry_multiplicity
  _atom_site_fract_x
  _atom_site_fract_y
  _atom_site_fract_z
  _atom_site_occupancy
  Zn  Zn1       1.0  0.9999998485258317  1.6857411109860238e-07  0.5000009906026933  1.0000
  Zn  Zn2       1.0  0.854029582869636  0.7586039088072737  0.5236633438585159  1.0000
  Zn  Zn3       1.0  0.1459690547889849  0.24139655556249554  0.4763358958324132  1.0000
  Zn  Zn4       1.0  0.6384300469766233  0.9818349514101925  0.7210323479532975  1.0000
  Zn  Zn5       1.0  0.3615709068147411  0.018165530559670597  0.2789679038891606  1.0000
  H   H1        1.0  0.735477121532668  0.0038873913499414977  0.4832224695076162  1.0000
  H   H2        1.0  0.2645230345892388  0.9961120869639114  0.51677748740245  1.0000
  H   H3        1.0  0.006006564047801556  0.5407203320645023  0.3155946449923306  1.0000
  H   H4        1.0  0.9939911890438254  0.4592761468866585  0.6844061716095594  1.0000
  H   H5        1.0  0.9970184314845341  0.45568075791388907  0.14385958503709878  1.0000
  H   H6        1.0  0.0029774427468752186  0.5443177019491543  0.8561403032022736  1.0000
  H   H7        1.0  0.7773854485673438  0.5671014951092135  0.040362508198995804  1.0000
  H   H8        1.0  0.22261167062798395  0.4328999553164791  0.9596360142727817  1.0000
  H   H9        1.0  0.5588222485023168  0.7723185037350149  0.10041398271452108  1.0000
  H   H10       1.0  0.4411768364507652  0.22768394754140087  0.8995835962764288  1.0000
  H   H11       1.0  0.40178682580916103  0.6873862771859791  0.6104855208586101  1.0000
  H   H12       1.0  0.5982125226213669  0.3126122090771943  0.38951588560806266  1.0000
  H   H13       1.0  0.3276055110836182  0.48085001830223456  0.39100161260103056  1.0000
  H   H14       1.0  0.6723931315859633  0.5191504402648803  0.6089967548453997  1.0000
  H   H15       1.0  0.7068519125372247  0.0289099313933079  0.04517897805959599  1.0000
  H   H16       1.0  0.2931494016510572  0.9710895557205959  0.954821484926235  1.0000
  H   H17       1.0  0.1930776966469168  0.9701010082194373  0.7822151732804271  1.0000
  H   H18       1.0  0.8069232571444475  0.029899473750418796  0.21778507856203083  1.0000
  H   H19       1.0  0.7473356681777902  0.4285538002570703  0.8199695431499164  1.0000
  H   H20       1.0  0.25266412253623827  0.5714466787154111  0.18003107486126876  1.0000
  H   H21       1.0  0.3706225010958521  0.7402562483535178  0.002336964953521171  1.0000
  H   H22       1.0  0.6293772896181765  0.2597442306189635  0.9976636530576638  1.0000
  C   C1        1.0  0.6599538946307677  0.7689883502386293  0.24455381602570717  1.0000
  C   C2        1.0  0.3400443826309356  0.23101310898710636  0.7554452125218417  1.0000
  C   C3        1.0  0.7851778158805376  0.7046280173196422  0.3043759572012378  1.0000
  C   C4        1.0  0.21482270564925443  0.2953704603355903  0.6956233386077172  1.0000
  C   C5        1.0  0.9106551170578073  0.5913639063525694  0.2686854382125149  1.0000
  C   C6        1.0  0.08934306829539204  0.40863457691322214  0.7313163344228781  1.0000
  C   C7        1.0  0.903974635719372  0.5450151111214295  0.173134037233524  1.0000
  C   C8        1.0  0.09602284888383399  0.45498533864563495  0.8268638241371419  1.0000
  C   C9        1.0  0.7780446285325413  0.6091627926649539  0.11349472054813238  1.0000
  C   C10       1.0  0.22194899140885846  0.3908386603739231  0.8865066449188246  1.0000
  C   C11       1.0  0.6548265137720792  0.7223113592824928  0.14688796437283716  1.0000
  C   C12       1.0  0.3451729315779205  0.2776900971379562  0.8531098257614926  1.0000
  C   C13       1.0  0.18611565902871532  0.6951306277501388  0.5037562785367341  1.0000
  C   C14       1.0  0.8138844970931985  0.30486885056371443  0.4962436783733324  1.0000
  C   C15       1.0  0.34872677419876663  0.5946834615944638  0.5005009220770873  1.0000
  C   C16       1.0  0.6512730315481507  0.40531699997002585  0.4994970792006085  1.0000
  C   C17       1.0  0.4460125194777476  0.6050253070303526  0.5621802780210032  1.0000
  C   C18       1.0  0.5539861131699128  0.3949751631420781  0.4378198339144177  1.0000
  C   C19       1.0  0.4036764161270198  0.4889857719090643  0.4383187872686919  1.0000
  C   C20       1.0  0.5963225769175581  0.5110137034074071  0.561681535810102  1.0000
  C   C21       1.0  0.8841678083548886  0.0016831864001928987  0.798914640777859  1.0000
  C   C22       1.0  0.11583357769804796  0.998319299884301  0.2010865670981019  1.0000
  C   C23       1.0  0.9437470680488078  0.00042473353672529865  0.9031351310642178  1.0000
  C   C24       1.0  0.05625540420584942  0.9995747623772221  0.09686583799737743  1.0000
  C   C25       1.0  0.8349818730003165  0.0164866205815883  0.026104129454097385  1.0000
  C   C26       1.0  0.16501988347146587  0.9835148592416091  0.9738955450762528  1.0000
  C   C27       1.0  0.10928172844949562  0.9834438666064147  0.8777152523153472  1.0000
  C   C28       1.0  0.8907184226614503  0.016555617510100297  0.12228557683921792  1.0000
  C   C29       1.0  0.636808691554052  0.6978658971422006  0.7960424760317011  1.0000
  C   C30       1.0  0.36319110417094447  0.3021345760276192  0.20395726973498535  1.0000
  C   C31       1.0  0.5661910864241195  0.5949948862084539  0.9004986447838661  1.0000
  C   C32       1.0  0.4338083539149196  0.4050065760146638  0.09950001759494859  1.0000
  C   C33       1.0  0.6388731634226732  0.45943055532998767  0.8986672512330356  1.0000
  C   C34       1.0  0.3611274349827412  0.5405709156931665  0.10133191722155031  1.0000
  C   C35       1.0  0.4268772056142256  0.6347822277648376  0.0023090564125353924  1.0000
  C   C36       1.0  0.5731245558685176  0.3652192462556982  0.997689745873316  1.0000
  N   N1        1.0  0.5590305163410534  0.8738399568206747  0.30296779956665165  1.0000
  N   N2        1.0  0.44097044246127143  0.12616051934652722  0.6970315800313072  1.0000
  N   N3        1.0  0.6153703009244255  0.8748458375486762  0.39316950415187074  1.0000
  N   N4        1.0  0.38462986521940934  0.1251536291598541  0.6068287082692052  1.0000
  N   N5        1.0  0.7508278718220963  0.7740728544245814  0.39571912565614287  1.0000
  N   N6        1.0  0.2491714866303595  0.22592562023326226  0.6042805363215391  1.0000
  O   O1        1.0  0.15668722896588613  0.8036235325015894  0.5335567867183569  1.0000
  O   O2        1.0  0.8433117590677243  0.19637594861754343  0.4664444086049356  1.0000
  O   O3        1.0  0.0850378574719315  0.6625095129778275  0.4774583405985238  1.0000
  O   O4        1.0  0.9149607751757289  0.3374909571946105  0.5225417713368968  1.0000
  O   O5        1.0  0.9840537118846344  0.999080137143558  0.6867776243619444  1.0000
  O   O6        1.0  0.015949568061401496  0.0009203508210617991  0.3132218951430516  1.0000
  O   O7        1.0  0.7339847866126237  0.005405339118453896  0.8322448497000748  1.0000
  O   O8        1.0  0.2660181329364946  0.9945961437021322  0.1677544586615413  1.0000
  O   O9        1.0  0.5751043569088807  0.8164316762162259  0.8138750939928057  1.0000
  O   O10       1.0  0.424896957279401  0.1835678108976708  0.18612536899302506  1.0000
  O   O11       1.0  0.7533479053137243  0.6589569863918997  0.6984436343015901  1.0000
  O   O12       1.0  0.24665376426051475  0.3410415116687062  0.30155791207211274  1.0000
  O   O13       1.0  0.7873440317054589  0.9440691563776509  0.5492735679668498  1.0000
  O   O14       1.0  0.21265612942740836  0.0559303161335407  0.4507255166987249  1.0000
