data_image0
_chemical_formula_structural       Cd2H16C20N4Cl4
_chemical_formula_sum              "Cd2 H16 C20 N4 Cl4"
_cell_length_a       3.77671001300375
_cell_length_b       11.799961229011236
_cell_length_c       11.863462150005061
_cell_angle_alpha    89.99992012569133
_cell_angle_beta     90.00006658147588
_cell_angle_gamma    90.00014228609282

_space_group_name_H-M_alt    "P 1"
_space_group_IT_number       1

loop_
  _space_group_symop_operation_xyz
  'x, y, z'

loop_
  _atom_site_type_symbol
  _atom_site_label
  _atom_site_symmetry_multiplicity
  _atom_site_fract_x
  _atom_site_fract_y
  _atom_site_fract_z
  _atom_site_occupancy
  Cd  Cd1       1.0  0.5000000885004354  0.2499991647852368  0.25000028313886696  1.0000
  Cd  Cd2       1.0  0.5000002689524125  0.7500004669085385  0.7499998363038215  1.0000
  H   H1        1.0  0.6839289290269123  0.042730875713488096  0.0859303133268838  1.0000
  H   H2        1.0  0.3160692538799097  0.5427320243344981  0.585927275114436  1.0000
  H   H3        1.0  0.6839191650193186  0.5427328016864691  0.9140667923532888  1.0000
  H   H4        1.0  0.6839359328613739  0.9572699805566813  0.5859278853113494  1.0000
  H   H5        1.0  0.3160899630653731  0.9572662136073544  0.9140689631965131  1.0000
  H   H6        1.0  0.6839231601511173  0.45726845481751605  0.41407115847778897  1.0000
  H   H7        1.0  0.31607324901170125  0.4572676774655519  0.08593164123893618  1.0000
  H   H8        1.0  0.3160803114391229  0.04273219352668179  0.41406970535946636  1.0000
  H   H9        1.0  0.685578753803753  0.831305507382403  0.0770082414760651  1.0000
  H   H10       1.0  0.31441622539948366  0.33130675877526977  0.5770092868380416  1.0000
  H   H11       1.0  0.6855732829039098  0.33130837281270686  0.9229859248089838  1.0000
  H   H12       1.0  0.6855825929075363  0.16869620987817058  0.5770136804769805  1.0000
  H   H13       1.0  0.31442425144693686  0.1686915819312418  0.9229918779688902  1.0000
  H   H14       1.0  0.6855735408293099  0.6686937203739234  0.4229916755264966  1.0000
  H   H15       1.0  0.3144138355176835  0.6686921063353779  0.0770150375551069  1.0000
  H   H16       1.0  0.3144230601707676  0.8313059641984709  0.4229872818890499  1.0000
  C   C1        1.0  0.5991259516030922  0.9918356046783358  0.1578597211304569  1.0000
  C   C2        1.0  0.4008705295910388  0.49183947060531336  0.6578599529927586  1.0000
  C   C3        1.0  0.5991175141784381  0.49183773283620985  0.8421375586894512  1.0000
  C   C4        1.0  0.5991312552439041  0.008165082780969599  0.6578628600955838  1.0000
  C   C5        1.0  0.4008876448843425  0.008163179559971898  0.8421412412393394  1.0000
  C   C6        1.0  0.5991192366331788  0.5081593136224783  0.3421418522972388  1.0000
  C   C7        1.0  0.400872252037864  0.5081593564713315  0.1578634036775028  1.0000
  C   C8        1.0  0.4008796934392437  0.9918353963782064  0.34213641642404713  1.0000
  C   C9        1.0  0.599956921205198  0.8740767462497274  0.15387024466684807  1.0000
  C   C10       1.0  0.4000360284409936  0.37407722164179796  0.653867947475355  1.0000
  C   C11       1.0  0.5999326126691287  0.3740797164234948  0.8461280461490048  1.0000
  C   C12       1.0  0.5999498537901502  0.12592140495630838  0.6538698441425055  1.0000
  C   C13       1.0  0.4000566752837003  0.1259228854495689  0.8461298747781002  1.0000
  C   C14       1.0  0.5999457943628527  0.6259232575052279  0.3461313290393235  1.0000
  C   C15       1.0  0.4000518579373419  0.6259190678032382  0.1538720732915877  1.0000
  C   C16       1.0  0.4000610948850891  0.8740773792826173  0.3461285894540751  1.0000
  C   C17       1.0  0.5000127532564633  0.8126205049099083  0.24999819645879737  1.0000
  C   C18       1.0  0.49998541795770984  0.312621063714289  0.7499976191349305  1.0000
  C   C19       1.0  0.49999025201150726  0.1873808217052186  0.7500027659073892  1.0000
  C   C20       1.0  0.5000069960816235  0.6873794154348614  0.2500050290785722  1.0000
  N   N1        1.0  0.500001999605594  0.05010613512045839  0.2500004255509012  1.0000
  N   N2        1.0  0.4999942366309611  0.5501074372421685  0.7499974499417378  1.0000
  N   N3        1.0  0.5000142446886572  0.9498943440420787  0.7499971651211225  1.0000
  N   N4        1.0  0.499998177404848  0.4498938893696901  0.2500018265741417  1.0000
  Cl  Cl1       1.0  0.99999845104697  0.2500003286996915  0.0917919147231459  1.0000
  Cl  Cl2       1.0  1.2827449750999997e-06  0.7500003660737208  0.5917921406273052  1.0000
  Cl  Cl3       1.0  1.906413785899998e-06  0.7500009979143338  0.9082090476425932  1.0000
  Cl  Cl4       1.0  0.9999990747157881  0.25000096054029797  0.4082088217384339  1.0000
