data_image0
_chemical_formula_structural       Ca2P2H20C6N2O14
_chemical_formula_sum              "Ca2 P2 H20 C6 N2 O14"
_cell_length_a       5.4025115705834175
_cell_length_b       7.907944976609485
_cell_length_c       10.2205524631371
_cell_angle_alpha    74.382516639332
_cell_angle_beta     79.88710185409259
_cell_angle_gamma    83.28017956738351

_space_group_name_H-M_alt    "P 1"
_space_group_IT_number       1

loop_
  _space_group_symop_operation_xyz
  'x, y, z'

loop_
  _atom_site_type_symbol
  _atom_site_label
  _atom_site_symmetry_multiplicity
  _atom_site_fract_x
  _atom_site_fract_y
  _atom_site_fract_z
  _atom_site_occupancy
  Ca  Ca1       1.0  0.15038884685455398  0.7085366669390397  0.8742325508829435  1.0000
  Ca  Ca2       1.0  0.8496064369416345  0.29146248112628115  0.12577017866444598  1.0000
  P   P1        1.0  0.6890312315561927  0.4148280345279574  0.8391495709043749  1.0000
  P   P2        1.0  0.3109711174664938  0.5851750677164987  0.16084968705963823  1.0000
  H   H1        1.0  0.8267718697998774  0.3062090727847746  0.6339467900485045  1.0000
  H   H2        1.0  0.17323226723040355  0.693795335780898  0.3660539785267431  1.0000
  H   H3        1.0  0.9457301162546585  0.5155724751367006  0.6203521341489802  1.0000
  H   H4        1.0  0.05427218532681618  0.48443192550161757  0.3796507745281372  1.0000
  H   H5        1.0  0.2567750050670626  0.37696428244477437  0.7567364524775541  1.0000
  H   H6        1.0  0.743229819345828  0.6230322538933565  0.24326000176471727  1.0000
  H   H7        1.0  0.12763866922526998  0.1814853172727879  0.8052174835451494  1.0000
  H   H8        1.0  0.8723695047681161  0.8185151664858029  0.19477782487908246  1.0000
  H   H9        1.0  0.43565739737996273  0.34467682900122315  0.5487527413228219  1.0000
  H   H10       1.0  0.5643341314075484  0.6553197428058513  0.4512391492484865  1.0000
  H   H11       1.0  0.20149766599055133  0.2105654464709518  0.5388203579805121  1.0000
  H   H12       1.0  0.7984921615932592  0.7894310901206225  0.4611795360078757  1.0000
  H   H13       1.0  0.6440503874681978  0.8338377045540357  0.9946298573856108  1.0000
  H   H14       1.0  0.35595067385748547  0.16616012341928146  0.005372573335094371  1.0000
  H   H15       1.0  0.7742532037056618  0.011734527215487803  0.9526324080775691  1.0000
  H   H16       1.0  0.22575324670984284  0.9882659258756378  0.04736992654453318  1.0000
  H   H17       1.0  0.1643786749794387  0.8339948867503395  0.5658796009436741  1.0000
  H   H18       1.0  0.835624059790078  0.1660055595821177  0.4341250594437651  1.0000
  H   H19       1.0  0.8907829280516136  0.8697471329503306  0.6386791826861962  1.0000
  H   H20       1.0  0.10921604632353882  0.1302533157195001  0.3613258490281623  1.0000
  C   C1        1.0  0.9078788697848524  0.38450054003170214  0.6874294074575856  1.0000
  C   C2        1.0  0.09212577024887031  0.6154986112862277  0.31257043933408096  1.0000
  C   C3        1.0  0.31872910945346433  0.23729229107313907  0.6075781855483624  1.0000
  C   C4        1.0  0.6812604218802535  0.7627068832383588  0.3924202148934127  1.0000
  C   C5        1.0  0.4757724867022192  0.0664017765141693  0.6606905912714252  1.0000
  C   C6        1.0  0.5242226377818325  0.9335986926851236  0.3393109028930537  1.0000
  N   N1        1.0  0.1529279435443129  0.29267604249933044  0.7234514925362419  1.0000
  N   N2        1.0  0.8470745674833466  0.7073244493133473  0.27654339565917485  1.0000
  O   O1        1.0  0.44853193710183353  0.5058042459327582  0.7824993873804542  1.0000
  O   O2        1.0  0.5514678168455092  0.4941870230196201  0.21749963372623415  1.0000
  O   O3        1.0  0.6530423553832493  0.23050531655123058  0.9371606276783877  1.0000
  O   O4        1.0  0.3469544676116598  0.7694964771613616  0.06283846822052637  1.0000
  O   O5        1.0  0.8189872008059852  0.5220129199136637  0.9082059854096796  1.0000
  O   O6        1.0  0.18100955237352423  0.47799017674081073  0.09179578398313021  1.0000
  O   O7        1.0  0.3758523377014881  0.9598168077495332  0.7662263890568395  1.0000
  O   O8        1.0  0.6241374675081416  0.040179733390068896  0.23377252771234677  1.0000
  O   O9        1.0  0.6908972478885927  0.045173309506353114  0.5910553674244879  1.0000
  O   O10       1.0  0.30909384501803316  0.9548285059043948  0.4089403765880063  1.0000
  O   O11       1.0  0.8134990908167553  0.8825110935022027  0.9698788759303194  1.0000
  O   O12       1.0  0.186503439892256  0.11749068306026804  0.030122594635805893  1.0000
  O   O13       1.0  0.0394392925015268  0.7808095036940018  0.6457579046188398  1.0000
  O   O14       1.0  0.9605614475070398  0.21919225584505858  0.3542476604875517  1.0000
