data_image0
_chemical_formula_structural       Zn16H40C100S16O60
_chemical_formula_sum              "Zn16 H40 C100 S16 O60"
_cell_length_a       19.620821327739513
_cell_length_b       19.655942183624568
_cell_length_c       33.293826545951134
_cell_angle_alpha    79.18786357078018
_cell_angle_beta     79.27914334237386
_cell_angle_gamma    64.02033189668197

_space_group_name_H-M_alt    "P 1"
_space_group_IT_number       1

loop_
  _space_group_symop_operation_xyz
  'x, y, z'

loop_
  _atom_site_type_symbol
  _atom_site_label
  _atom_site_symmetry_multiplicity
  _atom_site_fract_x
  _atom_site_fract_y
  _atom_site_fract_z
  _atom_site_occupancy
  Zn  Zn1       1.0  0.052646328893494895  0.40139630587909647  0.47764732907674545  1.0000
  Zn  Zn2       1.0  0.9917850128270089  0.48157423888898176  0.5611746626926359  1.0000
  Zn  Zn3       1.0  0.053192772263180595  0.5642504661760127  0.4810025241158085  1.0000
  Zn  Zn4       1.0  0.8958601866155149  0.5522111547192021  0.4837516077759146  1.0000
  Zn  Zn5       1.0  0.6927783163625703  0.3485048671705115  0.27149542873627297  1.0000
  Zn  Zn6       1.0  0.68507294647695  0.19171538848188155  0.26520442778426906  1.0000
  Zn  Zn7       1.0  0.7738251786716717  0.26223447503141273  0.1913380453567086  1.0000
  Zn  Zn8       1.0  0.8457910583668564  0.19181149281104842  0.2758673262730298  1.0000
  Zn  Zn9       1.0  0.273574406478481  0.7636351811613267  0.6900048339504109  1.0000
  Zn  Zn10      1.0  0.3469075856715875  0.6997856217501878  0.7750907956707277  1.0000
  Zn  Zn11      1.0  0.1892818246655139  0.8479397606136279  0.7707746617029013  1.0000
  Zn  Zn12      1.0  0.1949331163575394  0.6840592839955235  0.7649420825212158  1.0000
  Zn  Zn13      1.0  0.5639180850163115  0.056232050511013654  0.982171003702028  1.0000
  Zn  Zn14      1.0  0.40089858037784143  0.05745066533810221  0.980223874051724  1.0000
  Zn  Zn15      1.0  0.5520605415105705  0.9000437747221073  0.9779351973488555  1.0000
  Zn  Zn16      1.0  0.48800578619989904  0.9802050770145174  0.06076973614079151  1.0000
  H   H1        1.0  0.9424908352436742  0.2458264112359887  0.35942384323275434  1.0000
  H   H2        1.0  0.7463785901896928  0.4594232947859993  0.3467087344200904  1.0000
  H   H3        1.0  0.9872390904832924  0.2981532531975901  0.40730597217427794  1.0000
  H   H4        1.0  0.09847330302107339  0.6038995181286635  0.6948793770724464  1.0000
  H   H5        1.0  0.2189401738375381  0.6935224579163233  0.5942451042707474  1.0000
  H   H6        1.0  0.051532758080163894  0.5590212181388381  0.6444158806569786  1.0000
  H   H7        1.0  0.4616073518834725  0.23883818176714294  0.343954262702951  1.0000
  H   H8        1.0  0.4898382656118939  0.700744603150774  0.6089534485592691  1.0000
  H   H9        1.0  0.205746381850723  0.9761595597793473  0.5993153663674063  1.0000
  H   H10       1.0  0.9422625351306163  0.9596825518662726  0.34183850657797876  1.0000
  H   H11       1.0  0.5647020860581834  0.04111510689153856  0.15069619159368838  1.0000
  H   H12       1.0  0.6458307059954649  0.16159405215812236  0.04618656259923882  1.0000
  H   H13       1.0  0.6130648073246192  0.09284810984669895  0.1970409146282819  1.0000
  H   H14       1.0  0.5485959913940377  0.7660514038803395  0.1477494995037887  1.0000
  H   H15       1.0  0.1661261225062134  0.15230301719090983  0.046499289972999194  1.0000
  H   H16       1.0  0.48564568613626585  0.8008027844986002  0.9025986404001287  1.0000
  H   H17       1.0  0.2922638722790936  0.017626882646155168  0.8965005015240874  1.0000
  H   H18       1.0  0.43243846866364777  0.7586738361597725  0.8539670079083731  1.0000
  H   H19       1.0  0.3058633463610079  0.27992624056894033  0.9020803720225101  1.0000
  H   H20       1.0  0.7821875249921959  0.004707025701904444  0.9020163392040174  1.0000
  H   H21       1.0  0.7276136366004097  0.5625556179352597  0.37594274480962037  1.0000
  H   H22       1.0  0.8061163918211491  0.5699869558912167  0.39147501576204036  1.0000
  H   H23       1.0  0.746611818046553  0.538330596721856  0.4283601151135556  1.0000
  H   H24       1.0  0.13274857544372054  0.6929680069232801  0.5138487943540608  1.0000
  H   H25       1.0  0.2098506472489845  0.6029193773287672  0.5161243497480397  1.0000
  H   H26       1.0  0.22108871588233103  0.6824222677840908  0.5273834492044214  1.0000
  H   H27       1.0  0.766297568364827  0.20204263797562302  0.08853002132726574  1.0000
  H   H28       1.0  0.6800852458748494  0.28196071301442066  0.09734128767587436  1.0000
  H   H29       1.0  0.7003537022793722  0.23948417849464923  0.051137847268954324  1.0000
  H   H30       1.0  0.17117079328031792  0.9761241259290474  0.8550754910240171  1.0000
  H   H31       1.0  0.221407833704454  0.003918582738314998  0.8107563030714997  1.0000
  H   H32       1.0  0.1999243130626809  0.05044998020800761  0.8556353827257437  1.0000
  H   H33       1.0  0.32710522960290694  0.5403501453519013  0.40228969052932223  1.0000
  H   H34       1.0  0.7662977583416007  0.5398251540229922  0.6938699317168326  1.0000
  H   H35       1.0  0.04141821955454359  0.2531905535178467  0.6817320323096039  1.0000
  H   H36       1.0  0.7288392257354488  0.8128565279065467  0.3867512794329286  1.0000
  H   H37       1.0  0.705679220570083  0.4889046091215475  0.0644899918512039  1.0000
  H   H38       1.0  0.15397077145053117  0.055717101050916464  0.22521182157078806  1.0000
  H   H39       1.0  0.5086359855862098  0.438526014424312  0.8655866126057602  1.0000
  H   H40       1.0  0.9327337237335341  0.6914975051800171  0.8574503827734571  1.0000
  C   C1        1.0  0.05979438013488189  0.3137959251606476  0.5598227899575008  1.0000
  C   C2        1.0  0.07648796494400761  0.5726856713396486  0.5640722581221168  1.0000
  C   C3        1.0  0.1825719287995682  0.4403367939463294  0.44082097136627135  1.0000
  C   C4        1.0  0.9263494454764398  0.6780405198347664  0.434498900791688  1.0000
  C   C5        1.0  0.9217307123298468  0.4318241946127445  0.4344738854161392  1.0000
  C   C6        1.0  0.8256362583121373  0.564256375366412  0.570921383488958  1.0000
  C   C7        1.0  0.564297066795305  0.3102160006035744  0.31274491593720194  1.0000
  C   C8        1.0  0.6857296417868071  0.18110330634097951  0.17796869365820095  1.0000
  C   C9        1.0  0.6861463948155729  0.42913699654646115  0.18693476175619844  1.0000
  C   C10       1.0  0.9404290456119997  0.18616828734726426  0.1957017562711769  1.0000
  C   C11       1.0  0.8134995519002288  0.31986066495584703  0.321968473650287  1.0000
  C   C12       1.0  0.8035156538703775  0.06191563963897544  0.30876580575654333  1.0000
  C   C13       1.0  0.4406029872300081  0.6855841899499497  0.694801329651561  1.0000
  C   C14       1.0  0.3063282156005015  0.8319773741907001  0.8198489866995543  1.0000
  C   C15       1.0  0.1941864392077903  0.9310059064607542  0.686855512487426  1.0000
  C   C16       1.0  0.0633312036674809  0.8035386844717038  0.8070281153971306  1.0000
  C   C17       1.0  0.1909280359613206  0.6775427103062412  0.6769283397189128  1.0000
  C   C18       1.0  0.3145558420268841  0.5689961001350524  0.8149005625260983  1.0000
  C   C19       1.0  0.4426813597337825  0.18342894354398712  0.9389207311001186  1.0000
  C   C20       1.0  0.4224120945278145  0.9377065112293361  0.931408705421738  1.0000
  C   C21       1.0  0.6842981894201614  0.9310284573200394  0.9377713642402551  1.0000
  C   C22       1.0  0.5610716966017789  0.8128291635074804  0.06081816588210389  1.0000
  C   C23       1.0  0.5749862984045606  0.06780063284770682  0.06750705730027559  1.0000
  C   C24       1.0  0.31977080937952707  0.06061493648009281  0.06464228764918538  1.0000
  C   C25       1.0  0.8910108826702299  0.40693098076362577  0.4047531251441611  1.0000
  C   C26       1.0  0.8411402339321511  0.34978242489540173  0.3506249608344375  1.0000
  C   C27       1.0  0.8219417238014227  0.45465428943935393  0.387705185699211  1.0000
  C   C28       1.0  0.9095391234809822  0.3035774165489116  0.3674784673183851  1.0000
  C   C29       1.0  0.798930525390567  0.42430252928421197  0.3606198207943833  1.0000
  C   C30       1.0  0.933975593992976  0.33261961356420494  0.39404327496914954  1.0000
  C   C31       1.0  0.1080729896240982  0.6017617748471552  0.5912500407627661  1.0000
  C   C32       1.0  0.1616797387627926  0.651341487056243  0.6472633589135484  1.0000
  C   C33       1.0  0.1558178184968994  0.640289218345828  0.5759327124037694  1.0000
  C   C34       1.0  0.114125047487228  0.6135620653417105  0.6618729610586626  1.0000
  C   C35       1.0  0.1817083826406503  0.6641358058326858  0.6048316607780605  1.0000
  C   C36       1.0  0.08814018056041559  0.5889887526508915  0.6338787442460683  1.0000
  C   C37       1.0  0.30525324624391453  0.45374328144040993  0.4050682938963489  1.0000
  C   C38       1.0  0.44552180171172745  0.2952859468615756  0.35221582741021956  1.0000
  C   C39       1.0  0.2585486921718926  0.41487662844797063  0.41750004146317105  1.0000
  C   C40       1.0  0.490866323984882  0.3346724408633437  0.33913492536844086  1.0000
  C   C41       1.0  0.3780927521491222  0.33819242804889166  0.3764511975074924  1.0000
  C   C42       1.0  0.3736208578687936  0.4096181186890746  0.38146993964756587  1.0000
  C   C43       1.0  0.7360930723263833  0.577762476811664  0.6397440434726105  1.0000
  C   C44       1.0  0.5339879958795208  0.6721299910489051  0.6294489301117706  1.0000
  C   C45       1.0  0.7525340093392784  0.5885628375618382  0.5970228009399745  1.0000
  C   C46       1.0  0.5170672212413122  0.6610855587525253  0.6716608841570488  1.0000
  C   C47       1.0  0.6134767476368523  0.6419070842341768  0.6178344745934083  1.0000
  C   C48       1.0  0.6560006789183177  0.6084010293930078  0.6515993071783439  1.0000
  C   C49       1.0  0.0759262537075713  0.22331327299313128  0.6275432942096157  1.0000
  C   C50       1.0  0.17654599766478188  0.02101439740743419  0.6192528622710396  1.0000
  C   C51       1.0  0.0843143228375638  0.2393037991809948  0.5847143198661584  1.0000
  C   C52       1.0  0.16810411983457385  0.00568391741073531  0.6617112187065428  1.0000
  C   C53       1.0  0.1426748149364059  0.10022302002966652  0.6065773796568975  1.0000
  C   C54       1.0  0.1092728432466714  0.14363379459219772  0.6398767663747335  1.0000
  C   C55       1.0  0.8310237493520277  0.7944721608586246  0.3923627598961374  1.0000
  C   C56       1.0  0.896579812773446  0.9408408408668977  0.34660245539755147  1.0000
  C   C57       1.0  0.9008077851627619  0.750791486551897  0.40799394738982636  1.0000
  C   C58       1.0  0.8271696324378723  0.9851260465607011  0.33169800146813344  1.0000
  C   C59       1.0  0.8984065865574562  0.871196247687635  0.368183471383105  1.0000
  C   C60       1.0  0.829931195864617  0.8635658511257772  0.3694325911818907  1.0000
  C   C61       1.0  0.6577855040348197  0.1546992968086159  0.14764108771316836  1.0000
  C   C62       1.0  0.6031598810700274  0.09819811383417942  0.09560365589639726  1.0000
  C   C63       1.0  0.6678097116378439  0.17559231007078321  0.1045438819113755  1.0000
  C   C64       1.0  0.5932983982511857  0.07845141303657513  0.13825567401826075  1.0000
  C   C65       1.0  0.6395570640903614  0.14646864958769604  0.0794648718754942  1.0000
  C   C66       1.0  0.6202945614618399  0.10701121738740942  0.1637641091778832  1.0000
  C   C67       1.0  0.6697868118862758  0.5191370337036787  0.11861382958104372  1.0000
  C   C68       1.0  0.5758823646184793  0.7214361674920295  0.12759704850927986  1.0000
  C   C69       1.0  0.6608717404637047  0.5029880169673363  0.1614288209523096  1.0000
  C   C70       1.0  0.5849196605123339  0.7374029742974457  0.0851989185482225  1.0000
  C   C71       1.0  0.6062321952900476  0.642075627850332  0.13986413478697557  1.0000
  C   C72       1.0  0.6381691333050269  0.5989803903311285  0.10638879291007441  1.0000
  C   C73       1.0  0.08793814233761311  0.11538685533172098  0.18400471386884476  1.0000
  C   C74       1.0  0.17445097022058317  0.12974190622858126  0.0784874815000904  1.0000
  C   C75       1.0  0.0157091690192672  0.16088822282445395  0.1714974911243701  1.0000
  C   C76       1.0  0.2460380377904912  0.08477134091918968  0.09081235954480596  1.0000
  C   C77       1.0  0.11688939529776123  0.141123166120515  0.11228944154250088  1.0000
  C   C78       1.0  0.1458133866118487  0.10431132755932987  0.14994655182641733  1.0000
  C   C79       1.0  0.33250669811743444  0.8638835818698495  0.8483369074843734  1.0000
  C   C80       1.0  0.3914085174969202  0.9118521653432627  0.902483837117472  1.0000
  C   C81       1.0  0.29112257977865846  0.9385144982393215  0.859879379352698  1.0000
  C   C82       1.0  0.4317949406753243  0.8384618782748275  0.8906201201848417  1.0000
  C   C83       1.0  0.3223080839474335  0.9605727773844848  0.887019767583119  1.0000
  C   C84       1.0  0.40217417892348095  0.8153449247134505  0.8637702519120009  1.0000
  C   C85       1.0  0.4096431191571384  0.4525573972068031  0.8564198152003326  1.0000
  C   C86       1.0  0.34997802489017715  0.30070762290628755  0.8982508249733953  1.0000
  C   C87       1.0  0.3409158579670049  0.4942631273570085  0.8394857823187889  1.0000
  C   C88       1.0  0.4183491054662198  0.2589501251240307  0.9146615082317949  1.0000
  C   C89       1.0  0.34688498367480486  0.3708786758479833  0.8767417983243531  1.0000
  C   C90       1.0  0.4129821982112388  0.3815911301909267  0.8775758237037863  1.0000
  C   C91       1.0  0.9469284873268787  0.7836982568690873  0.8486115997248191  1.0000
  C   C92       1.0  0.8012344414774474  0.9459720526346588  0.8965437978458792  1.0000
  C   C93       1.0  0.9892814696663947  0.8261235464465457  0.8323001557094898  1.0000
  C   C94       1.0  0.7587602565590643  0.9044288607730666  0.9124290732601916  1.0000
  C   C95       1.0  0.8694536610475437  0.9023761227560599  0.8731680882774029  1.0000
  C   C96       1.0  0.8779878028715019  0.8278379267818677  0.8718869321440432  1.0000
  C   C97       1.0  0.7729808755458903  0.5357125077961981  0.3962344018211539  1.0000
  C   C98       1.0  0.18132536083908948  0.6555445905696046  0.5309450506498619  1.0000
  C   C99       1.0  0.7055524778452309  0.22759884538658787  0.0842542400041637  1.0000
  C   C100      1.0  0.21694845840270457  0.9954362515227756  0.8445383806502701  1.0000
  S   S1        1.0  0.29854628947114037  0.3248820563739158  0.4007548432295777  1.0000
  S   S2        1.0  0.4523354729026252  0.42393847633928766  0.3563995253635212  1.0000
  S   S3        1.0  0.6709526593877512  0.6358749208866498  0.5717015973888308  1.0000
  S   S4        1.0  0.5976105376631011  0.6140141704729986  0.6977452593693484  1.0000
  S   S5        1.0  0.1325043612484436  0.15722892882019582  0.5599533380519118  1.0000
  S   S6        1.0  0.11888312034250248  0.08717088057549921  0.6866612481105817  1.0000
  S   S7        1.0  0.9643764681183598  0.7937622402159547  0.39455658766942747  1.0000
  S   S8        1.0  0.7636012773082328  0.9421461786492241  0.3434458947912233  1.0000
  S   S9        1.0  0.6141934439289258  0.5849123407528936  0.18633442313389278  1.0000
  S   S10       1.0  0.6301488248474172  0.6562012038442401  0.05980149794972082  1.0000
  S   S11       1.0  0.0189398231596911  0.18944874160560227  0.11850705015796589  1.0000
  S   S12       1.0  0.24402282281481286  0.05592340170504433  0.14366262134486615  1.0000
  S   S13       1.0  0.2812137946312773  0.4469321889409982  0.8493772049375891  1.0000
  S   S14       1.0  0.4794505163504326  0.3046297884517202  0.904259334436787  1.0000
  S   S15       1.0  0.9452747723849414  0.9188357575095903  0.845615767786903  1.0000
  S   S16       1.0  0.8013654153680392  0.8118749556616791  0.899134526731515  1.0000
  O   O1        1.0  0.9986618799396823  0.4990352470146816  0.5007668587178742  1.0000
  O   O2        1.0  0.07227134510025479  0.3133612800913427  0.5205711756914011  1.0000
  O   O3        1.0  0.054419138312354697  0.5206467444052407  0.5810655781698413  1.0000
  O   O4        1.0  0.15348669333394582  0.5070701104061469  0.4519042606401271  1.0000
  O   O5        1.0  0.0287416370811684  0.3721266998099253  0.5792783844064288  1.0000
  O   O6        1.0  0.15210450694477368  0.39265809022329995  0.4477225466277233  1.0000
  O   O7        1.0  0.0730521206932835  0.601859381260887  0.5264528347227467  1.0000
  O   O8        1.0  0.9940791126091139  0.6535006719986286  0.44444728226071095  1.0000
  O   O9        1.0  0.8746982328498873  0.48680793650746024  0.4544653812103333  1.0000
  O   O10       1.0  0.8806486029651309  0.645779854348312  0.4455487553096872  1.0000
  O   O11       1.0  0.9930221749140172  0.3952147267680317  0.4379316512147824  1.0000
  O   O12       1.0  0.8869092967396881  0.5300326686848464  0.5880789211241717  1.0000
  O   O13       1.0  0.8202141714774311  0.5802384478245555  0.5320863089994673  1.0000
  O   O14       1.0  0.749247182885945  0.24824370260708398  0.2514414911788164  1.0000
  O   O15       1.0  0.5953471978121385  0.3572889466468822  0.30442366525238634  1.0000
  O   O16       1.0  0.6552719526320132  0.17729549300630504  0.2153115071559029  1.0000
  O   O17       1.0  0.7221525804402732  0.3693977183010873  0.16865016816901596  1.0000
  O   O18       1.0  0.5901396793047695  0.24469603461228223  0.30047113441433027  1.0000
  O   O19       1.0  0.6695295462294268  0.4317346982762942  0.2259571532513219  1.0000
  O   O20       1.0  0.7380274815511427  0.2044764218663673  0.1647073000044159  1.0000
  O   O21       1.0  0.8839462035003364  0.22680864307212553  0.174793294879258  1.0000
  O   O22       1.0  0.8539508419904179  0.2508736030898433  0.3147258939367248  1.0000
  O   O23       1.0  0.9366304520537553  0.16656937190298035  0.23453968469852524  1.0000
  O   O24       1.0  0.7515858722228967  0.36560285065952075  0.30701002037498165  1.0000
  O   O25       1.0  0.7378274419683988  0.09092968286133649  0.29586339830421327  1.0000
  O   O26       1.0  0.8504373225972017  0.0924417523029318  0.30412100969245154  1.0000
  O   O27       1.0  0.2509981035159115  0.7490797264746333  0.7500626362629459  1.0000
  O   O28       1.0  0.3844487235158383  0.7210290344489821  0.6735859910867745  1.0000
  O   O29       1.0  0.3560660670692783  0.7708556494326473  0.8056763417359887  1.0000
  O   O30       1.0  0.1764301777764246  0.9320247964637858  0.7258409628930734  1.0000
  O   O31       1.0  0.4375019009112222  0.6692980686225808  0.7339503704968776  1.0000
  O   O32       1.0  0.23177244156693888  0.8724387170122085  0.6677907822426403  1.0000
  O   O33       1.0  0.23714981856361553  0.8668705259984149  0.8119770640555044  1.0000
  O   O34       1.0  0.08843192970539351  0.8556071185214336  0.7967708315321075  1.0000
  O   O35       1.0  0.1746010446580115  0.6593675687928949  0.7152138728584418  1.0000
  O   O36       1.0  0.0962753198657396  0.7356627959438882  0.7974897906419895  1.0000
  O   O37       1.0  0.22998923904302868  0.7159686276470653  0.6616983621870388  1.0000
  O   O38       1.0  0.3546202855378056  0.6068131209471446  0.8114706377120482  1.0000
  O   O39       1.0  0.25260376866802403  0.5896433250325117  0.7990202031559119  1.0000
  O   O40       1.0  0.5011651375485967  0.9984597081630965  0.0002927262039307296  1.0000
  O   O41       1.0  0.5107713107818839  0.15350437470709005  0.9487144899602241  1.0000
  O   O42       1.0  0.3805293764130083  0.0029077712555363234  0.9436540586012607  1.0000
  O   O43       1.0  0.6525381520215632  0.8845690276873834  0.9471010614700642  1.0000
  O   O44       1.0  0.39382609432110627  0.1547365076776828  0.9480281001827037  1.0000
  O   O45       1.0  0.6581395957125693  0.9981156119646286  0.9480687244416756  1.0000
  O   O46       1.0  0.4885705221062153  0.89226391308425  0.9416198779692874  1.0000
  O   O47       1.0  0.5725488955894206  0.8134008214808193  0.02164998657064389  1.0000
  O   O48       1.0  0.5377294718545329  0.02830379018241291  0.08441532414816776  1.0000
  O   O49       1.0  0.5313394165237783  0.8705698476103978  0.08081946066280918  1.0000
  O   O50       1.0  0.5905004427361077  0.08349200781472627  0.02884348726072971  1.0000
  O   O51       1.0  0.317795846746094  0.08226860412835171  0.026055326691370312  1.0000
  O   O52       1.0  0.3792335405512616  0.020004036884444097  0.08303924779917075  1.0000
  O   O53       1.0  0.2863919698168687  0.524556885946282  0.4145266291791003  1.0000
  O   O54       1.0  0.790693463095863  0.542061332246007  0.665665248596994  1.0000
  O   O55       1.0  0.0403206657585002  0.27770745563939403  0.6534261921482878  1.0000
  O   O56       1.0  0.7727977944483726  0.7724902757791768  0.3989809844407688  1.0000
  O   O57       1.0  0.7044013942755852  0.46454607988593477  0.09277594953825027  1.0000
  O   O58       1.0  0.09955583318324558  0.0860861958993056  0.22367823906874656  1.0000
  O   O59       1.0  0.4652270139507806  0.47764935661435715  0.85236700535102  1.0000
  O   O60       1.0  0.9701384858296291  0.7100699942429144  0.8425708556436572  1.0000
