data_image0
_chemical_formula_structural       Zn4P4H32C28N8O16
_chemical_formula_sum              "Zn4 P4 H32 C28 N8 O16"
_cell_length_a       8.001741092157427
_cell_length_b       8.315297075033788
_cell_length_c       14.115532011700573
_cell_angle_alpha    79.99156790897085
_cell_angle_beta     80.46129100988769
_cell_angle_gamma    75.77299248514316

_space_group_name_H-M_alt    "P 1"
_space_group_IT_number       1

loop_
  _space_group_symop_operation_xyz
  'x, y, z'

loop_
  _atom_site_type_symbol
  _atom_site_label
  _atom_site_symmetry_multiplicity
  _atom_site_fract_x
  _atom_site_fract_y
  _atom_site_fract_z
  _atom_site_occupancy
  Zn  Zn1       1.0  0.41102242123584193  0.6418037969431724  0.39130310748740266  1.0000
  Zn  Zn2       1.0  0.5889799417844301  0.35820217937877896  0.6086966444444286  1.0000
  Zn  Zn3       1.0  0.9242346272969754  0.12375295579050773  0.3827288874306234  1.0000
  Zn  Zn4       1.0  0.07576265933705884  0.8762489282264029  0.6172726909510188  1.0000
  P   P1        1.0  0.7833935507829112  0.5174596942636782  0.41269368806162277  1.0000
  P   P2        1.0  0.21660693498244404  0.48254340755872954  0.5873038176699906  1.0000
  P   P3        1.0  0.2837768368284443  0.022123160473618998  0.43075309101938325  1.0000
  P   P4        1.0  0.7162208847286137  0.9778811933175009  0.5692466938630929  1.0000
  H   H1        1.0  0.8756574700804336  0.7372356603494412  0.4396775174458725  1.0000
  H   H2        1.0  0.12434426399403965  0.262763910680711  0.5603231485471838  1.0000
  H   H3        1.0  0.46014261622671887  0.17101797566445504  0.45911985715478215  1.0000
  H   H4        1.0  0.5398562848580539  0.8289863496330839  0.5408783778906994  1.0000
  H   H5        1.0  0.45376602839316854  0.3908696130011577  0.8775983776648599  1.0000
  H   H6        1.0  0.5462376298137173  0.6091274312675949  0.12240098215337268  1.0000
  H   H7        1.0  0.2912844719222107  0.5366627111818829  0.015856867382233013  1.0000
  H   H8        1.0  0.7087214358419303  0.463335958452511  0.9841448604672962  1.0000
  H   H9        1.0  0.05025562456177817  0.12000186219096075  0.1227596558227546  1.0000
  H   H10       1.0  0.9497405263416783  0.8799982596619955  0.8772366073065001  1.0000
  H   H11       1.0  0.21469847340337367  0.9732625963718179  0.985263550554059  1.0000
  H   H12       1.0  0.7852939387334459  0.026740896651119807  0.014729857219556686  1.0000
  H   H13       1.0  0.4677427863309945  0.18504694420640536  0.7756296775056342  1.0000
  H   H14       1.0  0.5322534631240217  0.8149533401036424  0.22436868169975807  1.0000
  H   H15       1.0  0.5790818414558672  0.019629595542880917  0.8557227965565488  1.0000
  H   H16       1.0  0.4209103687919368  0.9803681961689821  0.14428060827491865  1.0000
  H   H17       1.0  0.2087144989620313  0.14109629772836743  0.7064515623881961  1.0000
  H   H18       1.0  0.7912809134974523  0.8588991011855995  0.2935510825075838  1.0000
  H   H19       1.0  0.3036331024300836  0.6141761821960114  0.7724823563178517  1.0000
  H   H20       1.0  0.6963723016296229  0.3858235199628339  0.22751645493240596  1.0000
  H   H21       1.0  0.4966034648187473  0.7363217907125162  0.8818409506568088  1.0000
  H   H22       1.0  0.5034016295592991  0.26368287948835706  0.11815582343211162  1.0000
  H   H23       1.0  0.9266767069571525  0.48752548861138223  0.1466223719085208  1.0000
  H   H24       1.0  0.0733285123208773  0.5124594462196869  0.8533854980468476  1.0000
  H   H25       1.0  0.0378799479398424  0.3249197177298272  0.2269836613179663  1.0000
  H   H26       1.0  0.9621425402881981  0.6750660636953756  0.7730185808365277  1.0000
  H   H27       1.0  0.27899232304407207  0.3800314801899347  0.3076983734815215  1.0000
  H   H28       1.0  0.7210203771889709  0.6199702748838263  0.6923035933725216  1.0000
  H   H29       1.0  0.19140120478447634  0.9021376971099146  0.22406140241914574  1.0000
  H   H30       1.0  0.8085852768632408  0.09786588422859673  0.7759390558474095  1.0000
  H   H31       1.0  0.01665356085395325  0.7672071850889852  0.1109980787118445  1.0000
  H   H32       1.0  0.9833408175068783  0.2327830035147259  0.8890046597220334  1.0000
  C   C1        1.0  0.34594320052097066  0.172424507449108  0.9221849565237505  1.0000
  C   C2        1.0  0.6540510591006023  0.8275781953176066  0.0778133114723758  1.0000
  C   C3        1.0  0.3661011161166742  0.3310582854175479  0.9320960940453985  1.0000
  C   C4        1.0  0.6338947610359965  0.6689432480264018  0.06790214332891509  1.0000
  C   C5        1.0  0.2743956485579204  0.4127039171749232  0.009799402591795613  1.0000
  C   C6        1.0  0.7256049357590016  0.5872993471045831  0.9902001992159624  1.0000
  C   C7        1.0  0.16036008723763473  0.3372501980616391  0.07935465751496909  1.0000
  C   C8        1.0  0.8396399307541741  0.6627503798341865  0.9206439430237694  1.0000
  C   C9        1.0  0.1392464657722101  0.17919361590692523  0.06887840608364118  1.0000
  C   C10       1.0  0.860747194673728  0.8208063463237566  0.9311181619514173  1.0000
  C   C11       1.0  0.2313404769326368  0.09729836663778003  0.9914126856163038  1.0000
  C   C12       1.0  0.7686491381453634  0.9027063242015104  0.008582302616126455  1.0000
  C   C13       1.0  0.4500580877081859  0.0886014674528042  0.8377221448129005  1.0000
  C   C14       1.0  0.5499378551455224  0.9114001742958779  0.1622774899455095  1.0000
  C   C15       1.0  0.2545810412492031  0.013871839207958198  0.7412914377397398  1.0000
  C   C16       1.0  0.7454173294413522  0.9861262432548729  0.25870980744311106  1.0000
  C   C17       1.0  0.3058937010979932  0.741181358141624  0.7802162338153452  1.0000
  C   C18       1.0  0.694105980522359  0.25881691243706945  0.21978625629870405  1.0000
  C   C19       1.0  0.4038990616121227  0.7992526006868703  0.8320467052538447  1.0000
  C   C20       1.0  0.5960989696266028  0.20074678506222915  0.16795511678997596  1.0000
  C   C21       1.0  0.05654271664868558  0.4198942610969355  0.16435298181726668  1.0000
  C   C22       1.0  0.9434679153870392  0.5800970733563133  0.8356491721129728  1.0000
  C   C23       1.0  0.23830364056897937  0.503519825794136  0.2670568328181133  1.0000
  C   C24       1.0  0.76170597003091  0.49647902912131064  0.7329437389806656  1.0000
  C   C25       1.0  0.18975823091854943  0.7738960388268553  0.21993558821012724  1.0000
  C   C26       1.0  0.8102365652579663  0.2261056855677737  0.7800662950773258  1.0000
  C   C27       1.0  0.10201220964501087  0.7094084187183755  0.165472588924672  1.0000
  C   C28       1.0  0.8979877488064858  0.2905848296659316  0.8345312396586665  1.0000
  N   N1        1.0  0.3702508574208707  0.9713387666011927  0.8061559572040409  1.0000
  N   N2        1.0  0.6297448445325813  0.02866434089084181  0.19384635049147653  1.0000
  N   N3        1.0  0.2121887402108342  0.8766181609220993  0.7249288940821897  1.0000
  N   N4        1.0  0.7878084181014771  0.1233798958819534  0.2750732022456148  1.0000
  N   N5        1.0  0.1339349194148269  0.5386878447391157  0.19623312666475803  1.0000
  N   N6        1.0  0.8660736899369327  0.46130585401843405  0.8037682373641601  1.0000
  N   N7        1.0  0.2753490182892476  0.6443334227295807  0.2820396085071906  1.0000
  N   N8        1.0  0.7246512265758439  0.35567114483618684  0.7179605701615303  1.0000
  O   O1        1.0  0.901192202211632  0.6530283729154293  0.3940660456240721  1.0000
  O   O2        1.0  0.09880504849152054  0.3469770675525083  0.6059315213511808  1.0000
  O   O3        1.0  0.6570015381053554  0.5680852415767177  0.33445966690346296  1.0000
  O   O4        1.0  0.3430005323405823  0.4319166367705663  0.6655371095142825  1.0000
  O   O5        1.0  0.9134056055817156  0.3517550528641848  0.3983013887790321  1.0000
  O   O6        1.0  0.08659491303416189  0.6482481031105892  0.6016968156446367  1.0000
  O   O7        1.0  0.6813890566778723  0.5244410833233462  0.5142915092986016  1.0000
  O   O8        1.0  0.318610118157686  0.47556183038319233  0.48570475150182096  1.0000
  O   O9        1.0  0.181545393176954  0.0450533169734584  0.34449491774446267  1.0000
  O   O10       1.0  0.8184518277560359  0.9549484587387199  0.6555052632530902  1.0000
  O   O11       1.0  0.4003537468335168  0.1576925203487249  0.4049937912145154  1.0000
  O   O12       1.0  0.5996452199523004  0.8423119132535392  0.5950058412150625  1.0000
  O   O13       1.0  0.40592543796372393  0.8464594399797747  0.4466336802775502  1.0000
  O   O14       1.0  0.5940706660622296  0.15354608313411694  0.5533661352267458  1.0000
  O   O15       1.0  0.15971644128930512  0.05848742390639221  0.525224636691668  1.0000
  O   O16       1.0  0.8402830918216255  0.9415196960795457  0.4747759970069295  1.0000
