data_image0
_chemical_formula_structural       Zn2H8C26N6O16
_chemical_formula_sum              "Zn2 H8 C26 N6 O16"
_cell_length_a       9.990968770672074
_cell_length_b       10.929290832175083
_cell_length_c       11.75634236108383
_cell_angle_alpha    86.65578276198922
_cell_angle_beta     89.87325096697579
_cell_angle_gamma    86.64807899818867

_space_group_name_H-M_alt    "P 1"
_space_group_IT_number       1

loop_
  _space_group_symop_operation_xyz
  'x, y, z'

loop_
  _atom_site_type_symbol
  _atom_site_label
  _atom_site_symmetry_multiplicity
  _atom_site_fract_x
  _atom_site_fract_y
  _atom_site_fract_z
  _atom_site_occupancy
  Zn  Zn1       1.0  0.6397506430730006  0.49307593965373536  0.4952166495650727  1.0000
  Zn  Zn2       1.0  0.35144837864165623  0.5027932502693063  0.4929205605307628  1.0000
  H   H1        1.0  0.9152228663168814  0.8517455966926375  0.6803725663248841  1.0000
  H   H2        1.0  0.31367345225739746  0.8993143653087186  0.40796448123720097  1.0000
  H   H3        1.0  0.2634590794385829  0.32627297611979594  0.6492759055686932  1.0000
  H   H4        1.0  0.9036467485917329  0.25223099510553476  0.8351673759700798  1.0000
  H   H5        1.0  0.7652763899293619  0.3786891096987048  0.691232971699513  1.0000
  H   H6        1.0  0.7720563548650504  0.19006752103191354  0.5061215766658761  1.0000
  H   H7        1.0  0.6982401557027772  0.7609551427194603  0.6431208691045852  1.0000
  H   H8        1.0  0.12210869847979212  0.5974262916737559  0.3476829105092774  1.0000
  C   C1        1.0  0.5177739918846599  0.26403115359114077  0.470338367420858  1.0000
  C   C2        1.0  0.4819663487857824  0.4769464315040323  0.7134376443874684  1.0000
  C   C3        1.0  0.4773552862228101  0.7311240298649863  0.5110260384691685  1.0000
  C   C4        1.0  0.496802217819031  0.5239365179499629  0.2760862195540738  1.0000
  C   C5        1.0  0.4888100135973374  0.4847436451354809  0.8349162735970452  1.0000
  C   C6        1.0  0.49445586734891844  0.49639014491592065  0.9376664453311745  1.0000
  C   C7        1.0  0.49833783419085637  0.5088940813325351  0.050965776159642893  1.0000
  C   C8        1.0  0.4997252544749814  0.5194755744506523  0.15392803270310645  1.0000
  C   C9        1.0  0.7537145877275009  0.097373286641961  0.5376628634261634  1.0000
  C   C10       1.0  0.8555272425538477  0.0229152722822334  0.5871171266709182  1.0000
  C   C11       1.0  0.835103297341263  0.9035510606571863  0.6329319541969836  1.0000
  C   C12       1.0  0.7145273578542018  0.8543409853627041  0.6124586486966164  1.0000
  C   C13       1.0  0.6112931092954385  0.9210780851113397  0.5470157154855498  1.0000
  C   C14       1.0  0.6270037349081933  0.0499307001320446  0.5195135165936688  1.0000
  C   C15       1.0  0.5200919817013628  0.12573507650092353  0.4665325222814686  1.0000
  C   C16       1.0  0.4124225245869441  0.0669745065659129  0.4253342231558148  1.0000
  C   C17       1.0  0.3993464020560822  0.9404986649261675  0.4439845248267387  1.0000
  C   C18       1.0  0.49478807762299254  0.8672722783402094  0.505320057513927  1.0000
  C   C19       1.0  0.15599833292196763  0.3420770054739464  0.6595943470570943  1.0000
  C   C20       1.0  0.09015429928854253  0.28502097892648237  0.7484248449898202  1.0000
  C   C21       1.0  0.9500207251775025  0.29850398839425213  0.7619569978234535  1.0000
  C   C22       1.0  0.8737684313243222  0.36785520472587757  0.681561329843795  1.0000
  C   C23       1.0  0.936145914241422  0.42856103507725163  0.5879334706308084  1.0000
  C   C24       1.0  0.080213864817118  0.41832522202053474  0.5795154956103585  1.0000
  C   C25       1.0  0.0712665063471931  0.5479557691429591  0.41677757015826694  1.0000
  C   C26       1.0  0.9301291283621185  0.555465974508465  0.42557517191100647  1.0000
  N   N1        1.0  0.14418238494172192  0.48170069041218266  0.493937866527304  1.0000
  N   N2        1.0  0.8615297669790963  0.49913526809257286  0.506948267139542  1.0000
  N   N3        1.0  0.31032541239731165  0.1345014372803988  0.3507709658617556  1.0000
  N   N4        1.0  0.8602683739828977  0.639927626578668  0.3382642160559114  1.0000
  N   N5        1.0  0.9897072913452193  0.0701888356204918  0.5896351193722892  1.0000
  N   N6        1.0  0.1703174370808966  0.20341115768053442  0.8314091740954833  1.0000
  O   O1        1.0  0.6251047824590047  0.31797442200999637  0.4477781833718807  1.0000
  O   O2        1.0  0.40866292132339055  0.3145818609426669  0.5044399216202037  1.0000
  O   O3        1.0  0.5875507252003302  0.4370668254671982  0.6629462333013761  1.0000
  O   O4        1.0  0.3707839348312875  0.5115536460942991  0.6657778933569813  1.0000
  O   O5        1.0  0.5796853040727826  0.661264228230138  0.5409558004816757  1.0000
  O   O6        1.0  0.36479656767500757  0.6937358301151663  0.4825328499542393  1.0000
  O   O7        1.0  0.6061800861675125  0.5430611385212244  0.32565017831065285  1.0000
  O   O8        1.0  0.38361542421696987  0.5067592731414834  0.3228388923590798  1.0000
  O   O9        1.0  0.19745075724454614  0.0934363715551285  0.3490575673106377  1.0000
  O   O10       1.0  0.34660860667073484  0.2240570233089372  0.2916171128296695  1.0000
  O   O11       1.0  0.8872224362810714  0.6190646079963713  0.23856369826278004  1.0000
  O   O12       1.0  0.7897256288796443  0.7255959396149549  0.37372069504220207  1.0000
  O   O13       1.0  0.010833685410403901  0.16258704692351242  0.5270994138695925  1.0000
  O   O14       1.0  0.0749139405810979  0.014923928728634905  0.6536827735153067  1.0000
  O   O15       1.0  0.2932447713199339  0.19587086777323048  0.8181485157484614  1.0000
  O   O16       1.0  0.10759237033970241  0.1488507652095592  0.9076361055398505  1.0000
