data_image0
_chemical_formula_structural       Zn2H11C28N7O18
_chemical_formula_sum              "Zn2 H11 C28 N7 O18"
_cell_length_a       9.260842678685462
_cell_length_b       11.01241424572681
_cell_length_c       13.501481511534646
_cell_angle_alpha    87.4432609133517
_cell_angle_beta     53.774953202567914
_cell_angle_gamma    95.48507210576439

_space_group_name_H-M_alt    "P 1"
_space_group_IT_number       1

loop_
  _space_group_symop_operation_xyz
  'x, y, z'

loop_
  _atom_site_type_symbol
  _atom_site_label
  _atom_site_symmetry_multiplicity
  _atom_site_fract_x
  _atom_site_fract_y
  _atom_site_fract_z
  _atom_site_occupancy
  Zn  Zn1       1.0  0.29968953341735016  0.46924963285267285  0.5682671052105448  1.0000
  Zn  Zn2       1.0  0.6897950453056368  0.511352043982626  0.4479291180061579  1.0000
  H   H1        1.0  0.7630287018397081  0.2895442998367415  0.7975187380593881  1.0000
  H   H2        1.0  0.8654416761556686  0.2818174042017745  0.9232257708362398  1.0000
  H   H3        1.0  0.11645227614373245  0.6227123102282307  0.9102240183313199  1.0000
  H   H4        1.0  0.2803790363494656  0.6362231506452999  0.1448876343069259  1.0000
  H   H5        1.0  0.5775602339575342  0.3666001057882086  0.7417669225946284  1.0000
  H   H6        1.0  0.3197154703851621  0.09371956680129048  0.45643911631768225  1.0000
  H   H7        1.0  0.33561526017659554  0.8693911582296893  0.4408552661252969  1.0000
  H   H8        1.0  0.9685109750203434  0.34726824708212695  0.38435932155662306  1.0000
  H   H9        1.0  0.15403330051888273  0.31410055092970884  0.46305020293802823  1.0000
  H   H10       1.0  0.027902680163855054  0.6371179306718487  0.6248947836230699  1.0000
  H   H11       1.0  0.8403643997705358  0.6696308652925396  0.548477826463369  1.0000
  C   C1        1.0  0.5044098813393844  0.7262246781520146  0.4978398111050168  1.0000
  C   C2        1.0  0.36006533535488217  0.49619855823552667  0.7413824256290411  1.0000
  C   C3        1.0  0.4784574502630932  0.2523367737062614  0.5234515093994004  1.0000
  C   C4        1.0  0.6320722492116031  0.48327914275072464  0.2742869273916782  1.0000
  C   C5        1.0  0.7764031939789217  0.3464912902806531  0.9797063301626852  1.0000
  C   C6        1.0  0.6527814912290919  0.4604731410574772  0.15720980662550943  1.0000
  C   C7        1.0  0.20540305278506554  0.5947462143156487  0.9317809708974849  1.0000
  C   C8        1.0  0.1938374659337896  0.6334133042354252  0.033001574874411695  1.0000
  C   C9        1.0  0.30556744814833076  0.6017571223109782  0.06295880031510138  1.0000
  C   C10       1.0  0.43811671601672936  0.5263088092851832  0.9915067556625843  1.0000
  C   C11       1.0  0.4511828339270919  0.48457712914350987  0.8873103430816442  1.0000
  C   C12       1.0  0.554958834307115  0.4843271851800425  0.021481162274994903  1.0000
  C   C13       1.0  0.6705683556692815  0.3971630361883384  0.9498527597173237  1.0000
  C   C14       1.0  0.6759145622145935  0.357399108819358  0.8487857243198391  1.0000
  C   C15       1.0  0.5724402913204328  0.39996557824048296  0.8179945567753819  1.0000
  C   C16       1.0  0.5626494223736813  0.5181423345636844  0.11897038844051619  1.0000
  C   C17       1.0  0.7595403744243683  0.37335616883699885  0.08421705026591299  1.0000
  C   C18       1.0  0.3357125174450388  0.5226089510681504  0.8581219131833961  1.0000
  C   C19       1.0  0.589818684215224  0.930850909700659  0.5423608130875692  1.0000
  C   C20       1.0  0.5845839728411804  0.0564636598668216  0.5480329110054498  1.0000
  C   C21       1.0  0.48508559830613507  0.11642240253961939  0.5190258766955509  1.0000
  C   C22       1.0  0.3956607029189028  0.04737151827391269  0.4805727735030487  1.0000
  C   C23       1.0  0.40381417257722063  0.922336590548497  0.47235151798354025  1.0000
  C   C24       1.0  0.49937332065226053  0.8619792105363403  0.5044767699987673  1.0000
  C   C25       1.0  0.9836087866159532  0.4120982264449252  0.4372973330814887  1.0000
  C   C26       1.0  0.08326844668874131  0.3930940588584874  0.48172739607574755  1.0000
  C   C27       1.0  0.012145358906693078  0.5721212891544738  0.5723789164680397  1.0000
  C   C28       1.0  0.9117203481817595  0.590864970032442  0.5287398796404263  1.0000
  N   N1        1.0  0.09630395642044215  0.47296155405213375  0.5490859256374492  1.0000
  N   N2        1.0  0.8978749006905101  0.5103204304444589  0.4618928744990285  1.0000
  N   N3        1.0  0.8461988916381246  0.299932106949818  0.12386151131774155  1.0000
  N   N4        1.0  0.6721866206106029  0.12457608068773142  0.5961883045970849  1.0000
  N   N5        1.0  0.48669894123879226  0.6291725650714001  0.17865436621428185  1.0000
  N   N6        1.0  0.05874913503201639  0.7131860532489256  0.11097205278009879  1.0000
  N   N7        1.0  0.6761594268400157  0.8664113695040071  0.5886883268447463  1.0000
  O   O1        1.0  0.356282781862916  0.6603315559548051  0.5369899657381012  1.0000
  O   O2        1.0  0.65609617080176  0.6911712767985563  0.4533153155414454  1.0000
  O   O3        1.0  0.21970495832601225  0.4755298971168003  0.7439336489764373  1.0000
  O   O4        1.0  0.5217958546895075  0.5026751991229333  0.645104844805374  1.0000
  O   O5        1.0  0.3269819969191373  0.28640079230905263  0.5646909559698302  1.0000
  O   O6        1.0  0.6259462494667645  0.3199272667872605  0.4833580328050929  1.0000
  O   O7        1.0  0.4705515386507099  0.47244591791435653  0.3702185021829579  1.0000
  O   O8        1.0  0.7732538738900486  0.5066796536877901  0.26956511764402075  1.0000
  O   O9        1.0  0.7477258742793464  0.24964022223072396  0.23235986302295691  1.0000
  O   O10       1.0  0.007026906636895092  0.2902057912003214  0.0457529353670623  1.0000
  O   O11       1.0  0.5697988935405788  0.15110776425769498  0.7026669879569171  1.0000
  O   O12       1.0  0.8390460495781934  0.14797723282289607  0.5284194128625616  1.0000
  O   O13       1.0  0.33369461224110336  0.6166076871199166  0.2783136429887706  1.0000
  O   O14       1.0  0.5864227797468046  0.7277887800520233  0.1211712661959225  1.0000
  O   O15       1.0  0.9644405082896128  0.7449105840600082  0.08002801414869515  1.0000
  O   O16       1.0  0.0486429376203077  0.7437955028260675  0.20192113242165277  1.0000
  O   O17       1.0  0.5726934759150735  0.7926683374849901  0.6840691290217508  1.0000
  O   O18       1.0  0.8420424552109934  0.8902943265654457  0.5307350409477606  1.0000
