data_image0
_chemical_formula_structural       Cu2H16C14N2Cl2O2
_chemical_formula_sum              "Cu2 H16 C14 N2 Cl2 O2"
_cell_length_a       6.1628759760585945
_cell_length_b       7.881594526951688
_cell_length_c       8.456284479868819
_cell_angle_alpha    88.22653704760235
_cell_angle_beta     78.80224391572989
_cell_angle_gamma    68.70776387835087

_space_group_name_H-M_alt    "P 1"
_space_group_IT_number       1

loop_
  _space_group_symop_operation_xyz
  'x, y, z'

loop_
  _atom_site_type_symbol
  _atom_site_label
  _atom_site_symmetry_multiplicity
  _atom_site_fract_x
  _atom_site_fract_y
  _atom_site_fract_z
  _atom_site_occupancy
  Cu  Cu1       1.0  0.6751210218816083  0.10641358782434912  0.5001102405308727  1.0000
  Cu  Cu2       1.0  0.32488210690847547  0.8935762327828133  0.4998974005291359  1.0000
  H   H1        1.0  0.7820090556166619  0.4261735709383173  0.5453560646679277  1.0000
  H   H2        1.0  0.2179887249360775  0.5738313237829831  0.4546425498793241  1.0000
  H   H3        1.0  0.8010430058275019  0.019266033397919102  0.13689196785734475  1.0000
  H   H4        1.0  0.19895806038214675  0.9807387969365636  0.8631121110811858  1.0000
  H   H5        1.0  0.6451332332808801  0.1729893583160518  0.00357145545788033  1.0000
  H   H6        1.0  0.35487168298050886  0.8270073051256617  0.9964310750804373  1.0000
  H   H7        1.0  0.7244521547367954  0.4371508690522532  0.9750760314978062  1.0000
  H   H8        1.0  0.27555978425684924  0.5628485381625836  0.02492075261624649  1.0000
  H   H9        1.0  0.78981997392696  0.6983231009366977  0.0952602119975978  1.0000
  H   H10       1.0  0.21018916350384131  0.30168589605713697  0.9047308531169802  1.0000
  H   H11       1.0  0.2783396425874827  0.27223670952994894  0.2377986830691015  1.0000
  H   H12       1.0  0.7216649260299731  0.7277572872902954  0.7621980347246619  1.0000
  H   H13       1.0  0.37181719051440615  0.0452586073445218  0.1585681037554138  1.0000
  H   H14       1.0  0.6281722531004803  0.9547396166685617  0.8414199582253943  1.0000
  H   H15       1.0  0.8227365043776091  0.6914507236379633  0.3870125609928933  1.0000
  H   H16       1.0  0.17725861489775943  0.30855284000048055  0.6129840790882637  1.0000
  C   C1        1.0  0.7104239321997028  0.3000069990495576  0.19785026309892118  1.0000
  C   C2        1.0  0.28956775950682373  0.6999897593668294  0.8021481635200799  1.0000
  C   C3        1.0  0.7690248737698938  0.4365953867264595  0.4186405213222456  1.0000
  C   C4        1.0  0.23096897489913473  0.5634109244986477  0.5813538732140697  1.0000
  C   C5        1.0  0.655174394892157  0.15023792411305686  0.13123061811415937  1.0000
  C   C6        1.0  0.3448325528052436  0.8497614550430229  0.8687715805414411  1.0000
  C   C7        1.0  0.736342939111914  0.4418746985728035  0.10168011943402888  1.0000
  C   C8        1.0  0.2636533634760171  0.5581193562518364  0.8983141813572144  1.0000
  C   C9        1.0  0.7743115248252435  0.5853781248095943  0.1682463614229448  1.0000
  C   C10       1.0  0.22569494040456553  0.4146295194250343  0.83174509637832  1.0000
  C   C11       1.0  0.42361823062329057  0.136842153788848  0.22597538643766765  1.0000
  C   C12       1.0  0.5763918008343721  0.8631435843352621  0.7740290248216579  1.0000
  C   C13       1.0  0.7919555512009496  0.5825165557124093  0.33012695413809456  1.0000
  C   C14       1.0  0.2080393988534013  0.41748008412628934  0.6698828547541495  1.0000
  N   N1        1.0  0.7267648509426933  0.29921185109231635  0.35551170605115345  1.0000
  N   N2        1.0  0.2732337777334947  0.7008052681571472  0.6444889159032953  1.0000
  Cl  Cl1       1.0  0.13299693357036088  0.860252883025524  0.3098595792711975  1.0000
  Cl  Cl2       1.0  0.8670015204229954  0.13975730158603028  0.6901553950707251  1.0000
  O   O1        1.0  0.45386722490444237  0.0658759531435535  0.37921091727699957  1.0000
  O   O2        1.0  0.5461260850523645  0.934120724307647  0.6207955676313972  1.0000
