data_image0
_chemical_formula_structural       Zn4H50C60N4O19
_chemical_formula_sum              "Zn4 H50 C60 N4 O19"
_cell_length_a       17.909585297326316
_cell_length_b       19.24733340730568
_cell_length_c       19.19247550536989
_cell_angle_alpha    95.03002393571774
_cell_angle_beta     103.80290043665104
_cell_angle_gamma    99.15503176606792

_space_group_name_H-M_alt    "P 1"
_space_group_IT_number       1

loop_
  _space_group_symop_operation_xyz
  'x, y, z'

loop_
  _atom_site_type_symbol
  _atom_site_label
  _atom_site_symmetry_multiplicity
  _atom_site_fract_x
  _atom_site_fract_y
  _atom_site_fract_z
  _atom_site_occupancy
  Zn  Zn1       1.0  0.4349929697088157  0.5470349888727313  0.5448846058931521  1.0000
  Zn  Zn2       1.0  0.5716443484778608  0.45575140243773404  0.5694440865684385  1.0000
  Zn  Zn3       1.0  0.5634401229766084  0.5678328190187187  0.45702466040948037  1.0000
  Zn  Zn4       1.0  0.432233832896884  0.4229408987181457  0.4219969634164115  1.0000
  H   H1        1.0  0.9307629017350932  0.3220999998338812  0.4030012352135301  1.0000
  H   H2        1.0  0.40464454123049615  0.5635177135546243  0.7456504245540996  1.0000
  H   H3        1.0  0.8101477994018963  0.6568001194336829  0.6329559415131738  1.0000
  H   H4        1.0  0.05149971162006747  0.2934664968096853  0.382635575666974  1.0000
  H   H5        1.0  0.1956460929230204  0.3265633021958934  0.39709722728369456  1.0000
  H   H6        1.0  0.8588095387028715  0.4019563459466369  0.4540036675624464  1.0000
  H   H7        1.0  0.14629519389222173  0.5805396788294176  0.5740789676151792  1.0000
  H   H8        1.0  0.9032677640305594  0.7705816433642595  0.634280073075132  1.0000
  H   H9        1.0  0.9871441425482105  0.7640045734481333  0.6009328357357047  1.0000
  H   H10       1.0  0.0742733592825928  0.805205873649733  0.7270231657324115  1.0000
  H   H11       1.0  0.016702507981328572  0.8693669588470596  0.6964945730585013  1.0000
  H   H12       1.0  0.4023159886554595  0.1992065556042775  0.4085395581020918  1.0000
  H   H13       1.0  0.990353718192914  0.8132992931848265  0.759365972327039  1.0000
  H   H14       1.0  0.4574645034615443  0.0182335211512665  0.3405764804698847  1.0000
  H   H15       1.0  0.4083441190463973  0.0857151785322401  0.3036310038762976  1.0000
  H   H16       1.0  0.27829089716985317  0.0036598457014988994  0.2868199837026636  1.0000
  H   H17       1.0  0.3388440988739988  0.9653298949690738  0.23888132514856147  1.0000
  H   H18       1.0  0.32849335230394416  0.9365848694715948  0.3225580391401478  1.0000
  H   H19       1.0  0.3887424046105962  0.754486154378739  0.5537891235044085  1.0000
  H   H20       1.0  0.6227497047349715  0.2534539395540278  0.5693749531203307  1.0000
  H   H21       1.0  0.698212907021862  0.5168834711855582  0.955166842315222  1.0000
  H   H22       1.0  0.6889936622290947  0.4463020053827833  0.885013809658801  1.0000
  H   H23       1.0  0.38137637805981944  0.8841699538150608  0.5529259919598956  1.0000
  H   H24       1.0  0.6969845098206946  0.35888594797454226  0.9735210585941442  1.0000
  H   H25       1.0  0.7797246768725259  0.4293396722120732  0.0030780294927979005  1.0000
  H   H26       1.0  0.7002135749686433  0.42630502996632197  0.04442751752829115  1.0000
  H   H27       1.0  0.424388031281687  0.36681199315638924  0.07893006906875398  1.0000
  H   H28       1.0  0.67445363438722  0.5528597771813963  0.10923397818078233  1.0000
  H   H29       1.0  0.6709318977841362  0.6153825267824545  0.18272436051044844  1.0000
  H   H30       1.0  0.6628693310606124  0.7102318496469736  0.10002466130946173  1.0000
  H   H31       1.0  0.7491661075991801  0.6740606053956383  0.10433559930203977  1.0000
  H   H32       1.0  0.667427191290308  0.648148711845984  0.027347349352375303  1.0000
  H   H33       1.0  0.3915927966585144  0.5600691076426115  0.8732812193570182  1.0000
  H   H34       1.0  0.5649665953675013  0.9112574627403806  0.44337754250707917  1.0000
  H   H35       1.0  0.5616355588158156  0.6887355465010998  0.3114899573907833  1.0000
  H   H36       1.0  0.47619302899519056  0.6219197863757202  0.2830912825027028  1.0000
  H   H37       1.0  0.4501598599589657  0.6590419245659119  0.15732887188026717  1.0000
  H   H38       1.0  0.45292219587454957  0.7301495183281618  0.22440274140758726  1.0000
  H   H39       1.0  0.5345380255203694  0.7273218706636299  0.18663913561049125  1.0000
  H   H40       1.0  0.07683633602420056  0.6529504748114119  0.6389571300357985  1.0000
  H   H41       1.0  0.11504753718008229  0.6014723871939437  0.4403292232855519  1.0000
  H   H42       1.0  0.18453144574201014  0.5811684057201203  0.39210282966848087  1.0000
  H   H43       1.0  0.2903585392177277  0.6689932768870931  0.4821046837750486  1.0000
  H   H44       1.0  0.2130602238371253  0.711116242881964  0.43903581642960887  1.0000
  H   H45       1.0  0.6289815171286506  0.12360735343933983  0.5680694895666107  1.0000
  H   H46       1.0  0.22049462370245726  0.6906282581579505  0.5288466680200015  1.0000
  H   H47       1.0  0.5693432055428927  0.7808405397650234  0.44052764912405706  1.0000
  H   H48       1.0  0.5991594225708281  0.45553293433081166  0.7945247263457274  1.0000
  H   H49       1.0  0.8013662241943039  0.4666767106345162  0.4937060379002744  1.0000
  H   H50       1.0  0.4269984412587391  0.3826554551596288  0.21075458650356182  1.0000
  C   C1        1.0  0.5075575520674532  0.3108907651177192  0.4909276491605183  1.0000
  C   C2        1.0  0.08300684148544242  0.5671754861316742  0.5631353850737497  1.0000
  C   C3        1.0  0.044484872840655505  0.6075941298824363  0.5994144636537512  1.0000
  C   C4        1.0  0.4827639490441627  0.6832353325354604  0.4952373899983867  1.0000
  C   C5        1.0  0.9617924552078635  0.5915304409514236  0.5868650105125894  1.0000
  C   C6        1.0  0.9187279383669419  0.5294283183875805  0.5389983996645353  1.0000
  C   C7        1.0  0.9213811329155704  0.6359643329089337  0.6215166554614411  1.0000
  C   C8        1.0  0.8406991241581422  0.6217588843946729  0.6070917807165869  1.0000
  C   C9        1.0  0.8366371966834408  0.5140203865936783  0.5285399140881565  1.0000
  C   C10       1.0  0.47901600852439685  0.7602505145995693  0.4966326953320743  1.0000
  C   C11       1.0  0.5288844568521469  0.8042725149495595  0.46538638084015094  1.0000
  C   C12       1.0  0.16312631887229398  0.3636292698322876  0.41712910310836543  1.0000
  C   C13       1.0  0.5265746288278947  0.8760460450485678  0.46678505049623426  1.0000
  C   C14       1.0  0.4732639561616452  0.9044631657497888  0.49887526683387756  1.0000
  C   C15       1.0  0.42248285880090464  0.8605700793674627  0.5290596663266527  1.0000
  C   C16       1.0  0.5100790949674804  0.5108257106688825  0.6878876356014698  1.0000
  C   C17       1.0  0.42634958802011613  0.7890035383039943  0.5290774153030283  1.0000
  C   C18       1.0  0.45219166361324176  0.11055096506314747  0.44628764061039305  1.0000
  C   C19       1.0  0.45147042563192497  0.18265540730125454  0.4443488149275935  1.0000
  C   C20       1.0  0.5167619147359517  0.089365883977564  0.4925143963118898  1.0000
  C   C21       1.0  0.5117937294392975  0.23396896111008664  0.48969170095092096  1.0000
  C   C22       1.0  0.5760400531441902  0.21295167123408015  0.5347909956058456  1.0000
  C   C23       1.0  0.16359299090478163  0.4819066319065468  0.47406860894420777  1.0000
  C   C24       1.0  0.5792553652089225  0.14139782115501734  0.5343871167382799  1.0000
  C   C25       1.0  0.4953266684458768  0.4878883687156232  0.2319595729334195  1.0000
  C   C26       1.0  0.5327474319451896  0.5437779226932449  0.20183895617851277  1.0000
  C   C27       1.0  0.5316321686900096  0.5351324842751097  0.12765089474378039  1.0000
  C   C28       1.0  0.498786695599435  0.490262430162744  0.3105675875462878  1.0000
  C   C29       1.0  0.4906083786386047  0.4711834375397642  0.08337552277344426  1.0000
  C   C30       1.0  0.4541462024746679  0.41594168781600155  0.11397158593511848  1.0000
  C   C31       1.0  0.45560278475777244  0.42480238135379267  0.18653233655543738  1.0000
  C   C32       1.0  0.5460141656305025  0.47416846818226344  0.8830330682534322  1.0000
  C   C33       1.0  0.5540606946296266  0.4781847267481325  0.8127437478841982  1.0000
  C   C34       1.0  0.0835812517728982  0.46196623417298344  0.47519646697284645  1.0000
  C   C35       1.0  0.48497447884181344  0.5031182355373431  0.9040655418595731  1.0000
  C   C36       1.0  0.5028158860082356  0.5093496989980721  0.7634879847567289  1.0000
  C   C37       1.0  0.4434125713851031  0.5388757327321725  0.7845554965871385  1.0000
  C   C38       1.0  0.4358276833225148  0.5363858567851737  0.8543970429123886  1.0000
  C   C39       1.0  0.7113137253561774  0.543534075864599  0.5456630476743454  1.0000
  C   C40       1.0  0.2905664167339381  0.4492522283746609  0.4601681143288444  1.0000
  C   C41       1.0  0.20411536113645923  0.4320718834062589  0.4498145829345218  1.0000
  C   C42       1.0  0.7985989997568909  0.5598885593163415  0.5607184284026373  1.0000
  C   C43       1.0  0.08390799023237608  0.34546768283553314  0.40988134385782615  1.0000
  C   C44       1.0  0.9641060690732103  0.7616559834081472  0.6493618522576694  1.0000
  C   C45       1.0  0.04317853075574621  0.3932684033804321  0.4388525976933976  1.0000
  C   C46       1.0  0.014296934176790921  0.8155382373693457  0.7118159291350918  1.0000
  C   C47       1.0  0.40238536224924815  0.0390551308223621  0.33293989194635987  1.0000
  C   C48       1.0  0.3327475476223327  0.9827526770570785  0.2929650201435833  1.0000
  C   C49       1.0  0.6772054139598608  0.459391843290213  0.9379091593442082  1.0000
  C   C50       1.0  0.7158203079388558  0.4158356183026441  0.9930389186586407  1.0000
  C   C51       1.0  0.653694160000704  0.6019140952295031  0.12350769171687397  1.0000
  C   C52       1.0  0.6849254100066418  0.6620730010015663  0.08643204960026195  1.0000
  C   C53       1.0  0.522536015248967  0.6536182275138954  0.26434345363005457  1.0000
  C   C54       1.0  0.48818570271046713  0.6949101651257267  0.20453251310698306  1.0000
  C   C55       1.0  0.17749560203362338  0.600157895426257  0.4456980463096086  1.0000
  C   C56       1.0  0.0425306728132426  0.5059831545784803  0.5125021610680562  1.0000
  C   C57       1.0  0.22849130292676986  0.6720249293438768  0.4757919121725535  1.0000
  C   C58       1.0  0.9605982173731745  0.4850156211197358  0.5034048920908346  1.0000
  C   C59       1.0  0.9214551119499389  0.4187723417318239  0.4612252343782328  1.0000
  C   C60       1.0  0.961391569712049  0.37393478042461226  0.4321757849016307  1.0000
  N   N1        1.0  0.46514095179043113  0.9764960557982858  0.501031267443217  1.0000
  N   N2        1.0  0.5252881306603  0.018275402687486102  0.49611599110173177  1.0000
  N   N3        1.0  0.4891245693549919  0.45811342809378897  0.01001350122704281  1.0000
  N   N4        1.0  0.47503740520053833  0.5089208588794704  0.9742269177447366  1.0000
  O   O1        1.0  0.5005878550831113  0.49729428180536667  0.4974495119541159  1.0000
  O   O2        1.0  0.6815697510829964  0.48738411969907963  0.5672077431981248  1.0000
  O   O3        1.0  0.31931488231838767  0.4186130860037522  0.41343346282490495  1.0000
  O   O4        1.0  0.6742383369228478  0.5872665617843039  0.5122960207147855  1.0000
  O   O5        1.0  0.3295419476883835  0.49097377818907956  0.5168515535373855  1.0000
  O   O6        1.0  0.9653788274693158  0.6921145427737372  0.6718802351820088  1.0000
  O   O7        1.0  0.3909952614172952  0.06111326212011649  0.4031040322905496  1.0000
  O   O8        1.0  0.5942621938838926  0.4439738483537353  0.932781426186615  1.0000
  O   O9        1.0  0.5688648687412085  0.5882579005797339  0.09819755544904044  1.0000
  O   O10       1.0  0.5712223940854386  0.6077740562206839  0.2408832500575641  1.0000
  O   O11       1.0  0.2029132227516399  0.5508148972929163  0.4952535292119648  1.0000
  O   O12       1.0  0.4691126016663745  0.5491427841923836  0.6497885056558275  1.0000
  O   O13       1.0  0.44927014417025657  0.4436538497457647  0.32771835007203254  1.0000
  O   O14       1.0  0.5567379439010693  0.35285387544200825  0.542598773670967  1.0000
  O   O15       1.0  0.5316747113883835  0.6610679561101234  0.4641771256902557  1.0000
  O   O16       1.0  0.4553005791811842  0.3282972022818385  0.4409883179346678  1.0000
  O   O17       1.0  0.4368308023854652  0.6457186440522023  0.5251258849399817  1.0000
  O   O18       1.0  0.5561869972368427  0.47392643554449176  0.6669920577422417  1.0000
  O   O19       1.0  0.5515470354595494  0.5368959243231687  0.35488842563708534  1.0000
