data_image0
_chemical_formula_structural       Zn4H58C72N16F6
_chemical_formula_sum              "Zn4 H58 C72 N16 F6"
_cell_length_a       15.40190332671163
_cell_length_b       14.463251564273726
_cell_length_c       17.460847182912982
_cell_angle_alpha    106.02950382373994
_cell_angle_beta     105.48791132185895
_cell_angle_gamma    113.0679623094731

_space_group_name_H-M_alt    "P 1"
_space_group_IT_number       1

loop_
  _space_group_symop_operation_xyz
  'x, y, z'

loop_
  _atom_site_type_symbol
  _atom_site_label
  _atom_site_symmetry_multiplicity
  _atom_site_fract_x
  _atom_site_fract_y
  _atom_site_fract_z
  _atom_site_occupancy
  Zn  Zn1       1.0  0.9552097708021351  0.6198817557352073  0.09183624724899181  1.0000
  Zn  Zn2       1.0  0.029521322904756057  0.3239122916266339  0.8697804184413015  1.0000
  Zn  Zn3       1.0  0.10957750173641731  0.6200683687063844  0.9921246246965864  1.0000
  Zn  Zn4       1.0  0.9351054539716799  0.32846099776867294  0.993981333026902  1.0000
  H   H1        1.0  0.873854150952269  0.7533653485795714  0.029545258943443377  1.0000
  H   H2        1.0  0.14621463007578234  0.30461302405952045  0.03331888337707062  1.0000
  H   H3        1.0  0.08549382545570683  0.11650777534971724  0.862550984921512  1.0000
  H   H4        1.0  0.8736700534836997  0.2629011222889872  0.14148928683805204  1.0000
  H   H5        1.0  0.30741081086964067  0.660371801893561  0.1211114087112293  1.0000
  H   H6        1.0  0.6329360866075149  0.6619397110037754  0.21998183301958832  1.0000
  H   H7        1.0  0.2593224757479858  0.22650046406219812  0.9558523501918685  1.0000
  H   H8        1.0  0.8210546382592623  0.24189935775443444  0.6866765387403505  1.0000
  H   H9        1.0  0.26003561902737726  0.3157299053910097  0.9023617777995555  1.0000
  H   H10       1.0  0.42556569628279584  0.24770613981100845  0.9507993665867149  1.0000
  H   H11       1.0  0.42630139405351725  0.3364688619039455  0.8969215900797848  1.0000
  H   H12       1.0  0.4413650662398751  0.04995796591705934  0.29822723804984724  1.0000
  H   H13       1.0  0.3661713696180157  0.019938606290992325  0.6089312107675369  1.0000
  H   H14       1.0  0.5950174038413534  0.19604773590313582  0.435453965173835  1.0000
  H   H15       1.0  0.9349231517193602  0.3116550498764854  0.5567947804384091  1.0000
  H   H16       1.0  0.03684385357486526  0.6220245709620545  0.8113538507339301  1.0000
  H   H17       1.0  0.08434451943936253  0.6679017079204786  0.6975136560233681  1.0000
  H   H18       1.0  0.8595569794199135  0.22438725990534886  0.3932233922891867  1.0000
  H   H19       1.0  0.04773712277040695  0.6857692965761405  0.5572942165734958  1.0000
  H   H20       1.0  0.8438005250300689  0.24485128000081613  0.25580114673214643  1.0000
  H   H21       1.0  0.10096115634208043  0.9954500230699213  0.9501968856249122  1.0000
  H   H22       1.0  0.2172962771310267  0.2135568221742191  0.05178608790161834  1.0000
  H   H23       1.0  0.21869702409360764  0.05934332916896781  0.2818030492279959  1.0000
  H   H24       1.0  0.15154586355873784  0.125056213483532  0.3195015631120626  1.0000
  H   H25       1.0  0.05480325842586348  0.8894664428897202  0.17766803893832872  1.0000
  H   H26       1.0  0.5945879485001981  0.3763366600314485  0.959110249257627  1.0000
  H   H27       1.0  0.07836594087771682  0.3422587402163658  0.7069686651071763  1.0000
  H   H28       1.0  0.799642845895704  0.6888015091692099  0.1929430298927812  1.0000
  H   H29       1.0  0.7223438150233149  0.34320282965239124  0.8903689490416938  1.0000
  H   H30       1.0  0.9841231849828207  0.6151468014487737  0.26069898455450885  1.0000
  H   H31       1.0  0.737963855333355  0.9583943975211898  0.06554595775608632  1.0000
  H   H32       1.0  0.7730343944624208  0.09637763167997099  0.12922122219938367  1.0000
  H   H33       1.0  0.6541752498840693  0.010627372831933697  0.033176619030747645  1.0000
  H   H34       1.0  0.7829739982230773  0.14014776629175435  0.9978699521790944  1.0000
  H   H35       1.0  0.7532523976896854  0.0038814137954689618  0.9393003930970352  1.0000
  H   H36       1.0  0.912980816986291  0.03678541722187841  0.059847510607241444  1.0000
  H   H37       1.0  0.9501241979132401  0.1767715663216194  0.1109951730584058  1.0000
  H   H38       1.0  0.5957815802453155  0.16096733711637518  0.9408778325110418  1.0000
  H   H39       1.0  0.4649127946192877  0.050147508878211684  0.8785065488251577  1.0000
  H   H40       1.0  0.5675732608329722  0.020834554449628204  0.9070537423358971  1.0000
  H   H41       1.0  0.5090167958767466  0.9892140112372165  0.7493820403905715  1.0000
  H   H42       1.0  0.6369984109247891  0.1031276967309793  0.811435726401477  1.0000
  H   H43       1.0  0.5630220952178391  0.23312360679960165  0.82154409651789  1.0000
  H   H44       1.0  0.43710555753475683  0.1167460821355705  0.758470081962585  1.0000
  H   H45       1.0  0.7652831023115567  0.9276420125212612  0.20955417442874597  1.0000
  H   H46       1.0  0.8419351692738957  0.9611642276687322  0.31962487750814733  1.0000
  H   H47       1.0  0.8202775625788236  0.06276948465509248  0.2935498760382417  1.0000
  H   H48       1.0  0.9999022303546778  0.10020982669528421  0.31390600574905386  1.0000
  H   H49       1.0  0.9248151230985541  0.06683861572385306  0.2046461832023142  1.0000
  H   H50       1.0  0.8828322965020164  0.8659225065264169  0.16261690734710754  1.0000
  H   H51       1.0  0.9667855398692352  0.9062798989939368  0.27137875391508004  1.0000
  H   H52       1.0  0.31496753898342444  0.894182213055068  0.8921521618278876  1.0000
  H   H53       1.0  0.38178031604959994  0.9773090402832667  0.007799619064251026  1.0000
  H   H54       1.0  0.39139097504600784  0.8581325879388192  0.9602302058872497  1.0000
  H   H55       1.0  0.2690784153133947  0.8178627872177415  0.03200803201826833  1.0000
  H   H56       1.0  0.20482473470110565  0.7339479105092438  0.9167099793264343  1.0000
  H   H57       1.0  0.14132717797638605  0.8643407230992255  0.8955061000084825  1.0000
  H   H58       1.0  0.20897412790453984  0.950248982852152  0.009114903726079187  1.0000
  C   C1        1.0  0.935979857178893  0.757317458610082  0.00993626912497089  1.0000
  C   C2        1.0  0.7246766553372481  0.27195376679240735  0.7573255744285134  1.0000
  C   C3        1.0  0.044354397398692014  0.48275769318803463  0.7216387020038227  1.0000
  C   C4        1.0  0.6582581274185912  0.5269397780225803  0.08589971378714271  1.0000
  C   C5        1.0  0.9591380887585288  0.530204838067512  0.21896586716121666  1.0000
  C   C6        1.0  0.16938505833670797  0.3902077209957966  0.045637679484897845  1.0000
  C   C7        1.0  0.2731408950737233  0.8334136439296745  0.19946557050075603  1.0000
  C   C8        1.0  0.960019684519963  0.12642428819925305  0.987666632867743  1.0000
  C   C9        1.0  0.04097316734878835  0.12737736420530893  0.8996443590318179  1.0000
  C   C10       1.0  0.15923301868414802  0.8137168031055994  0.25210632817091044  1.0000
  C   C11       1.0  0.901439566907399  0.35018531632497485  0.15800723905775277  1.0000
  C   C12       1.0  0.8120899552701812  0.27063804054832025  0.7468246261440612  1.0000
  C   C13       1.0  0.251113502180104  0.5722322564115317  0.0923612203273408  1.0000
  C   C14       1.0  0.9247088823341441  0.4354690031070876  0.23593218469012822  1.0000
  C   C15       1.0  0.26925245532620323  0.4834193222755375  0.08960473492542323  1.0000
  C   C16       1.0  0.2668427096224519  0.8802595868738694  0.278850536891767  1.0000
  C   C17       1.0  0.023827209228734426  0.08759598323987922  0.962109888791609  1.0000
  C   C18       1.0  0.4677459655617113  0.4182310784292156  0.039631502238343365  1.0000
  C   C19       1.0  0.5656429411876687  0.5108793272814509  0.099723824376845  1.0000
  C   C20       1.0  0.5617767923214386  0.5875225445477741  0.16792513442933915  1.0000
  C   C21       1.0  0.4672533898543065  0.5738939141116434  0.16846297884157488  1.0000
  C   C22       1.0  0.36802186032117845  0.484985121195493  0.10480198394363784  1.0000
  C   C23       1.0  0.05410706842690161  0.5548196244654947  0.8002029444344387  1.0000
  C   C24       1.0  0.37473781260788996  0.40629312881391405  0.04243693373169328  1.0000
  C   C25       1.0  0.3080966313133756  0.30461067587279456  0.954352758792794  1.0000
  C   C26       1.0  0.41339756255659665  0.3179006269690847  0.9512298774711709  1.0000
  C   C27       1.0  0.3514110494493962  0.9719094579887299  0.36161206574864474  1.0000
  C   C28       1.0  0.6220036632883676  0.21664698461350465  0.6828161843826736  1.0000
  C   C29       1.0  0.43742582899987775  0.07468437553537656  0.6068874850606748  1.0000
  C   C30       1.0  0.5259298712459782  0.14775097831024936  0.6847485530782721  1.0000
  C   C31       1.0  0.6163037223248367  0.21506397969659471  0.6015648870334829  1.0000
  C   C32       1.0  0.5278030939281066  0.14201722593237795  0.5205986661011225  1.0000
  C   C33       1.0  0.43704810933995464  0.06605878657325806  0.5240608769457965  1.0000
  C   C34       1.0  0.6590187100977046  0.45453031615078043  0.012578335711921854  1.0000
  C   C35       1.0  0.35225487532105143  0.9825600510344402  0.4432609029722557  1.0000
  C   C36       1.0  0.44118258025721946  0.05407250550890547  0.3614118639562776  1.0000
  C   C37       1.0  0.52692287690315  0.13616294487799518  0.43790354892257716  1.0000
  C   C38       1.0  0.014862218319571076  0.4881808438869514  0.6368160325168687  1.0000
  C   C39       1.0  0.9211852781219676  0.4251025856803994  0.31584537111969274  1.0000
  C   C40       1.0  0.8894113905308032  0.3068355284715168  0.3941563547445314  1.0000
  C   C41       1.0  0.8809307884831552  0.31871960327145393  0.317576670321536  1.0000
  C   C42       1.0  0.9621174116904355  0.5156858084698115  0.39531116222141804  1.0000
  C   C43       1.0  0.9741887534481675  0.5090087553473737  0.47628805900890814  1.0000
  C   C44       1.0  0.9399784219358338  0.4014065079981465  0.4761404851200978  1.0000
  C   C45       1.0  0.07343219337562351  0.4111548841696406  0.7464231678687839  1.0000
  C   C46       1.0  0.961174986757804  0.3938966326467794  0.5574273572758203  1.0000
  C   C47       1.0  0.043287841144760184  0.5937367561712036  0.6352542948350646  1.0000
  C   C48       1.0  0.023415293635821437  0.6042732451691181  0.5574252817828552  1.0000
  C   C49       1.0  0.048966231128659395  0.007614409109166335  0.12571555709183  1.0000
  C   C50       1.0  0.03654248565045039  0.9615188266668682  0.0397304850691356  1.0000
  C   C51       1.0  0.084668772596288  0.038561494146989596  0.0021820890169905976  1.0000
  C   C52       1.0  0.1857787579846075  0.1536601181072328  0.07735819767703589  1.0000
  C   C53       1.0  0.20730781213707417  0.17826274070734632  0.16161976914403914  1.0000
  C   C54       1.0  0.14456655304785213  0.11065944825814705  0.18822251234961127  1.0000
  C   C55       1.0  0.1520580310178161  0.07236786666988594  0.2608442974523442  1.0000
  C   C56       1.0  0.7625215192664426  0.6142452933157686  0.13199529473880747  1.0000
  C   C57       1.0  0.04542731317878434  0.9628901126815422  0.1952378319086848  1.0000
  C   C58       1.0  0.7584405904881278  0.31857616600470345  0.8492986135456205  1.0000
  C   C59       1.0  0.07118567276181395  0.80319810503984  0.974783434341539  1.0000
  C   C60       1.0  0.009992906780190878  0.8453857924277346  0.0024540494563468217  1.0000
  C   C61       1.0  0.9070309567922334  0.10419116365914508  0.04622117417810058  1.0000
  C   C62       1.0  0.7915331705761872  0.07093179900214615  0.006225295068475152  1.0000
  C   C63       1.0  0.7360691773594611  0.03207321737998833  0.061311056421999445  1.0000
  C   C64       1.0  0.5191654173437639  0.14775928374856293  0.769394041313859  1.0000
  C   C65       1.0  0.5556648838550728  0.07492098612051735  0.8016252218718877  1.0000
  C   C66       1.0  0.5455671188789422  0.0768013605910626  0.8866376135120575  1.0000
  C   C67       1.0  0.9535678514482272  0.9365649893594041  0.22026270723160488  1.0000
  C   C68       1.0  0.9325665430857341  0.03178555644009865  0.25292725574570346  1.0000
  C   C69       1.0  0.834808440744709  0.9940047396858349  0.2698268909116949  1.0000
  C   C70       1.0  0.16599623825533158  0.8626400939849578  0.9604778807419478  1.0000
  C   C71       1.0  0.2427868433633975  0.8193631715444669  0.9674533619103586  1.0000
  C   C72       1.0  0.3380743803075104  0.8913637722407302  0.9564366067565473  1.0000
  N   N1        1.0  0.9513756150335269  0.669500345478973  0.9907055303280501  1.0000
  N   N2        1.0  0.09630055565835252  0.41979225539306253  0.01795492460858841  1.0000
  N   N3        1.0  0.18270487108646458  0.7513683501896936  0.13432756308287008  1.0000
  N   N4        1.0  0.9445926303539095  0.1878341353448932  0.9449176319194451  1.0000
  N   N5        1.0  0.9945865393668784  0.18805948541894  0.8900867277824105  1.0000
  N   N6        1.0  0.10931313287542105  0.7390708347350812  0.16808394374095303  1.0000
  N   N7        1.0  0.920316066173463  0.3912484625094379  0.10004484664705167  1.0000
  N   N8        1.0  0.14876567277934782  0.5334783938960755  0.049021789859153925  1.0000
  N   N9        1.0  0.8892406618374691  0.3104583045525617  0.8253843777627027  1.0000
  N   N10       1.0  0.08682980668947964  0.5292935244645992  0.8665319943016173  1.0000
  N   N11       1.0  0.7535587850646195  0.49415703664091387  0.013607762683307158  1.0000
  N   N12       1.0  0.0999321172609484  0.4397846394700411  0.8338301332273091  1.0000
  N   N13       1.0  0.8174622085858303  0.5933744175509476  0.08754865824347764  1.0000
  N   N14       1.0  0.8572459862681683  0.34077924604518745  0.8892438572836953  1.0000
  N   N15       1.0  0.034153668424146084  0.6983916410974519  0.9683749831346589  1.0000
  N   N16       1.0  0.9561691478182652  0.5029595886480679  0.13777991493167732  1.0000
  F   F1        1.0  0.3604411475978608  0.8615341782814598  0.18541327983059122  1.0000
  F   F2        1.0  0.1027275340321978  0.8200678273539241  0.2983153140564029  1.0000
  F   F3        1.0  0.4712099800473837  0.6562706605575316  0.23401992109381817  1.0000
  F   F4        1.0  0.2695201636354271  0.9055777465296873  0.4479057401672081  1.0000
  F   F5        1.0  0.7039903381867845  0.28427122772611596  0.5967701041899433  1.0000
  F   F6        1.0  0.9989875238883669  0.6200102525264557  0.3981708589778209  1.0000
