data_image0
_chemical_formula_structural       Zr6H26C50Br10O32
_chemical_formula_sum              "Zr6 H26 C50 Br10 O32"
_cell_length_a       14.835083827731228
_cell_length_b       14.796646360434478
_cell_length_c       14.82442573067572
_cell_angle_alpha    59.18917183442678
_cell_angle_beta     59.85839345935171
_cell_angle_gamma    60.06533740123779

_space_group_name_H-M_alt    "P 1"
_space_group_IT_number       1

loop_
  _space_group_symop_operation_xyz
  'x, y, z'

loop_
  _atom_site_type_symbol
  _atom_site_label
  _atom_site_symmetry_multiplicity
  _atom_site_fract_x
  _atom_site_fract_y
  _atom_site_fract_z
  _atom_site_occupancy
  Zr  Zr1       1.0  0.8825621758888504  0.8786607529989184  0.6149921140598096  1.0000
  Zr  Zr2       1.0  0.12477316633039245  0.11669321304798069  0.37695773266234056  1.0000
  Zr  Zr3       1.0  0.12071339547770779  0.8742198004896053  0.6196302613844225  1.0000
  Zr  Zr4       1.0  0.8864374505291083  0.12053649853633891  0.37321944208390084  1.0000
  Zr  Zr5       1.0  0.12224053090448458  0.8791717016119308  0.37773478121876297  1.0000
  Zr  Zr6       1.0  0.8853799959389832  0.11602222208122735  0.6145819519696687  1.0000
  H   H1        1.0  0.09365409260892955  0.7137682512654777  0.5937185866804882  1.0000
  H   H2        1.0  0.09994103118346233  0.09521345953050542  0.21245005377601703  1.0000
  H   H3        1.0  0.09793199112011317  0.08836466022475528  0.592476312085452  1.0000
  H   H4        1.0  0.7225254033080689  0.09381918210203118  0.586893593332114  1.0000
  H   H5        1.0  0.13696417565363825  0.598582943794817  0.3545789770268044  1.0000
  H   H6        1.0  0.8585910570187566  0.40968633874657473  0.623874139614216  1.0000
  H   H7        1.0  0.6066094867292479  0.1278896245409342  0.9060886252609777  1.0000
  H   H8        1.0  0.4116748736287266  0.8554904308542959  0.09764819735442405  1.0000
  H   H9        1.0  0.8568095701610048  0.12557955728419065  0.09810727493379556  1.0000
  H   H10       1.0  0.13490459242166233  0.8539122805170152  0.9100567240047965  1.0000
  H   H11       1.0  0.6019311062118149  0.411178755576451  0.3529505147065208  1.0000
  H   H12       1.0  0.4191543580495249  0.5977674681089981  0.6261185553034493  1.0000
  H   H13       1.0  0.07930982995853249  0.3232090108871476  0.9813490746578849  1.0000
  H   H14       1.0  0.16866252179231372  0.35046814910008106  0.0038584633133780283  1.0000
  H   H15       1.0  0.16579724994561937  0.5089945034235228  0.8434043675364792  1.0000
  H   H16       1.0  0.07456267098503136  0.4818587570429075  0.823485537801069  1.0000
  H   H17       1.0  0.0910435104820166  0.6243580221302312  0.9600757581731685  1.0000
  H   H18       1.0  0.9475893589012685  0.6825627659369361  0.019412419260014177  1.0000
  H   H19       1.0  0.0898170388300343  0.46625654145567813  0.1223367396937789  1.0000
  H   H20       1.0  0.9458839613548805  0.524056983707219  0.1788652798938203  1.0000
  H   H21       1.0  0.8728217855475507  0.40430267865143316  0.06379530155313533  1.0000
  H   H22       1.0  0.8167293985257944  0.4836818825870565  0.14731884654484892  1.0000
  H   H23       1.0  0.81519905313224  0.6458373577181504  0.9900189949531111  1.0000
  H   H24       1.0  0.866580503289555  0.5667601198149583  0.9077720300323975  1.0000
  H   H25       1.0  0.6036177076297093  0.8565550497559898  0.6291798806996027  1.0000
  H   H26       1.0  0.4115516927787723  0.13074618168464275  0.35504412522241324  1.0000
  C   C1        1.0  0.9928399316788018  0.7003076410236846  0.49545596671227826  1.0000
  C   C2        1.0  0.31214820762536283  0.9973196727166215  0.19851603370572962  1.0000
  C   C3        1.0  0.006593092053918774  0.3037159508340182  0.48760299775406674  1.0000
  C   C4        1.0  0.7028309630844017  0.9896923177997864  0.8019074818169045  1.0000
  C   C5        1.0  0.9958880355099425  0.6958080528092125  0.8081376104844508  1.0000
  C   C6        1.0  0.7037414883308203  0.0022365739704071075  0.4850321881772076  1.0000
  C   C7        1.0  0.00031191542407073156  0.30951575093408934  0.19396645454551018  1.0000
  C   C8        1.0  0.3099178879483236  0.9863628250562969  0.5007744375060882  1.0000
  C   C9        1.0  0.30878359808835415  0.6960576491054695  0.4911922960981698  1.0000
  C   C10       1.0  0.9923499982679973  0.9934864397575112  0.807157971560038  1.0000
  C   C11       1.0  0.7077455339751  0.30809290079771756  0.4926880142177836  1.0000
  C   C12       1.0  0.005054460555022974  0.992105604408458  0.19497184905697654  1.0000
  C   C13       1.0  0.0065476076226361445  0.4070636057255825  0.4834572555628469  1.0000
  C   C14       1.0  0.9896771835046395  0.6004477652770321  0.49581328554302234  1.0000
  C   C15       1.0  0.08594991362237185  0.4613998596345042  0.40622793100741456  1.0000
  C   C16       1.0  0.9098611945482064  0.5465666657357106  0.5725546060698008  1.0000
  C   C17       1.0  0.07604559992771717  0.5562021115383686  0.4135076262987951  1.0000
  C   C18       1.0  0.919599210117866  0.4519765423327371  0.5650413023705738  1.0000
  C   C19       1.0  0.414246384467255  0.9983092830100304  0.09814671048839343  1.0000
  C   C20       1.0  0.6033578492377389  0.9858090167578198  0.9049991207622128  1.0000
  C   C21       1.0  0.47013787554902825  0.07615343190816766  0.04328506110527292  1.0000
  C   C22       1.0  0.5474618582407589  0.9079542020508101  0.9598237204616495  1.0000
  C   C23       1.0  0.5627699102774812  0.06840235600085263  0.9489823483141535  1.0000
  C   C24       1.0  0.45530284592557274  0.9151960526085362  0.054630638123597974  1.0000
  C   C25       1.0  0.9882817830206393  0.9948298207241563  0.909638692229123  1.0000
  C   C26       1.0  0.004448597382769143  0.9857794590051585  0.09742948849002894  1.0000
  C   C27       1.0  0.9083596675963221  0.07213273360989789  0.9639808582227829  1.0000
  C   C28       1.0  0.0831900400483504  0.9071472307412523  0.044402978046264266  1.0000
  C   C29       1.0  0.9178966461275593  0.06630866922505878  0.05566721440837349  1.0000
  C   C30       1.0  0.07389903860449454  0.9132412890594637  0.9524389970234849  1.0000
  C   C31       1.0  0.4128204863516416  0.5980594400918946  0.48532611856702357  1.0000
  C   C32       1.0  0.6075104543254071  0.4100666995218844  0.49459669041782217  1.0000
  C   C33       1.0  0.4658999071572867  0.545216873039614  0.4064911066330765  1.0000
  C   C34       1.0  0.5552444742481698  0.463782240261594  0.5725298240094927  1.0000
  C   C35       1.0  0.5609914627082162  0.45323511591882937  0.4126249368467257  1.0000
  C   C36       1.0  0.46006527051042667  0.5556547037562183  0.5664986130523104  1.0000
  C   C37       1.0  0.08951263434000366  0.3868424626931245  0.9900271194458127  1.0000
  C   C38       1.0  0.08722124867038183  0.49260917808680915  0.8840407006760104  1.0000
  C   C39       1.0  0.9926111029323366  0.594663173127664  0.914747600759931  1.0000
  C   C40       1.0  0.012449127892572983  0.6085851892707766  0.9990743078352295  1.0000
  C   C41       1.0  0.012219225417467823  0.5031281652689189  0.10562798251095983  1.0000
  C   C42       1.0  0.9950158545520863  0.4162180505701232  0.09286984921642034  1.0000
  C   C43       1.0  0.8845433659497741  0.46632844960424075  0.07310846414355157  1.0000
  C   C44       1.0  0.882363394636862  0.5732907797077331  0.9687234110629036  1.0000
  C   C45       1.0  0.41182933893504303  0.98489208503581  0.501011825410771  1.0000
  C   C46       1.0  0.6030682598550428  0.0026055704948576624  0.4834674828048691  1.0000
  C   C47       1.0  0.4670935319210588  0.9066926841195058  0.5793384971263651  1.0000
  C   C48       1.0  0.5477040725546163  0.0809630688179723  0.4052539880181314  1.0000
  C   C49       1.0  0.560487442387519  0.9166813749285865  0.5692032620103334  1.0000
  C   C50       1.0  0.4545179977595454  0.07074161570101004  0.4151829257280753  1.0000
  Br  Br1       1.0  0.21123825315137895  0.4152261745470014  0.2895679118305737  1.0000
  Br  Br2       1.0  0.7851944268520089  0.5919860975838988  0.6899733318423387  1.0000
  Br  Br3       1.0  0.4298885446327745  0.195730973110571  0.0867094621929425  1.0000
  Br  Br4       1.0  0.5860071978317336  0.7902309493165024  0.9146744160389348  1.0000
  Br  Br5       1.0  0.7832357444217382  0.18797874703660256  0.9238504203296857  1.0000
  Br  Br6       1.0  0.2063561276591771  0.7890269051263346  0.08675403502435594  1.0000
  Br  Br7       1.0  0.4189461380435588  0.5879240073373923  0.2878797317513461  1.0000
  Br  Br8       1.0  0.6033740096475455  0.4223334208800511  0.6898375890840214  1.0000
  Br  Br9       1.0  0.42465717638255296  0.7839756873602469  0.7029648723042639  1.0000
  Br  Br10      1.0  0.5893264371003967  0.2045211080252826  0.2825245075223322  1.0000
  O   O1        1.0  0.9185696009230854  0.7392748945742866  0.5723103594377434  1.0000
  O   O2        1.0  0.2708042630631767  0.07388298034664594  0.23781049732806286  1.0000
  O   O3        1.0  0.08387027060345534  0.26138964398369074  0.41408737136529067  1.0000
  O   O4        1.0  0.7412553200996687  0.9162531739902635  0.7595522688216078  1.0000
  O   O5        1.0  0.07608659607959145  0.7323928818139221  0.7658003344737523  1.0000
  O   O6        1.0  0.7441177181549462  0.07983615377212781  0.40966014990979005  1.0000
  O   O7        1.0  0.9267293255619723  0.26535901411293855  0.2328562884574624  1.0000
  O   O8        1.0  0.26728628286378636  0.9110349339157012  0.578480488794888  1.0000
  O   O9        1.0  0.26580289741161073  0.7366432884165165  0.41702210083936114  1.0000
  O   O10       1.0  0.9199828181313165  0.0717995181226314  0.7623483342671165  1.0000
  O   O11       1.0  0.7471925818258143  0.26369843356219735  0.5705127898512785  1.0000
  O   O12       1.0  0.08197777450913434  0.9183703146869392  0.23515630492708078  1.0000
  O   O13       1.0  0.06931218685470253  0.9157934275120356  0.7706042565209188  1.0000
  O   O14       1.0  0.7449343263888935  0.2716477433749278  0.4149412098155452  1.0000
  O   O15       1.0  0.9296421572327562  0.07148740369159155  0.22975981528763598  1.0000
  O   O16       1.0  0.2700487196644941  0.7309195720629519  0.5705476493676541  1.0000
  O   O17       1.0  0.9218786722265405  0.7359129976641655  0.7653623800377644  1.0000
  O   O18       1.0  0.27229073898045913  0.06487782344721887  0.4226333405014416  1.0000
  O   O19       1.0  0.07832059255319741  0.2684618292307661  0.2318400813240657  1.0000
  O   O20       1.0  0.7409579311365848  0.9241339387604699  0.5635870561319933  1.0000
  O   O21       1.0  0.7411860032350647  0.06750891605994272  0.7630146781061596  1.0000
  O   O22       1.0  0.07143152947391948  0.737802499974876  0.41915028281407274  1.0000
  O   O23       1.0  0.27267857163840176  0.9207025119888215  0.2362549988199945  1.0000
  O   O24       1.0  0.9296419103947146  0.2645370123529603  0.5657650485754362  1.0000
  O   O25       1.0  0.8024394020750167  0.06695537670569957  0.560601336269329  1.0000
  O   O26       1.0  0.07120872164804845  0.06204530522681744  0.5655781385361465  1.0000
  O   O27       1.0  0.0730234377220711  0.0665756890579416  0.2931422746785231  1.0000
  O   O28       1.0  0.06856085425197024  0.7944395960640095  0.5652003991365716  1.0000
  O   O29       1.0  0.15189393679121851  0.9465560295950368  0.44899736623322895  1.0000
  O   O30       1.0  0.9538722822738848  0.9501429129320731  0.44501573349161566  1.0000
  O   O31       1.0  0.9561519797338249  0.14720861064059673  0.444943972490357  1.0000
  O   O32       1.0  0.9529638592720533  0.9463857520667173  0.6457306089089914  1.0000
