data_image0
_chemical_formula_structural       Fe2H20Au4C28N12
_chemical_formula_sum              "Fe2 H20 Au4 C28 N12"
_cell_length_a       6.958414375524117
_cell_length_b       8.33694682962099
_cell_length_c       13.898919448451956
_cell_angle_alpha    89.99355365646174
_cell_angle_beta     90.00535283569192
_cell_angle_gamma    97.20767119455692

_space_group_name_H-M_alt    "P 1"
_space_group_IT_number       1

loop_
  _space_group_symop_operation_xyz
  'x, y, z'

loop_
  _atom_site_type_symbol
  _atom_site_label
  _atom_site_symmetry_multiplicity
  _atom_site_fract_x
  _atom_site_fract_y
  _atom_site_fract_z
  _atom_site_occupancy
  Fe  Fe1       1.0  0.9895575051945328  0.9960504358875397  0.9857981391187849  1.0000
  Fe  Fe2       1.0  0.9894778723619594  0.49616172359456817  0.5142180513238728  1.0000
  H   H1        1.0  0.18026718681456802  0.4791982108383407  0.8321664115720893  1.0000
  H   H2        1.0  0.8203672467742749  0.9975100235827838  0.33784437793902106  1.0000
  H   H3        1.0  0.8201976117376973  0.49735387340587756  0.16211679336039  1.0000
  H   H4        1.0  0.18011372819409388  0.9791962165208757  0.6678502929240794  1.0000
  H   H5        1.0  0.05771132135350848  0.7478091799171764  0.8373557902533477  1.0000
  H   H6        1.0  0.9330099306222907  0.7261386833170319  0.35631137472353913  1.0000
  H   H7        1.0  0.9329166152329762  0.22601745506377569  0.14368811672228082  1.0000
  H   H8        1.0  0.05755211162957609  0.2477979573951146  0.6626584967075431  1.0000
  H   H9        1.0  0.30972941093945383  0.3684580586077999  0.9839140165800302  1.0000
  H   H10       1.0  0.6876694508394366  0.12763058577925077  0.48243220228137323  1.0000
  H   H11       1.0  0.6875830925167747  0.6275218311248024  0.0175006329384715  1.0000
  H   H12       1.0  0.30976859080933383  0.8686100752308688  0.5161189090375728  1.0000
  H   H13       1.0  0.18554100888709968  0.8029206402471161  0.12736141881343602  1.0000
  H   H14       1.0  0.8069265259370583  0.7134996506439605  0.6475177687054412  1.0000
  H   H15       1.0  0.807095620978096  0.21349482611540077  0.8524478366538375  1.0000
  H   H16       1.0  0.1856331559704785  0.3031499522947669  0.37269389806170494  1.0000
  H   H17       1.0  0.31482530909722334  0.5372617095785444  0.13403273107689984  1.0000
  H   H18       1.0  0.6800641517259364  0.9801111769519649  0.640131317231976  1.0000
  H   H19       1.0  0.6801980889110836  0.4800819670801245  0.859791307280311  1.0000
  H   H20       1.0  0.3150039385026631  0.03754221440573959  0.3660361168298678  1.0000
  Au  Au1       1.0  0.5368706325588449  0.2619491607525859  0.252510265832349  1.0000
  Au  Au2       1.0  0.4770142261355447  0.24979618521028604  0.7412882660926599  1.0000
  Au  Au3       1.0  0.4770061594588099  0.7498939426233873  0.7587021023664918  1.0000
  Au  Au4       1.0  0.5368780486051462  0.7619159852697234  0.24748639159605554  1.0000
  C   C1        1.0  0.3466135565633622  0.16183949774675446  0.1577313816861192  1.0000
  C   C2        1.0  0.678610956387722  0.3539486397738115  0.6531228409391261  1.0000
  C   C3        1.0  0.6786800180407297  0.8539504546996992  0.8468597422868386  1.0000
  C   C4        1.0  0.3465448902654559  0.66195103678087  0.3422783527848097  1.0000
  C   C5        1.0  0.7227195641379681  0.8589784096896477  0.14966181576575371  1.0000
  C   C6        1.0  0.2802396705453631  0.6461935796243949  0.6668752174997155  1.0000
  C   C7        1.0  0.28031187713817474  0.14607649542188028  0.8331360939232297  1.0000
  C   C8        1.0  0.7227170554698787  0.3590947587177737  0.35030593060288606  1.0000
  C   C9        1.0  0.1868961291146292  0.5475724733810807  0.8989981184851813  1.0000
  C   C10       1.0  0.81039765359386  0.9373164638482123  0.40748550012323653  1.0000
  C   C11       1.0  0.8103356069178175  0.43718686174941  0.09247514693476691  1.0000
  C   C12       1.0  0.18678604607889326  0.0476114647655024  0.6010264928243316  1.0000
  C   C13       1.0  0.11787309422030748  0.6973194902850748  0.9011503135378974  1.0000
  C   C14       1.0  0.8750601252608804  0.7868044895983528  0.4170291008875254  1.0000
  C   C15       1.0  0.8750216343069966  0.2866910915638883  0.08295323676500739  1.0000
  C   C16       1.0  0.11777544863564059  0.1973577083714345  0.5988733175332328  1.0000
  C   C17       1.0  0.25892912137995694  0.48662345807904467  0.9829114081063111  1.0000
  C   C18       1.0  0.7375303059164225  0.009486240442456098  0.48762072440381143  1.0000
  C   C19       1.0  0.7375043224842416  0.5093944404339155  0.012327199292883501  1.0000
  C   C20       1.0  0.25893484849570564  0.9867509267801112  0.5171308457314865  1.0000
  C   C21       1.0  0.1887634960749978  0.7275460317001716  0.0636325958512813  1.0000
  C   C22       1.0  0.8040446423920926  0.7794697249681661  0.5800870967239719  1.0000
  C   C23       1.0  0.8041455691026299  0.279435356395183  0.9198765688799215  1.0000
  C   C24       1.0  0.18882336515343917  0.22775026903062917  0.4364210267691463  1.0000
  C   C25       1.0  0.26080617702024966  0.5797480705087209  0.0662476811780977  1.0000
  C   C26       1.0  0.7339732409595571  0.9279806159915506  0.5751121377014954  1.0000
  C   C27       1.0  0.7340168835541759  0.42792089401043387  0.9248318777618537  1.0000
  C   C28       1.0  0.2608962762830275  0.07996622434934147  0.4338105262357388  1.0000
  N   N1        1.0  0.2329239350645409  0.10313245530390697  0.1018501339826443  1.0000
  N   N2        1.0  0.8008973683757645  0.4129475485025508  0.6011059684141955  1.0000
  N   N3        1.0  0.800986616536818  0.912903599581611  0.8988876509275487  1.0000
  N   N4        1.0  0.2329225130443504  0.6033030028673636  0.3981842121651411  1.0000
  N   N5        1.0  0.8299708372528158  0.9125721839013038  0.0892354875246681  1.0000
  N   N6        1.0  0.16374713152169554  0.5869105830536725  0.6120753020328848  1.0000
  N   N7        1.0  0.1638433027053665  0.08680166098084639  0.8879461386373251  1.0000
  N   N8        1.0  0.829917789407581  0.41270131175750174  0.41075806250167096  1.0000
  N   N9        1.0  0.11610026087927845  0.7853244443113991  0.982276478741227  1.0000
  N   N10       1.0  0.8743274607108872  0.7095054466587597  0.5023190302411251  1.0000
  N   N11       1.0  0.8743569309873679  0.2094253355044273  0.9976601631922435  1.0000
  N   N12       1.0  0.1160717030023619  0.2854367131507729  0.517755933748866  1.0000
