data_image0
_chemical_formula_structural       Cd2H28C36S2N8O10
_chemical_formula_sum              "Cd2 H28 C36 S2 N8 O10"
_cell_length_a       10.549696899940281
_cell_length_b       10.382974036555915
_cell_length_c       10.782791017917306
_cell_angle_alpha    108.02153503178988
_cell_angle_beta     109.96116508752334
_cell_angle_gamma    103.72324399750374

_space_group_name_H-M_alt    "P 1"
_space_group_IT_number       1

loop_
  _space_group_symop_operation_xyz
  'x, y, z'

loop_
  _atom_site_type_symbol
  _atom_site_label
  _atom_site_symmetry_multiplicity
  _atom_site_fract_x
  _atom_site_fract_y
  _atom_site_fract_z
  _atom_site_occupancy
  Cd  Cd1       1.0  0.6101221508122165  0.7462397142331909  0.730668981589126  1.0000
  Cd  Cd2       1.0  0.3898784279031489  0.25375870449150273  0.2693303931238872  1.0000
  H   H1        1.0  0.042358614310288076  0.3122360331869061  0.5828410468084185  1.0000
  H   H2        1.0  0.9576475482764834  0.6877689501628693  0.41716301003221173  1.0000
  H   H3        1.0  0.8199584961531626  0.3679812588216578  0.6162387145645025  1.0000
  H   H4        1.0  0.1800462071004745  0.6320226219428237  0.38376268802628727  1.0000
  H   H5        1.0  0.46127191147571955  0.9577292780590478  0.6043748103175941  1.0000
  H   H6        1.0  0.538727331019338  0.04226037936766149  0.39562524144029954  1.0000
  H   H7        1.0  0.6020931004694886  0.25705599787476524  0.6999452009282335  1.0000
  H   H8        1.0  0.39789811128927965  0.7429337244870949  0.30005320019316156  1.0000
  H   H9        1.0  0.8889197699434987  0.0957237868795744  0.9334794636381144  1.0000
  H   H10       1.0  0.1110820711190427  0.9042779151714198  0.06652036649966657  1.0000
  H   H11       1.0  0.743133352898717  0.46818946648902227  0.9491807027660142  1.0000
  H   H12       1.0  0.25686194104192583  0.5318056980698173  0.05081692419814488  1.0000
  H   H13       1.0  0.06070927847927266  0.28330048923836415  0.9101015535833309  1.0000
  H   H14       1.0  0.9392835505213526  0.7166935800252929  0.08989309604996967  1.0000
  H   H15       1.0  0.5004984518111613  0.5818731602804305  0.9224606613623079  1.0000
  H   H16       1.0  0.4995060370585661  0.4181274497104609  0.07754341091974472  1.0000
  H   H17       1.0  0.6530556033269406  0.6643553682193966  0.22192636888385653  1.0000
  H   H18       1.0  0.3469499791416055  0.33565071906734534  0.7780778280212386  1.0000
  H   H19       1.0  0.8626072766151934  0.9792225664628303  0.10726740678057202  1.0000
  H   H20       1.0  0.137395116327987  0.020778018422653595  0.8927304152694189  1.0000
  H   H21       1.0  0.748064147307751  0.8480491400326783  0.44073095909447324  1.0000
  H   H22       1.0  0.2519409531969501  0.15195582415011438  0.55926903861846  1.0000
  H   H23       1.0  0.06397458079509019  0.023702396315414397  0.30405281330825307  1.0000
  H   H24       1.0  0.9360279283776122  0.9763036863845685  0.6959466783071021  1.0000
  H   H25       1.0  0.5697079393418676  0.6150823312978345  0.4306006607402393  1.0000
  H   H26       1.0  0.43029006216029597  0.38491721255832095  0.569399141886862  1.0000
  H   H27       1.0  0.41395725102597686  0.5819786375221979  0.4225888609650281  1.0000
  H   H28       1.0  0.5860398853800746  0.4180187064259755  0.5774090813594481  1.0000
  C   C1        1.0  0.30085959218132524  0.5621271343071185  0.6712653813988038  1.0000
  C   C2        1.0  0.6991449846803306  0.4378789602697352  0.3287384924252662  1.0000
  C   C3        1.0  0.16157066764694145  0.5477470319986821  0.6802283809546663  1.0000
  C   C4        1.0  0.8384334837260567  0.4522579659313166  0.3197750297239208  1.0000
  C   C5        1.0  0.04309702674706974  0.42109312172267005  0.6325570252169752  1.0000
  C   C6        1.0  0.9569076906253571  0.57891076565609  0.3674453113854879  1.0000
  C   C7        1.0  0.9253918214113737  0.4509797874430531  0.6507784908621798  1.0000
  C   C8        1.0  0.07460800843739425  0.5490219291881572  0.34922069311356535  1.0000
  C   C9        1.0  0.9567569219009612  0.600136302682273  0.7148731865970318  1.0000
  C   C10       1.0  0.04324374480633248  0.39986760062839  0.285125989658006  1.0000
  C   C11       1.0  0.8609569495485017  0.6741736164320784  0.7464986897206384  1.0000
  C   C12       1.0  0.13903955026412967  0.32582480499597466  0.2534956566216166  1.0000
  C   C13       1.0  0.5708596045148582  0.03129581105871179  0.6875890648529788  1.0000
  C   C14       1.0  0.4291369343750232  0.9686971853118249  0.31241388605227616  1.0000
  C   C15       1.0  0.63863784756591  0.1795849142649928  0.7354568916092032  1.0000
  C   C16       1.0  0.361356071754372  0.8204091873941904  0.2645436851751341  1.0000
  C   C17       1.0  0.7914105240000567  0.09523823606399867  0.8543719080075646  1.0000
  C   C18       1.0  0.2085882122499  0.9047580032713681  0.14562715134513826  1.0000
  C   C19       1.0  0.8906396047956516  0.36126240168074014  0.9215959258373158  1.0000
  C   C20       1.0  0.10935568914499065  0.6387327628780993  0.07840170112684314  1.0000
  C   C21       1.0  0.8551911264264475  0.4824649042029208  0.9701516705420726  1.0000
  C   C22       1.0  0.1448021845380154  0.5175302881646786  0.029847178283382857  1.0000
  C   C23       1.0  0.03479542387150758  0.37832840374665716  0.9509283555163531  1.0000
  C   C24       1.0  0.9651998700691351  0.6216667608121824  0.04906927144780584  1.0000
  C   C25       1.0  0.5972980040417255  0.6772653876715253  0.005705362028621145  1.0000
  C   C26       1.0  0.40270401988797744  0.3227341270241837  0.9942957329225662  1.0000
  C   C27       1.0  0.6683667540987627  0.7175613933730175  0.15275002739647184  1.0000
  C   C28       1.0  0.33163759426019357  0.28244142381596743  0.8472555821071805  1.0000
  C   C29       1.0  0.7829043893549965  0.8814613079435529  0.09408189169204208  1.0000
  C   C30       1.0  0.2170962034791657  0.11853711739541238  0.9059184170326443  1.0000
  C   C31       1.0  0.8938319195810605  0.926549013228623  0.3556530707274416  1.0000
  C   C32       1.0  0.10616859249665818  0.07345709066586177  0.6443467087375365  1.0000
  C   C33       1.0  0.8582480129498007  0.9143122407933572  0.4663079586658082  1.0000
  C   C34       1.0  0.1417550763411271  0.08569273796966569  0.5336913928850817  1.0000
  C   C35       1.0  0.0354425386375752  0.012422322799991994  0.3892430555644636  1.0000
  C   C36       1.0  0.9645599564163232  0.9875837532857257  0.610755502039218  1.0000
  S   S1        1.0  0.12940849580832034  0.7029104713810667  0.7497657962968203  1.0000
  S   S2        1.0  0.8705901455664034  0.2970934398955407  0.25023179978450816  1.0000
  N   N1        1.0  0.6668817994913777  0.9806811246264995  0.7622433818772546  1.0000
  N   N2        1.0  0.3331189479723591  0.019315100128636704  0.23775632363749108  1.0000
  N   N3        1.0  0.7788653322741225  0.21866710005306791  0.8410556959563207  1.0000
  N   N4        1.0  0.22112997578531685  0.7813280711200433  0.15894286501950453  1.0000
  N   N5        1.0  0.6694855632586396  0.7796902243734821  0.9707773715082835  1.0000
  N   N6        1.0  0.330517905885408  0.22031038629324942  0.02922544368107788  1.0000
  N   N7        1.0  0.7863392130688567  0.8477200050972228  0.2080674566570408  1.0000
  N   N8        1.0  0.21366390445966493  0.1522849868943439  0.791933762917189  1.0000
  O   O1        1.0  0.511224602775769  0.6628502830420755  0.4705860760095175  1.0000
  O   O2        1.0  0.48877239311951126  0.3371492681041912  0.5294134035365586  1.0000
  O   O3        1.0  0.3756807417229239  0.6887325449724384  0.688879811022154  1.0000
  O   O4        1.0  0.6243212014503426  0.3112746482787898  0.31112075466932504  1.0000
  O   O5        1.0  0.3360150673757047  0.45130136663973275  0.649501707005484  1.0000
  O   O6        1.0  0.6639913801889533  0.5487069205549984  0.3505043502022358  1.0000
  O   O7        1.0  0.9106375741464916  0.8124259374025937  0.8147096491609956  1.0000
  O   O8        1.0  0.08936099335510758  0.1875724959023231  0.18528907938997455  1.0000
  O   O9        1.0  0.7263479118961766  0.5906927671159746  0.6990525172565395  1.0000
  O   O10       1.0  0.27364871430843607  0.4093034404997054  0.30093935785244225  1.0000
