data_image0
_chemical_formula_structural       Zn2H36C44N24O12
_chemical_formula_sum              "Zn2 H36 C44 N24 O12"
_cell_length_a       8.492435328269263
_cell_length_b       10.961130207923475
_cell_length_c       14.297829657254919
_cell_angle_alpha    82.3274052017527
_cell_angle_beta     79.42274675114918
_cell_angle_gamma    88.59334164527164

_space_group_name_H-M_alt    "P 1"
_space_group_IT_number       1

loop_
  _space_group_symop_operation_xyz
  'x, y, z'

loop_
  _atom_site_type_symbol
  _atom_site_label
  _atom_site_symmetry_multiplicity
  _atom_site_fract_x
  _atom_site_fract_y
  _atom_site_fract_z
  _atom_site_occupancy
  Zn  Zn1       1.0  0.6719589856749195  0.9904225804808108  0.7344000885527178  1.0000
  Zn  Zn2       1.0  0.32804181501794005  0.009574837996879599  0.2656009488858686  1.0000
  H   H1        1.0  0.7962830422098647  0.017614302283156705  0.5411199219465459  1.0000
  H   H2        1.0  0.20371774592338449  0.9823840233698317  0.45887822386826105  1.0000
  H   H3        1.0  0.8582776153789238  0.8829878004675747  0.5811592408966887  1.0000
  H   H4        1.0  0.14172557526343607  0.11701142155582998  0.4188378417261374  1.0000
  H   H5        1.0  0.5016558846691836  0.9611799810060474  0.9178568954877586  1.0000
  H   H6        1.0  0.4983485817936141  0.03881927057005189  0.0821484339436509  1.0000
  H   H7        1.0  0.49942591302297495  0.1070315349363611  0.8831576194287575  1.0000
  H   H8        1.0  0.5005724461401543  0.8929649671965478  0.11684029114884704  1.0000
  H   H9        1.0  0.0861080454559158  0.5795575751178674  0.47269764753702487  1.0000
  H   H10       1.0  0.9139011697304937  0.42044800840461966  0.5272917957336529  1.0000
  H   H11       1.0  0.21619371728873915  0.3729860060858884  0.48998632435644385  1.0000
  H   H12       1.0  0.7838143521459455  0.6270196144651051  0.5100088389488489  1.0000
  H   H13       1.0  0.47732365238649516  0.4977524415279648  0.6919685547024057  1.0000
  H   H14       1.0  0.5226664949895935  0.5022515306000486  0.3080364863369595  1.0000
  H   H15       1.0  0.4494576320689134  0.027720251953439898  0.5629244979083265  1.0000
  H   H16       1.0  0.550533699632254  0.9722827892870071  0.43708050808884724  1.0000
  H   H17       1.0  0.5419862877529765  0.30014952348055607  0.7250293752060128  1.0000
  H   H18       1.0  0.4580157975000602  0.6998524970459741  0.2749731326859859  1.0000
  H   H19       1.0  0.6074202101033209  0.7529228068441824  0.6281790672046977  1.0000
  H   H20       1.0  0.3925829596869548  0.2470736636917934  0.37182040521005166  1.0000
  H   H21       1.0  0.26952175992716576  0.9302744382978999  0.8192800383495038  1.0000
  H   H22       1.0  0.7304838583435327  0.06972386574533118  0.180721764328922  1.0000
  H   H23       1.0  0.33374503609083206  0.4251677078963495  0.9393783553152344  1.0000
  H   H24       1.0  0.666246146273096  0.5748224664369346  0.06063221630697055  1.0000
  H   H25       1.0  0.1819110345876425  0.6251254995360185  0.9358414701202376  1.0000
  H   H26       1.0  0.8180909959543426  0.37487101135752704  0.06416442067128257  1.0000
  H   H27       1.0  0.8662626204995972  0.47874974727677966  0.7746038516619789  1.0000
  H   H28       1.0  0.1337442516031402  0.5212567975036607  0.22538995000117973  1.0000
  H   H29       1.0  0.8388560692527277  0.6942036029256257  0.7211500070141098  1.0000
  H   H30       1.0  0.16114954901797057  0.30579470111760537  0.278851795664309  1.0000
  H   H31       1.0  0.8500412019275956  0.9349641629199255  0.9254431356759906  1.0000
  H   H32       1.0  0.14996323246528218  0.06503598584428968  0.07455720710515117  1.0000
  H   H33       1.0  0.7551805714994729  0.22705477279110656  0.8477568464103908  1.0000
  H   H34       1.0  0.24482144693016747  0.7729435591111482  0.15224465781787436  1.0000
  H   H35       1.0  0.0472237420911696  0.0653814566852589  0.6261234719996761  1.0000
  H   H36       1.0  0.9527674851077633  0.9346206174568081  0.37387185546241125  1.0000
  C   C1        1.0  0.20424351116096767  0.6531237404774685  0.5725122965439906  1.0000
  C   C2        1.0  0.7957656905713079  0.3468809225534812  0.4274772449818369  1.0000
  C   C3        1.0  0.173078484602101  0.5603920598254888  0.5200397181679361  1.0000
  C   C4        1.0  0.8269343434322423  0.43961350249608694  0.4799514202372206  1.0000
  C   C5        1.0  0.24759147300315482  0.4461533208342629  0.527872185332626  1.0000
  C   C6        1.0  0.7524153921488832  0.5538523067837033  0.47212241292784524  1.0000
  C   C7        1.0  0.3578123263458437  0.4231527790953747  0.5898311368313569  1.0000
  C   C8        1.0  0.6421933067207704  0.576849186939647  0.41016608277351446  1.0000
  C   C9        1.0  0.39406908048538003  0.514468712718461  0.642102941669165  1.0000
  C   C10       1.0  0.6059270033120042  0.48553426696351204  0.3578973410857102  1.0000
  C   C11       1.0  0.31753428191402827  0.6283644673545865  0.6325127391695842  1.0000
  C   C12       1.0  0.6824689629921253  0.3716393504683849  0.36748245549318165  1.0000
  C   C13       1.0  0.4582259764352656  0.1165747220030866  0.5867973314069345  1.0000
  C   C14       1.0  0.5417700930134615  0.8834255095205136  0.413206039482027  1.0000
  C   C15       1.0  0.5089364333310725  0.2531667690953938  0.6695700332809478  1.0000
  C   C16       1.0  0.49105843228227297  0.7468343833285902  0.3304312776237166  1.0000
  C   C17       1.0  0.5008989861801041  0.7747272109455707  0.6776850402692316  1.0000
  C   C18       1.0  0.4991054221990294  0.22527292450240569  0.32231250914326637  1.0000
  C   C19       1.0  0.3244524527406654  0.8646331889159453  0.7720579380713486  1.0000
  C   C20       1.0  0.6755519881556536  0.1353669631773329  0.22794310305194898  1.0000
  C   C21       1.0  0.1156234042022461  0.7739872838137669  0.561404098441791  1.0000
  C   C22       1.0  0.8843858838637358  0.22602107782863357  0.43858854177424406  1.0000
  C   C23       1.0  0.1841257398954141  0.3391653290710792  0.8625630279333546  1.0000
  C   C24       1.0  0.815863049146401  0.6608294352213449  0.13744033558618435  1.0000
  C   C25       1.0  0.2303101771301712  0.43844127556501894  0.9039583194571106  1.0000
  C   C26       1.0  0.7696846324303406  0.561551625725734  0.09605085916548721  1.0000
  C   C27       1.0  0.1470979474897689  0.5490021308416431  0.9024193775525613  1.0000
  C   C28       1.0  0.8528992520202435  0.4509925739948244  0.09758584625426885  1.0000
  C   C29       1.0  0.015019100036354897  0.563856718429804  0.8562222384310088  1.0000
  C   C30       1.0  0.9849889337503298  0.43614248864196997  0.14377989773975486  1.0000
  C   C31       1.0  0.9672061490115736  0.4682655844481828  0.8123819797884406  1.0000
  C   C32       1.0  0.0327946117661497  0.5317299863883137  0.18761785747611975  1.0000
  C   C33       1.0  0.05151240072157749  0.3572287369747826  0.8165649108148043  1.0000
  C   C34       1.0  0.9484836227558447  0.6427705574119713  0.1834350666185002  1.0000
  C   C35       1.0  0.8522868256431195  0.7327050814890937  0.7852833832596031  1.0000
  C   C36       1.0  0.14771999085404988  0.2672941259915262  0.21471679118201334  1.0000
  C   C37       1.0  0.8670364199593051  0.8550067227554694  0.8875106133148447  1.0000
  C   C38       1.0  0.13296923261761148  0.1449952532667282  0.11248870131650787  1.0000
  C   C39       1.0  0.8533548867230535  0.2056097886876032  0.7922498194034088  1.0000
  C   C40       1.0  0.1466423674980177  0.7943904257818414  0.20775202150390018  1.0000
  C   C41       1.0  0.005467648255809398  0.1251355688597471  0.6803553360583974  1.0000
  C   C42       1.0  0.9945273110892071  0.8748711131715795  0.3196467819997009  1.0000
  C   C43       1.0  0.2719140143769252  0.21726088934219231  0.8762505925042345  1.0000
  C   C44       1.0  0.7280553619670016  0.7827183829433721  0.12375447908368638  1.0000
  N   N1        1.0  0.42687902120864857  0.3046328035721472  0.6014272068441712  1.0000
  N   N2        1.0  0.5731218593144901  0.6953683101879375  0.3985762309424671  1.0000
  N   N3        1.0  0.3942573179332173  0.21737851966739188  0.5477863057107086  1.0000
  N   N4        1.0  0.6057387584662096  0.7826226290186895  0.45221626858094743  1.0000
  N   N5        1.0  0.5309990601415393  0.1341484987710473  0.661878248682356  1.0000
  N   N6        1.0  0.4689970297120211  0.8658535704065713  0.3381242273541502  1.0000
  N   N7        1.0  0.3569577162799931  0.7213975817494074  0.6852230598772237  1.0000
  N   N8        1.0  0.6430454618027567  0.27860254744930296  0.3147711311218159  1.0000
  N   N9        1.0  0.2426606925170915  0.7785131027450375  0.744628767255328  1.0000
  N   N10       1.0  0.7573412942898868  0.2214870401787579  0.25536625538320107  1.0000
  N   N11       1.0  0.4842823795297803  0.8649977186461301  0.7325628162458029  1.0000
  N   N12       1.0  0.5157220873802758  0.1350024467633943  0.26744101824613137  1.0000
  N   N13       1.0  0.9334313444398745  0.6778338236170497  0.8526520524912651  1.0000
  N   N14       1.0  0.06657431464047649  0.32216815573421087  0.1473479604822429  1.0000
  N   N15       1.0  0.945311762865181  0.7560619660438236  0.9177303298118458  1.0000
  N   N16       1.0  0.0546878734601748  0.2439373071420334  0.08227134275594487  1.0000
  N   N17       1.0  0.8075591262416066  0.8447105737000199  0.8059107477473119  1.0000
  N   N18       1.0  0.19245011182772484  0.1552886263047881  0.19409195346827343  1.0000
  N   N19       1.0  0.9974148350215513  0.2617124347962019  0.7717167263249178  1.0000
  N   N20       1.0  0.0025836777459531  0.7382923684058512  0.2282837916671524  1.0000
  N   N21       1.0  0.0959513161155456  0.2112155785324389  0.7006159171496332  1.0000
  N   N22       1.0  0.9040434770654856  0.7887837096050488  0.29938070187021265  1.0000
  N   N23       1.0  0.8547582651733023  0.11876371487640817  0.7351666786492073  1.0000
  N   N24       1.0  0.14524007403225878  0.8812318634359073  0.2648306318413843  1.0000
  O   O1        1.0  0.9654393966943005  0.7634963162192959  0.565164438950134  1.0000
  O   O2        1.0  0.034562625313427  0.2365093263503013  0.43482510576238526  1.0000
  O   O3        1.0  0.7776658842831736  0.9502187030032874  0.5964092376221967  1.0000
  O   O4        1.0  0.22233848373356577  0.04977867097007759  0.4035886065557504  1.0000
  O   O5        1.0  0.1961812781838503  0.8720814575451571  0.5479783605190106  1.0000
  O   O6        1.0  0.8038184258594255  0.12792333193180383  0.4520213258335699  1.0000
  O   O7        1.0  0.5690281385005277  0.026905218999416995  0.8795725141599602  1.0000
  O   O8        1.0  0.43097391378807254  0.9730958710484002  0.12042799696070718  1.0000
  O   O9        1.0  0.420455687354405  0.22904501130518898  0.8828430320607051  1.0000
  O   O10       1.0  0.5795342270343014  0.7709478783047101  0.11715550627667427  1.0000
  O   O11       1.0  0.1977067223006941  0.11858364296931262  0.8828470896405914  1.0000
  O   O12       1.0  0.8022834111740096  0.8814184948337455  0.11715954459338458  1.0000
