data_image0
_chemical_formula_structural       Cd4H96C144N16O24
_chemical_formula_sum              "Cd4 H96 C144 N16 O24"
_cell_length_a       11.76296571544548
_cell_length_b       14.351246295287291
_cell_length_c       22.619025260511304
_cell_angle_alpha    89.99887111801058
_cell_angle_beta     89.99915722747619
_cell_angle_gamma    90.00064976999296

_space_group_name_H-M_alt    "P 1"
_space_group_IT_number       1

loop_
  _space_group_symop_operation_xyz
  'x, y, z'

loop_
  _atom_site_type_symbol
  _atom_site_label
  _atom_site_symmetry_multiplicity
  _atom_site_fract_x
  _atom_site_fract_y
  _atom_site_fract_z
  _atom_site_occupancy
  Cd  Cd1       1.0  0.043818442509944995  0.8877423468791149  0.943958900515632  1.0000
  Cd  Cd2       1.0  0.04381890205465311  0.11226197718292502  0.056040626048385896  1.0000
  Cd  Cd3       1.0  0.956176195729043  0.387750713285044  0.5560475669431  1.0000
  Cd  Cd4       1.0  0.9561889018969582  0.6122536358278056  0.4439607700342307  1.0000
  H   H1        1.0  0.1676396473689366  0.3988272345686639  0.7249471939503279  1.0000
  H   H2        1.0  0.1676367766513494  0.601163500694341  0.2750377230540905  1.0000
  H   H3        1.0  0.832360259581833  0.8988367229316696  0.7750402450909065  1.0000
  H   H4        1.0  0.8323538570272649  0.10116867304336812  0.224962806743072  1.0000
  H   H5        1.0  0.15683558942870232  0.839459114184436  0.7074792823664069  1.0000
  H   H6        1.0  0.15683148824418683  0.16055104018521152  0.29251676617487726  1.0000
  H   H7        1.0  0.8431719205209022  0.3394590584495489  0.7925215154382667  1.0000
  H   H8        1.0  0.8431719454326018  0.6605492158473611  0.20748322583169448  1.0000
  H   H9        1.0  0.09573086940823572  0.25438858700056244  0.9414157868644322  1.0000
  H   H10       1.0  0.09571703027852858  0.7456036324031958  0.058573192197329094  1.0000
  H   H11       1.0  0.904275353915665  0.7543924458341922  0.5585780742568999  1.0000
  H   H12       1.0  0.9042783383901354  0.24559543926857696  0.44143108392339764  1.0000
  H   H13       1.0  0.15995805813148684  0.39268651739114807  0.8843908793216285  1.0000
  H   H14       1.0  0.1599523430486656  0.6073069403130803  0.11559453589779169  1.0000
  H   H15       1.0  0.8400383554650193  0.8926941864250467  0.6155934748835604  1.0000
  H   H16       1.0  0.8400400835632384  0.1072938541105231  0.3844130577047054  1.0000
  H   H17       1.0  0.16232423495690546  0.22895835791526764  0.7243841074854132  1.0000
  H   H18       1.0  0.1623273174217914  0.7710246677038486  0.27560173253503  1.0000
  H   H19       1.0  0.8376816038536108  0.7289866718063038  0.7756128893129742  1.0000
  H   H20       1.0  0.8376667356588501  0.27102852399308125  0.22439852368884766  1.0000
  H   H21       1.0  0.10848554014533823  0.0888320019284095  0.7833622015490534  1.0000
  H   H22       1.0  0.1084848345863065  0.9111547505086577  0.21663022116329958  1.0000
  H   H23       1.0  0.8915156285919464  0.5888530475086641  0.7166429788487177  1.0000
  H   H24       1.0  0.8915053871111026  0.41115284669990615  0.2833724620335403  1.0000
  H   H25       1.0  0.10171671200365752  0.5478770106119626  0.7392573919619848  1.0000
  H   H26       1.0  0.10173241294103973  0.4521222275098253  0.2607280064241165  1.0000
  H   H27       1.0  0.8982795865734304  0.0478813563526614  0.7607429912624326  1.0000
  H   H28       1.0  0.8982703305470636  0.9521252922552536  0.23925250545975266  1.0000
  H   H29       1.0  0.09081068178725359  0.6948128572664131  0.6836523532280337  1.0000
  H   H30       1.0  0.09081571521096518  0.3052009214375532  0.316344177478058  1.0000
  H   H31       1.0  0.9091827383122465  0.19479943082143344  0.8163553091775455  1.0000
  H   H32       1.0  0.9091814053357723  0.8052024319563883  0.18364497105304878  1.0000
  H   H33       1.0  0.4780161956256634  0.7690443192059251  0.634307904409681  1.0000
  H   H34       1.0  0.47800334496526636  0.2309692387594779  0.3656999458581821  1.0000
  H   H35       1.0  0.5219834481141278  0.26902963966831095  0.8656938910501067  1.0000
  H   H36       1.0  0.5219824511607812  0.7309759277417955  0.1342986064801437  1.0000
  H   H37       1.0  0.6636275345147454  0.696783153968667  0.6559076851117922  1.0000
  H   H38       1.0  0.6636317177368126  0.3032277878213562  0.34409704109400246  1.0000
  H   H39       1.0  0.33636591550069284  0.1967674682908652  0.8440911320083231  1.0000
  H   H40       1.0  0.3363628224524576  0.8032330505043678  0.1559031632637584  1.0000
  H   H41       1.0  0.6757568121095404  0.5565335761246217  0.7205869334925695  1.0000
  H   H42       1.0  0.6757650289216954  0.4434691063928825  0.27941372516983876  1.0000
  H   H43       1.0  0.3242404676023583  0.056532695539921504  0.7794059199941472  1.0000
  H   H44       1.0  0.32423928357609805  0.9434691146391289  0.22058934803735036  1.0000
  H   H45       1.0  0.5004214771962341  0.4870031532697681  0.7628432083665826  1.0000
  H   H46       1.0  0.5004481474208903  0.5130008387234923  0.23715563601769668  1.0000
  H   H47       1.0  0.4995721122185585  0.9870050704666443  0.7371493939646641  1.0000
  H   H48       1.0  0.49956835663927296  0.012994733494565505  0.2628468041030771  1.0000
  H   H49       1.0  0.07331395103807381  0.975944445930246  0.7322709967018497  1.0000
  H   H50       1.0  0.0733025675058983  0.0240684884462041  0.2677247776377101  1.0000
  H   H51       1.0  0.9266794710109071  0.4759486251129916  0.7677291392351718  1.0000
  H   H52       1.0  0.9266843495579452  0.5240603530404045  0.2322767605568643  1.0000
  H   H53       1.0  0.9944396815404133  0.1309871010326944  0.7003173345086892  1.0000
  H   H54       1.0  0.9944401338496149  0.8690147836592175  0.29967967042235694  1.0000
  H   H55       1.0  0.005547672688834401  0.6309986409262578  0.7996829148935801  1.0000
  H   H56       1.0  0.005548600315648902  0.36900954123267127  0.20032175433203037  1.0000
  H   H57       1.0  0.09701430147573122  0.07680223760188204  0.5229398903870148  1.0000
  H   H58       1.0  0.09700097802816292  0.9232046254077064  0.477052174027655  1.0000
  H   H59       1.0  0.9029883854372045  0.5767915246182584  0.9770569093964453  1.0000
  H   H60       1.0  0.9029987774668485  0.4232165571133565  0.022947394976974095  1.0000
  H   H61       1.0  0.18911948444838342  0.9268581909297853  0.5546462482584218  1.0000
  H   H62       1.0  0.18909594088301426  0.07315502271981698  0.44534868036034675  1.0000
  H   H63       1.0  0.8108876471864407  0.42684967933922036  0.9453530824808994  1.0000
  H   H64       1.0  0.8108976695814791  0.5731583227720451  0.05465543138078029  1.0000
  H   H65       1.0  0.2529789492015412  0.927658530586186  0.8616154758108153  1.0000
  H   H66       1.0  0.2529695694557362  0.0723468594320238  0.13839003901887276  1.0000
  H   H67       1.0  0.7470213935589456  0.4276603494613411  0.6383873905016344  1.0000
  H   H68       1.0  0.7470367805638886  0.5723429336361862  0.361617610828702  1.0000
  H   H69       1.0  0.4653735732797132  0.9303700651789202  0.8590858534288087  1.0000
  H   H70       1.0  0.46536662804011547  0.06962735981507251  0.1409203207408041  1.0000
  H   H71       1.0  0.5346242601371644  0.43037273406131504  0.6409161243137759  1.0000
  H   H72       1.0  0.5346396808643021  0.569629455577271  0.3590891019046367  1.0000
  H   H73       1.0  0.46095928663404356  0.8538345190527821  0.044133925450175596  1.0000
  H   H74       1.0  0.4609659608597881  0.14617053357861928  0.9558740493253237  1.0000
  H   H75       1.0  0.5390436698814443  0.3538175306661629  0.4558732710836963  1.0000
  H   H76       1.0  0.5390394755416636  0.6461700633555055  0.5441288282018348  1.0000
  H   H77       1.0  0.24944979194721384  0.854592613557209  0.03839351257699519  1.0000
  H   H78       1.0  0.2494571351743318  0.1454252890946819  0.9616173332245237  1.0000
  H   H79       1.0  0.7505506255283834  0.35456801579128694  0.46161854591406376  1.0000
  H   H80       1.0  0.7505533905636953  0.6454150895811991  0.5383904086548056  1.0000
  H   H81       1.0  0.6227235494058406  0.015102144637019402  0.8947506827007955  1.0000
  H   H82       1.0  0.6227230014760539  0.9848917291173793  0.10525257384814779  1.0000
  H   H83       1.0  0.3772884059125233  0.5151065148685631  0.6052431216649339  1.0000
  H   H84       1.0  0.3772895887009967  0.48488877450409973  0.3947491063028535  1.0000
  H   H85       1.0  0.8347032045275783  0.013470353774280902  0.8972774282254575  1.0000
  H   H86       1.0  0.8346993555420213  0.9865141581093226  0.1027167643907276  1.0000
  H   H87       1.0  0.16530702584663712  0.5134828391904309  0.6027212419307446  1.0000
  H   H88       1.0  0.16531070891862504  0.4865141472469432  0.39727828156870254  1.0000
  H   H89       1.0  0.8402326888536181  0.7842912793395341  0.0083994032487666  1.0000
  H   H90       1.0  0.8402368081473456  0.21570094385838703  0.9916004963226184  1.0000
  H   H91       1.0  0.1597522134942224  0.28430316106943826  0.49160613690455074  1.0000
  H   H92       1.0  0.15977478079054214  0.7156944754166049  0.5083938691996863  1.0000
  H   H93       1.0  0.6299871220247438  0.7760673033334842  0.012210686647101497  1.0000
  H   H94       1.0  0.629999979640104  0.22392593496288532  0.9877903062767005  1.0000
  H   H95       1.0  0.36999170501988493  0.27606933304735304  0.4877917720411773  1.0000
  H   H96       1.0  0.37001343391176533  0.7239210170642922  0.5122080249426232  1.0000
  C   C1        1.0  0.06681907876750161  0.07441372973388383  0.8976572993651429  1.0000
  C   C2        1.0  0.06680156740971202  0.9255810330677506  0.10233542770566825  1.0000
  C   C3        1.0  0.9331801714779361  0.5744180764132806  0.6023496726965475  1.0000
  C   C4        1.0  0.9331973737224787  0.4255749297828545  0.3976672322291464  1.0000
  C   C5        1.0  0.10044183284350082  0.16148528671210732  0.8656968432942874  1.0000
  C   C6        1.0  0.10043651173722173  0.8385090628086405  0.1342934276460781  1.0000
  C   C7        1.0  0.899557034300237  0.661493764297461  0.6343037990566954  1.0000
  C   C8        1.0  0.8995653629824718  0.3385010489901674  0.3657089304035068  1.0000
  C   C9        1.0  0.11406362760817501  0.24775925067523738  0.8942810681301977  1.0000
  C   C10       1.0  0.11405444614572254  0.7522345169083523  0.1057068928118881  1.0000
  C   C11       1.0  0.8859390949760736  0.7477671841879004  0.6057123615714985  1.0000
  C   C12       1.0  0.8859444233190886  0.2522240303987289  0.39429648840744136  1.0000
  C   C13       1.0  0.14866820955848684  0.3259221778646691  0.8623197314363225  1.0000
  C   C14       1.0  0.14866370193338702  0.6740711846693659  0.13766620833785476  1.0000
  C   C15       1.0  0.8513314447559139  0.8259314466918326  0.6376687092311926  1.0000
  C   C16       1.0  0.8513390859752974  0.17405877945635245  0.36233818296236814  1.0000
  C   C17       1.0  0.1496660450963745  0.23386172000847694  0.7720572916308158  1.0000
  C   C18       1.0  0.14966536209431072  0.7661260764980115  0.22792952505776748  1.0000
  C   C19       1.0  0.8503381675791744  0.7338824586649295  0.7279392551770412  1.0000
  C   C20       1.0  0.8503337175755874  0.26612239181981323  0.2720716232544191  1.0000
  C   C21       1.0  0.1187246495237346  0.15611826705362125  0.8046026362402329  1.0000
  C   C22       1.0  0.11872440435263339  0.8438706621789721  0.1953870590549798  1.0000
  C   C23       1.0  0.8812766868770796  0.6561355830309097  0.6953984568439181  1.0000
  C   C24       1.0  0.8812767013654865  0.3438660441463881  0.30461529035980556  1.0000
  C   C25       1.0  0.28140565565162495  0.46083531498752717  0.7816600478127427  1.0000
  C   C26       1.0  0.28142392671554023  0.5391647407775083  0.21832978561140237  1.0000
  C   C27       1.0  0.7185883882259958  0.9608436558193534  0.7183259650695389  1.0000
  C   C28       1.0  0.7185819214508414  0.0391531165480359  0.2816704018871974  1.0000
  C   C29       1.0  0.28364101246582873  0.5431067185667047  0.740790396151702  1.0000
  C   C30       1.0  0.28365428042422997  0.45689335598059705  0.25920074728227144  1.0000
  C   C31       1.0  0.7163543640477811  0.043113801181362994  0.7591967315854473  1.0000
  C   C32       1.0  0.7163485349714591  0.9568906173517323  0.24079434641020467  1.0000
  C   C33       1.0  0.18000695443799228  0.581400274913456  0.7251371072230482  1.0000
  C   C34       1.0  0.18001918039868062  0.4186051972761292  0.27485656150596327  1.0000
  C   C35       1.0  0.8199864507695767  0.08140314042405809  0.7748579167554155  1.0000
  C   C36       1.0  0.8199813556694766  0.9186021515784335  0.22513417280126186  1.0000
  C   C37       1.0  0.17391180586525226  0.6651855329438305  0.6933766306113043  1.0000
  C   C38       1.0  0.17392012524170755  0.3348233717554906  0.30662106159533653  1.0000
  C   C39       1.0  0.8260803161972916  0.1651838170220827  0.8066217952847622  1.0000
  C   C40       1.0  0.826076593116426  0.834819435838007  0.1933737866086958  1.0000
  C   C41       1.0  0.27140740169598837  0.7089889885279632  0.6735111038879253  1.0000
  C   C42       1.0  0.27141192078284604  0.2910179506697688  0.3264880868210581  1.0000
  C   C43       1.0  0.7285853829493902  0.20898738697276542  0.826485925142947  1.0000
  C   C44       1.0  0.7285824346636005  0.7910136504702693  0.17351125299764897  1.0000
  C   C45       1.0  0.38044150753971445  0.6681815213996032  0.6845580758307506  1.0000
  C   C46       1.0  0.3804469704500306  0.3318256399857233  0.3154425290920386  1.0000
  C   C47       1.0  0.6195532102442343  0.16817824915402474  0.8154376925978396  1.0000
  C   C48       1.0  0.6195488523359529  0.8318218692736113  0.1845593976341888  1.0000
  C   C49       1.0  0.4826110984359104  0.7069276786704892  0.661853775410556  1.0000
  C   C50       1.0  0.48261105336977306  0.2930838277328789  0.33815183072564275  1.0000
  C   C51       1.0  0.5173850554111824  0.2069159546370685  0.8381463516758101  1.0000
  C   C52       1.0  0.517380782935554  0.793083999442061  0.1618506005114639  1.0000
  C   C53       1.0  0.5863081002162502  0.6663173527783854  0.6739914414464749  1.0000
  C   C54       1.0  0.5863124287690482  0.3336852725863865  0.32600898629142694  1.0000
  C   C55       1.0  0.4136874394444873  0.16630894409506425  0.8260052141969039  1.0000
  C   C56       1.0  0.41368257208091574  0.8336887423043395  0.1739924953313334  1.0000
  C   C57       1.0  0.5928546264847584  0.5866988434094438  0.710527096723169  1.0000
  C   C58       1.0  0.5928629397435684  0.413301746780725  0.289471956873335  1.0000
  C   C59       1.0  0.40714310949002913  0.08669738023739634  0.7894661502868131  1.0000
  C   C60       1.0  0.4071400663050825  0.9133002510073567  0.21053160703014837  1.0000
  C   C61       1.0  0.49553584080530316  0.5473924606680285  0.7337760541037142  1.0000
  C   C62       1.0  0.4955496866103531  0.45261149010286783  0.2662223839031057  1.0000
  C   C63       1.0  0.5044596004200272  0.047393168732313015  0.7662154877931329  1.0000
  C   C64       1.0  0.5044556142271759  0.9526045859753796  0.23378200089931056  1.0000
  C   C65       1.0  0.38688429962451937  0.5856489852433528  0.7208775441453456  1.0000
  C   C66       1.0  0.38689463509631156  0.4143533530108031  0.27911726633565337  1.0000
  C   C67       1.0  0.6131117203033372  0.0856526468818686  0.779112609817666  1.0000
  C   C68       1.0  0.6131066866010643  0.9143467204566705  0.2208840853559977  1.0000
  C   C69       1.0  0.2563953598720872  0.7975404234907587  0.639068400716198  1.0000
  C   C70       1.0  0.25638646964221584  0.20246778272073837  0.3609308996784931  1.0000
  C   C71       1.0  0.7436021646250025  0.29753485667512786  0.8609306962167409  1.0000
  C   C72       1.0  0.7435988951994122  0.7024614295255847  0.13907300384197896  1.0000
  C   C73       1.0  0.13715517695832352  0.9425494454684015  0.6453010834287127  1.0000
  C   C74       1.0  0.1371391769541432  0.0574626334008386  0.354694224675434  1.0000
  C   C75       1.0  0.8628513419090924  0.4425438522771045  0.8546986641453884  1.0000
  C   C76       1.0  0.8628533460077179  0.557461103811484  0.14530858602908836  1.0000
  C   C77       1.0  0.08031559201237572  0.9993716485758102  0.6863861279565739  1.0000
  C   C78       1.0  0.08029994719235842  0.0006420416033066  0.31360959526270443  1.0000
  C   C79       1.0  0.9196866856299338  0.4993724057837738  0.8136135281155887  1.0000
  C   C80       1.0  0.9196874656560964  0.5006351198027873  0.1863924227631344  1.0000
  C   C81       1.0  0.03519020810063721  0.08444446064858374  0.6688460437219703  1.0000
  C   C82       1.0  0.035180232537463496  0.915564668382615  0.33114956693974307  1.0000
  C   C83       1.0  0.9648108941989478  0.5844455339758029  0.831153838489868  1.0000
  C   C84       1.0  0.9648083556128243  0.4155602815391646  0.16885178284577756  1.0000
  C   C85       1.0  0.0417993262724821  0.11338236499715042  0.6098633484966597  1.0000
  C   C86       1.0  0.04178801931919201  0.886624729326087  0.390132213903044  1.0000
  C   C87       1.0  0.9582073144471436  0.6133785617468706  0.8901369292000112  1.0000
  C   C88       1.0  0.9582043817666416  0.3866265012882479  0.1098691824714422  1.0000
  C   C89       1.0  0.09480227779723552  0.05467668229105271  0.5688923827662222  1.0000
  C   C90       1.0  0.09478469671424959  0.9453350396420036  0.4311010241323032  1.0000
  C   C91       1.0  0.9052068754280286  0.5546658708489077  0.9311062210497738  1.0000
  C   C92       1.0  0.9052094425654998  0.4453387454929326  0.06889939346977059  1.0000
  C   C93       1.0  0.1443576817559631  0.9707898600377546  0.5860389757956455  1.0000
  C   C94       1.0  0.14434035267477438  0.029221582758090406  0.4139553955002668  1.0000
  C   C95       1.0  0.8556535148803662  0.4707800658702155  0.9139598420720958  1.0000
  C   C96       1.0  0.8556542935213972  0.529223435935343  0.0860474606760704  1.0000
  C   C97       1.0  0.9986210809625929  0.20748885118115376  0.5918979083389643  1.0000
  C   C98       1.0  0.9986239717670244  0.7925123719754128  0.40809862393989954  1.0000
  C   C99       1.0  0.0013784819431989998  0.7074877847593231  0.9081031020340048  1.0000
  C   C100      1.0  0.0013695561421727003  0.2925154844750963  0.0919055766317882  1.0000
  C   C101      1.0  0.30313056376744646  0.9112917761932381  0.9008446709546546  1.0000
  C   C102      1.0  0.3031276921251519  0.08871612694112943  0.0991622459987056  1.0000
  C   C103      1.0  0.6968669809907341  0.4112884837191687  0.5991599901536233  1.0000
  C   C104      1.0  0.6968831560761757  0.5887088021614842  0.4008467037895329  1.0000
  C   C105      1.0  0.4212266582157937  0.9130308248245599  0.8999511847929256  1.0000
  C   C106      1.0  0.42122373379228156  0.08696901527235922  0.1000557538848525  1.0000
  C   C107      1.0  0.5787709128901924  0.41303066588333354  0.6000521471948943  1.0000
  C   C108      1.0  0.5787870880254075  0.5869656246522582  0.3999523145026486  1.0000
  C   C109      1.0  0.48183119981739964  0.8920481254010042  0.9516428630678461  1.0000
  C   C110      1.0  0.48183352149830955  0.10794874153738479  0.04836363297874868  1.0000
  C   C111      1.0  0.5181660538444534  0.3920420975713341  0.5483618290356489  1.0000
  C   C112      1.0  0.5181767675705232  0.607947410881735  0.4516426331983324  1.0000
  C   C113      1.0  0.4189306572809032  0.8697143154645703  0.0023749722191794996  1.0000
  C   C114      1.0  0.41893670684904555  0.13029038290374476  0.9976333095074491  1.0000
  C   C115      1.0  0.5810674387170495  0.3697029196846913  0.4976321987534788  1.0000
  C   C116      1.0  0.5810735900359987  0.6302857253266011  0.5023722462145557  1.0000
  C   C117      1.0  0.3008547076310251  0.8703272978953009  0.9996089151615736  1.0000
  C   C118      1.0  0.30086047628169155  0.12968476686241814  0.0003997868010046  1.0000
  C   C119      1.0  0.6991430675129422  0.37031513046459713  0.5003993487720209  1.0000
  C   C120      1.0  0.6991501414853615  0.6296759033176971  0.4996077706921156  1.0000
  C   C121      1.0  0.6072723602862666  0.8944059172437946  0.9524474775808823  1.0000
  C   C122      1.0  0.6072738199612006  0.10558852301993941  0.0475581023337668  1.0000
  C   C123      1.0  0.3927249290879331  0.3944037565110392  0.5475558844050423  1.0000
  C   C124      1.0  0.3927364334119474  0.6055826043035282  0.4524455150140767  1.0000
  C   C125      1.0  0.6672539707647331  0.9618479430239831  0.9200819722417036  1.0000
  C   C126      1.0  0.6672551537320289  0.0381470028508986  0.0799222853972026  1.0000
  C   C127      1.0  0.33274943955247244  0.46185036421461945  0.5799186284684196  1.0000
  C   C128      1.0  0.3327583301757572  0.5381410655597278  0.4200805563422063  1.0000
  C   C129      1.0  0.7853763699522462  0.9617515417637964  0.9215749740319126  1.0000
  C   C130      1.0  0.7853775985531969  0.038239522245795916  0.07842488407855797  1.0000
  C   C131      1.0  0.2146261888386931  0.4617607189244027  0.5784251847254325  1.0000
  C   C132      1.0  0.21463333641434454  0.5382325023928801  0.4215748627821228  1.0000
  C   C133      1.0  0.7883822253971361  0.8344534716630109  0.9842652117536446  1.0000
  C   C134      1.0  0.7883863827401857  0.16554110162341124  0.015737719130484596  1.0000
  C   C135      1.0  0.2116073561622542  0.3344599947222732  0.5157413415469065  1.0000
  C   C136      1.0  0.21162477752844916  0.6655325043503597  0.4842600542883132  1.0000
  C   C137      1.0  0.6702563497439372  0.8300923372758576  0.9856304269177443  1.0000
  C   C138      1.0  0.6702606133903332  0.1699033306970463  0.014374692993392599  1.0000
  C   C139      1.0  0.3297331658602545  0.33009505777550174  0.514373480775532  1.0000
  C   C140      1.0  0.3297497626474594  0.669893559315618  0.4856283786722314  1.0000
  C   C141      1.0  0.16669257865092393  0.31900198659365503  0.80106415799613  1.0000
  C   C142      1.0  0.16669316570678214  0.6809873471067078  0.19892032380783317  1.0000
  C   C143      1.0  0.8333095214169929  0.8190186930073723  0.6989247359071483  1.0000
  C   C144      1.0  0.8333097268768485  0.18097974284531662  0.3010822879268389  1.0000
  N   N1        1.0  0.19841866255656274  0.3965852241795532  0.7669303248692784  1.0000
  N   N2        1.0  0.19841961733794022  0.6034050737331357  0.23305436733249954  1.0000
  N   N3        1.0  0.8015846110408946  0.8966003766604516  0.7330562335544641  1.0000
  N   N4        1.0  0.8015778511818609  0.10340266949351931  0.2669470430471534  1.0000
  N   N5        1.0  0.18195500694906033  0.8580950397724226  0.6661343347553127  1.0000
  N   N6        1.0  0.1819426005329633  0.14191811345747143  0.333863298781516  1.0000
  N   N7        1.0  0.8180519347107165  0.3580895826736635  0.8338668751482742  1.0000
  N   N8        1.0  0.8180537502745296  0.6419163894701185  0.16613849168201966  1.0000
  N   N9        1.0  0.24343895519700712  0.8908012878106887  0.9498558591475471  1.0000
  N   N10       1.0  0.24343954274077362  0.1092095962011896  0.0501519358434592  1.0000
  N   N11       1.0  0.7565591296760205  0.3907922878227553  0.5501510454918443  1.0000
  N   N12       1.0  0.7565716154465747  0.609201320341839  0.449856096728233  1.0000
  N   N13       1.0  0.8452123850662403  0.8987682079744135  0.9526451106513819  1.0000
  N   N14       1.0  0.8452154849284028  0.10122336041530391  0.0473538683445369  1.0000
  N   N15       1.0  0.1547841202189915  0.3987765955831791  0.5473600127262301  1.0000
  N   N16       1.0  0.15479725293067056  0.6012189085375893  0.4526413560148582  1.0000
  O   O1        1.0  0.057508295731970804  0.9994297068695276  0.8672512110649463  1.0000
  O   O2        1.0  0.0575090487848442  0.0005677647683058003  0.1327406997252183  1.0000
  O   O3        1.0  0.9424888819132279  0.49943350060058833  0.6327581712553041  1.0000
  O   O4        1.0  0.942502166477823  0.5005630679833146  0.3672613183315362  1.0000
  O   O5        1.0  0.0501600556739987  0.075981944483793  0.9531946770020736  1.0000
  O   O6        1.0  0.050112707784968805  0.9240078000448193  0.0468017086935149  1.0000
  O   O7        1.0  0.9498434689250673  0.5759868714626748  0.5468122925179202  1.0000
  O   O8        1.0  0.9498743077790407  0.42400279129257257  0.4532022801347608  1.0000
  O   O9        1.0  0.34344712910321124  0.4531569259797836  0.8253204179762506  1.0000
  O   O10       1.0  0.34347955899065147  0.5468534078775279  0.1746747096532317  1.0000
  O   O11       1.0  0.6565433980160832  0.9531554350713523  0.674668259927067  1.0000
  O   O12       1.0  0.6565340564002612  0.04682339417662721  0.3253298865061963  1.0000
  O   O13       1.0  0.3030910430978864  0.81287169567414  0.5910077913900408  1.0000
  O   O14       1.0  0.3030668980444134  0.18713829758952732  0.40899426276525475  1.0000
  O   O15       1.0  0.6969118140313597  0.3128643362552951  0.9089917229395181  1.0000
  O   O16       1.0  0.6969029324908365  0.6871204074201104  0.09101541288350747  1.0000
  O   O17       1.0  0.9867083665537707  0.22492024978055272  0.5366992727032525  1.0000
  O   O18       1.0  0.9867221136190736  0.7750780857562632  0.46329867285777476  1.0000
  O   O19       1.0  0.0132863592419241  0.7249174699467034  0.9633021517211446  1.0000
  O   O20       1.0  0.013293253890253702  0.2750879901369885  0.03670643991806339  1.0000
  O   O21       1.0  0.979982786035535  0.26794158569986604  0.6321675675339193  1.0000
  O   O22       1.0  0.9799859529754829  0.7320587835258864  0.3678299850774778  1.0000
  O   O23       1.0  0.020014290780928003  0.7679437130868793  0.8678337875919695  1.0000
  O   O24       1.0  0.019987107585947704  0.2320583195194531  0.1321756392496027  1.0000
