data_image0
_chemical_formula_structural       Fe2H6C8N16
_chemical_formula_sum              "Fe2 H6 C8 N16"
_cell_length_a       5.547756300672766
_cell_length_b       7.446790346521085
_cell_length_c       8.872229300435915
_cell_angle_alpha    89.3986978358037
_cell_angle_beta     88.33683870514405
_cell_angle_gamma    68.1417907999853

_space_group_name_H-M_alt    "P 1"
_space_group_IT_number       1

loop_
  _space_group_symop_operation_xyz
  'x, y, z'

loop_
  _atom_site_type_symbol
  _atom_site_label
  _atom_site_symmetry_multiplicity
  _atom_site_fract_x
  _atom_site_fract_y
  _atom_site_fract_z
  _atom_site_occupancy
  Fe  Fe1       1.0  0.19242267039222566  0.6152439940538342  1.6308659347407083e-05  1.0000
  Fe  Fe2       1.0  0.8075901830732803  0.38475514599149807  0.9999834902144471  1.0000
  H   H1        1.0  0.9378971178343748  0.6887436719111973  0.335471155969465  1.0000
  H   H2        1.0  0.3738644105135972  0.6885037592572444  0.6646092008673108  1.0000
  H   H3        1.0  0.062095724768006615  0.3112554659822777  0.6645260569243447  1.0000
  H   H4        1.0  0.6261356406537147  0.3114953791433379  0.3353877247844324  1.0000
  H   H5        1.0  0.7164891354185913  0.00017486946779140004  0.47156419513078157  1.0000
  H   H6        1.0  0.28348392704430103  0.9998271596546006  0.5284281097520208  1.0000
  C   C1        1.0  0.9002387857769916  0.8256271164113897  0.27822756541903  1.0000
  C   C2        1.0  0.2744327830370136  0.8254263008799828  0.7218215757276667  1.0000
  C   C3        1.0  0.09975662565295099  0.17437346735286502  0.7217638775492787  1.0000
  C   C4        1.0  0.7255586510657891  0.1745699460303669  0.2781892839932283  1.0000
  C   C5        1.0  0.7759282995093103  0.00013340515939570002  0.3537637740520552  1.0000
  C   C6        1.0  0.22405053191754834  0.9998758605087162  0.6462349245109992  1.0000
  C   C7        1.0  0.9405207962318085  2.7854169658799987e-05  0.0712301999489711  1.0000
  C   C8        1.0  0.0594918074875891  0.999971284865907  0.9287650977306043  1.0000
  N   N1        1.0  0.9815970163504841  0.8237161402241427  0.13248992573136326  1.0000
  N   N2        1.0  0.19488596385804133  0.8236361532662572  0.867544487582883  1.0000
  N   N3        1.0  0.018403721618625513  0.17628300095329758  0.8675193782044845  1.0000
  N   N4        1.0  0.8051213896458689  0.17637311316804727  0.13244743551913274  1.0000
  N   N5        1.0  0.0995684553991722  0.4143272067400474  0.114588535809645  1.0000
  N   N6        1.0  0.48609439967771795  0.41426397845315677  0.8854010000448939  1.0000
  N   N7        1.0  0.9004442922157593  0.5856690404294012  0.8854158356922781  1.0000
  N   N8        1.0  0.5139216279581404  0.585739502358372  0.11459745866369532  1.0000
  N   N9        1.0  0.12884836922633272  0.3625551025279917  0.24554982142904447  1.0000
  N   N10       1.0  0.50853169585789  0.3624727886389962  0.754424943025974  1.0000
  N   N11       1.0  0.8711533661527325  0.6374483777742199  0.7544514623607839  1.0000
  N   N12       1.0  0.49147419878880794  0.6375263519090026  0.2455796442840992  1.0000
  N   N13       1.0  0.15399816836637106  0.30818244158772495  0.3695464879253763  1.0000
  N   N14       1.0  0.5376689830289649  0.30809942771713855  0.630394490476796  1.0000
  N   N15       1.0  0.8459969203765209  0.6918210404793684  0.630465210793517  1.0000
  N   N16       1.0  0.462332589198311  0.6918895825262582  0.3696037027764306  1.0000
