data_image0
_chemical_formula_structural       Cu4H16C36N16O16
_chemical_formula_sum              "Cu4 H16 C36 N16 O16"
_cell_length_a       10.856094112500132
_cell_length_b       11.508112850043116
_cell_length_c       14.840657072324591
_cell_angle_alpha    90.00024852798067
_cell_angle_beta     109.37028183284282
_cell_angle_gamma    89.99973000931267

_space_group_name_H-M_alt    "P 1"
_space_group_IT_number       1

loop_
  _space_group_symop_operation_xyz
  'x, y, z'

loop_
  _atom_site_type_symbol
  _atom_site_label
  _atom_site_symmetry_multiplicity
  _atom_site_fract_x
  _atom_site_fract_y
  _atom_site_fract_z
  _atom_site_occupancy
  Cu  Cu1       1.0  0.5909280270075072  0.5792318355734807  0.0227614428819152  1.0000
  Cu  Cu2       1.0  0.40906851711739717  0.0792375631274282  0.4772364474059642  1.0000
  Cu  Cu3       1.0  0.40907295124130627  0.4207762910431044  0.977239982415554  1.0000
  Cu  Cu4       1.0  0.5909227126726505  0.9207792530151478  0.5227585518009832  1.0000
  H   H1        1.0  0.1090466126746392  0.6245071439543751  0.04720462700134218  1.0000
  H   H2        1.0  0.8909536544286921  0.1245148947499573  0.45279702010378026  1.0000
  H   H3        1.0  0.8909328663611262  0.37549576899619563  0.9527962593022606  1.0000
  H   H4        1.0  0.10907077586090713  0.8754923628641507  0.5472054215726132  1.0000
  H   H5        1.0  0.1103863716214164  0.8787953111288616  0.2616835588839521  1.0000
  H   H6        1.0  0.8896207524921282  0.3787983827268918  0.23831724555319062  1.0000
  H   H7        1.0  0.8896155986625374  0.12121889814017092  0.7383140659780522  1.0000
  H   H8        1.0  0.11038510257763079  0.6212132196946101  0.7616867196091447  1.0000
  H   H9        1.0  0.4736877457555763  0.7454154929041226  0.24544293642347975  1.0000
  H   H10       1.0  0.5263150454167445  0.24540379229733134  0.2545455815691042  1.0000
  H   H11       1.0  0.5263053926254954  0.25455700670544695  0.7545639843495664  1.0000
  H   H12       1.0  0.47369477269970156  0.754569576179243  0.7454445281555451  1.0000
  H   H13       1.0  0.8990336522722655  0.5719981560928885  0.08545046878035109  1.0000
  H   H14       1.0  0.1009706837159143  0.07200492637367262  0.4145614310371286  1.0000
  H   H15       1.0  0.10098098789853789  0.42799519832042426  0.9145563178156023  1.0000
  H   H16       1.0  0.8990225041279774  0.9279988554789824  0.585432699166816  1.0000
  C   C1        1.0  0.37090311753016886  0.6078375609494913  0.0899058250898292  1.0000
  C   C2        1.0  0.6290923518007077  0.10784191281034342  0.4100892027799575  1.0000
  C   C3        1.0  0.6290822277932618  0.3921549245597049  0.9100944738088969  1.0000
  C   C4        1.0  0.3709125503321217  0.8921627379779479  0.5899084649692838  1.0000
  C   C5        1.0  0.2985028310436704  0.6783820156198317  0.140987603335283  1.0000
  C   C6        1.0  0.701500183821274  0.17838140656938606  0.3590088311653119  1.0000
  C   C7        1.0  0.7014844514672233  0.3216052561845046  0.8590172120885524  1.0000
  C   C8        1.0  0.29851741684277755  0.8216162925774668  0.640990593246471  1.0000
  C   C9        1.0  0.16195778485965207  0.6782657928861794  0.10817265539515829  1.0000
  C   C10       1.0  0.8380422881884613  0.17826648803148262  0.3918264286870751  1.0000
  C   C11       1.0  0.8380324294736711  0.3217258236726365  0.8918322029326831  1.0000
  C   C12       1.0  0.1619684776173287  0.8217320800783556  0.608171324852357  1.0000
  C   C13       1.0  0.0960492157231556  0.7505489867836204  0.1523667025609541  1.0000
  C   C14       1.0  0.9039515535606667  0.2505491340526974  0.3476341410499088  1.0000
  C   C15       1.0  0.9039400248002565  0.24944697453583586  0.8476372438860976  1.0000
  C   C16       1.0  0.09606018864329968  0.7494546477688075  0.652363851192014  1.0000
  C   C17       1.0  0.16327007772264324  0.8217961789949229  0.22882977410213803  1.0000
  C   C18       1.0  0.8367304387901271  0.3217944617908586  0.2711665291307099  1.0000
  C   C19       1.0  0.8367279687070377  0.17820586496277  0.7711716082892223  1.0000
  C   C20       1.0  0.16327251052653222  0.6782101890005164  0.7288306612261266  1.0000
  C   C21       1.0  0.29961391204234633  0.8175885009297233  0.2633831889105664  1.0000
  C   C22       1.0  0.7003866335191091  0.3175811240584708  0.23660973821116466  1.0000
  C   C23       1.0  0.7003802313746519  0.1824065914146118  0.7366165654977689  1.0000
  C   C24       1.0  0.2996221873013951  0.6824113613833235  0.7633855183590228  1.0000
  C   C25       1.0  0.36740851759983423  0.746812934983474  0.2192438937610532  1.0000
  C   C26       1.0  0.6325932709944552  0.24680263842028438  0.2807497744283864  1.0000
  C   C27       1.0  0.6325836417452279  0.25317086100815805  0.7807634615192567  1.0000
  C   C28       1.0  0.36741750525857947  0.7531846333033129  0.7192452863380792  1.0000
  C   C29       1.0  0.37300365834667554  0.8880545182071058  0.3494483366701502  1.0000
  C   C30       1.0  0.6269956349362432  0.38804872650101185  0.15054654139451884  1.0000
  C   C31       1.0  0.626984637024421  0.11195273946967181  0.6505472928163272  1.0000
  C   C32       1.0  0.37301317544032736  0.6119533174226105  0.849451407946539  1.0000
  C   C33       1.0  0.8730585775227409  0.6623718588738186  0.0883159187468862  1.0000
  C   C34       1.0  0.12694641976893453  0.1623784952670277  0.4116890327928076  1.0000
  C   C35       1.0  0.1269433693429391  0.33762149555950316  0.911687764798458  1.0000
  C   C36       1.0  0.8730535951138946  0.8376244176283618  0.5883087878529949  1.0000
  N   N1        1.0  0.9571480901638267  0.7512812065508427  0.1191083216455341  1.0000
  N   N2        1.0  0.04285267371881219  0.2512863124606994  0.3808931969283478  1.0000
  N   N3        1.0  0.0428450429597405  0.2487147547719815  0.8808999455354964  1.0000
  N   N4        1.0  0.9571541942640351  0.7487174693627949  0.6191015822630702  1.0000
  N   N5        1.0  0.8858976613477479  0.8505886891697119  0.11476192413554284  1.0000
  N   N6        1.0  0.11410274040664348  0.35059784146250195  0.3852357949799837  1.0000
  N   N7        1.0  0.11409350854050607  0.1494037963549957  0.8852485584082217  1.0000
  N   N8        1.0  0.8859041197585426  0.649405071414499  0.6147610037798825  1.0000
  N   N9        1.0  0.7640297920607253  0.8204492659870085  0.08206475185860279  1.0000
  N   N10       1.0  0.2359687689151997  0.32046065726487427  0.41793309031642417  1.0000
  N   N11       1.0  0.23596432791156016  0.17953887475684377  0.9179410612498483  1.0000
  N   N12       1.0  0.7640351437823157  0.6795413866778688  0.5820677046826361  1.0000
  N   N13       1.0  0.7529730670521674  0.7038280368679751  0.06499964154447468  1.0000
  N   N14       1.0  0.24702982754352829  0.2038359984657916  0.4350029130882119  1.0000
  N   N15       1.0  0.24702693482491608  0.29616097280170817  0.9350015450337208  1.0000
  N   N16       1.0  0.7529711481054521  0.7961686523438869  0.5649991853948889  1.0000
  O   O1        1.0  0.48165116662458013  0.6475084632639394  0.09324824059596891  1.0000
  O   O2        1.0  0.5183422172270937  0.1475141670838269  0.406741693298791  1.0000
  O   O3        1.0  0.5183342307697602  0.35251443553423906  0.906738594542773  1.0000
  O   O4        1.0  0.48165585783208087  0.8525096006579744  0.5932522840306049  1.0000
  O   O5        1.0  0.3145219869190115  0.5163942523981009  0.047241640491456786  1.0000
  O   O6        1.0  0.6854767281999584  0.016400327266659107  0.45276196105120176  1.0000
  O   O7        1.0  0.6854926376230778  0.483593888313429  0.9527691852372085  1.0000
  O   O8        1.0  0.3145125122970072  0.9836095372880324  0.5472419854126328  1.0000
  O   O9        1.0  0.4833366822894618  0.8480939071081297  0.4004500192237684  1.0000
  O   O10       1.0  0.5166656870020745  0.3480935414999919  0.09954682487192203  1.0000
  O   O11       1.0  0.5166633091238637  0.15191508846981353  0.599553860137881  1.0000
  O   O12       1.0  0.4833431598662798  0.6519076334447789  0.9004416998104077  1.0000
  O   O13       1.0  0.31716487667249277  0.9802661548335506  0.363760416646933  1.0000
  O   O14       1.0  0.6828350344195684  0.48026698100692766  0.13623694224157384  1.0000
  O   O15       1.0  0.6828283372324648  0.0197393649044741  0.6362269816607691  1.0000
  O   O16       1.0  0.3171639518966741  0.5197515730677154  0.863774103523589  1.0000
