data_image0
_chemical_formula_structural       Cu4H64C52N8O16
_chemical_formula_sum              "Cu4 H64 C52 N8 O16"
_cell_length_a       8.112962544
_cell_length_b       11.453048606746576
_cell_length_c       14.8381
_cell_angle_alpha    108.30552816349253
_cell_angle_beta     90.0
_cell_angle_gamma    90.0

_space_group_name_H-M_alt    "P 1"
_space_group_IT_number       1

loop_
  _space_group_symop_operation_xyz
  'x, y, z'

loop_
  _atom_site_type_symbol
  _atom_site_label
  _atom_site_symmetry_multiplicity
  _atom_site_fract_x
  _atom_site_fract_y
  _atom_site_fract_z
  _atom_site_occupancy
  Cu  Cu1       1.0  0.9318938623217718  0.058184742434470096  0.9471086809753333  1.0000
  Cu  Cu2       1.0  0.4318903213218164  0.44181391861842195  0.5528889725997673  1.0000
  Cu  Cu3       1.0  0.0681058241059702  0.9418089009925479  0.05288236464429013  1.0000
  Cu  Cu4       1.0  0.5681007369383977  0.5581926001842915  0.447112607762108  1.0000
  H   H1        1.0  0.8460694798938064  0.31665331115901546  0.9406886072992791  1.0000
  H   H2        1.0  0.3460622411077665  0.18334810890295467  0.5593117369682048  1.0000
  H   H3        1.0  0.1539339043200201  0.6833458502861589  0.05931455911244399  1.0000
  H   H4        1.0  0.6539349801292502  0.8166620885785247  0.44068332187250553  1.0000
  H   H5        1.0  0.7449707757457631  0.4193427093522359  0.8259587131058623  1.0000
  H   H6        1.0  0.2449721651272512  0.0806559517006562  0.6740416362321755  1.0000
  H   H7        1.0  0.2550264454912536  0.5806573717626263  0.17404669808479406  1.0000
  H   H8        1.0  0.7550312190865682  0.9193496474323622  0.32595298176563153  1.0000
  H   H9        1.0  0.6685745152381415  0.2902026911334445  0.6615997280378924  1.0000
  H   H10       1.0  0.1685722068335451  0.2097987289285257  0.8384019641110569  1.0000
  H   H11       1.0  0.3314214734035161  0.7097983096511129  0.3384072539909511  1.0000
  H   H12       1.0  0.8314237818081054  0.7902077898741879  0.16159018108054118  1.0000
  H   H13       1.0  0.7889423826729782  0.971599761341224  0.7460879825241734  1.0000
  H   H14       1.0  0.2889425394591072  0.5283989808265375  0.7539103646564487  1.0000
  H   H15       1.0  0.2110646993269327  0.028399400103950298  0.2539151838875569  1.0000
  H   H16       1.0  0.7110596121593531  0.4716112166549492  0.2460900857101294  1.0000
  H   H17       1.0  0.6312934359333084  0.9489924409605521  0.5916717496493575  1.0000
  H   H18       1.0  0.1313022208869725  0.5510099798859825  0.9083308590618345  1.0000
  H   H19       1.0  0.3686976223268985  0.051009479493700396  0.4083354553362142  1.0000
  H   H20       1.0  0.8686974655407695  0.44899377990766  0.09167207425205254  1.0000
  H   H21       1.0  0.5976965841640904  0.08205109062415519  0.5562724219553061  1.0000
  H   H22       1.0  0.0977004387363039  0.4179521687771981  0.9437263464034304  1.0000
  H   H23       1.0  0.4022969392868418  0.9179535888391683  0.4437314082560492  1.0000
  H   H24       1.0  0.902298015096072  0.5820451533285933  0.05626963468750288  1.0000
  H   H25       1.0  0.9687090205799436  0.1732666897339357  0.5852170022876707  1.0000
  H   H26       1.0  0.4687067121753472  0.3267273729705025  0.9147849280296614  1.0000
  H   H27       1.0  0.031286968061714  0.8267306323718557  0.41478504426986273  1.0000
  H   H28       1.0  0.5312917416570286  0.6732644311171326  0.08520904138017472  1.0000
  H   H29       1.0  0.8227475430582984  0.16929923468055108  0.4947039441018434  1.0000
  H   H30       1.0  0.3227427694629839  0.33069666736327  0.005297758188213196  1.0000
  H   H31       1.0  0.177247212987993  0.8306962480858573  0.5052990044237049  1.0000
  H   H32       1.0  0.6772519865833146  0.6692932973849821  0.9946984610711099  1.0000
  H   H33       1.0  0.8822535493268759  0.8429949908834614  0.5596315189347578  1.0000
  H   H34       1.0  0.3822586364944485  0.656997313596456  0.9403652675487706  1.0000
  H   H35       1.0  0.1177399741240563  0.15699957221325178  0.4403705326933363  1.0000
  H   H36       1.0  0.6177361195518429  0.3429944904911792  0.05963139762400259  1.0000
  H   H37       1.0  0.0045766265773608  0.9702239354812718  0.6268315313410682  1.0000
  H   H38       1.0  0.5045801675773163  0.5297646903198725  0.873167059078483  1.0000
  H   H39       1.0  0.9954193620642968  0.029768788276058396  0.3731714222550338  1.0000
  H   H40       1.0  0.4954145884689822  0.4702252744283726  0.12682916018083293  1.0000
  H   H41       1.0  0.5639357972117836  0.9522020881873273  0.1788942247099854  1.0000
  H   H42       1.0  0.0639408843793632  0.5477975736501293  0.3211056933088302  1.0000
  H   H43       1.0  0.4360675870020359  0.0478145469820035  0.8211104821166162  1.0000
  H   H44       1.0  0.9360612672391042  0.4521822747315056  0.6788894213079644  1.0000
  H   H45       1.0  0.4670784537027686  0.0095903155532397  0.09369181195128821  1.0000
  H   H46       1.0  0.9670721339398298  0.4904175421965817  0.406308745131817  1.0000
  H   H47       1.0  0.5329273957017762  0.9904152835797857  0.9063034799872512  1.0000
  H   H48       1.0  0.0329189243203771  0.5095816192485927  0.5936937473391737  1.0000
  H   H49       1.0  0.5676964456598128  0.2257467210659172  0.19234474898758697  1.0000
  H   H50       1.0  0.0676830438969702  0.274254698996053  0.30765559527989694  1.0000
  H   H51       1.0  0.4323131015308164  0.7742533600489522  0.8076465094476577  1.0000
  H   H52       1.0  0.9323129447446874  0.7257444624491214  0.6923522887169684  1.0000
  H   H53       1.0  0.4081406738958577  0.15936128398355717  0.2404625658252257  1.0000
  H   H54       1.0  0.9081306563468345  0.3406456540965763  0.25953776830115066  1.0000
  H   H55       1.0  0.5918701058901377  0.8406415561403904  0.7595408184726724  1.0000
  H   H56       1.0  0.0918702626762666  0.6593535073485981  0.74045865870324  1.0000
  H   H57       1.0  0.6174797397166429  0.09364720577670477  0.3418415835965548  1.0000
  H   H58       1.0  0.1174688031445186  0.40635421428526536  0.1581567388487244  1.0000
  H   H59       1.0  0.3825347378554369  0.9063602326957036  0.6581595457813096  1.0000
  H   H60       1.0  0.8825308832832235  0.5936412684811357  0.8418387963287588  1.0000
  H   H61       1.0  0.7743410580202976  0.1695006423432019  0.29733666039788187  1.0000
  H   H62       1.0  0.2743288888528141  0.3305062957369245  0.2026656955506922  1.0000
  H   H63       1.0  0.2256660239796133  0.8305077157988947  0.7026613222330413  1.0000
  H   H64       1.0  0.725663402002759  0.6694891870294839  0.7973372529748561  1.0000
  C   C1        1.0  0.8105226622626418  0.2630448451143508  0.868914495639082  1.0000
  C   C2        1.0  0.310515423476609  0.23695473560823635  0.6310874245371495  1.0000
  C   C3        1.0  0.1894807219511776  0.7369543163308236  0.1310906925948458  1.0000
  C   C4        1.0  0.6894879607372175  0.7630573012126334  0.36891010203921587  1.0000
  C   C5        1.0  0.7549979390118082  0.3196900604836017  0.8042023897515733  1.0000
  C   C6        1.0  0.2549907002257683  0.18030860056929038  0.6957993074679296  1.0000
  C   C7        1.0  0.2450017474159338  0.6803091009615726  0.19580347242308696  1.0000
  C   C8        1.0  0.7450089862019738  0.819698837903111  0.3041937346211371  1.0000
  C   C9        1.0  0.7110287972753184  0.24702235973187203  0.7132957570628806  1.0000
  C   C10       1.0  0.2110264888707221  0.2529799799997932  0.7867075059242695  1.0000
  C   C11       1.0  0.2889696565570645  0.7529777213829973  0.28671234989070626  1.0000
  C   C12       1.0  0.78897319755702  0.7470274584726154  0.21328688404626212  1.0000
  C   C13       1.0  0.7215909069282631  0.1188516733689582  0.6897146950402231  1.0000
  C   C14       1.0  0.2215885985236739  0.381150666362707  0.8102872200654547  1.0000
  C   C15       1.0  0.27841124469019723  0.8811484077459113  0.3102900422097009  1.0000
  C   C16       1.0  0.7784098553087091  0.6188567721097016  0.18971053960873974  1.0000
  C   C17       1.0  0.7783728774478647  0.0706048816314819  0.7595939704074226  1.0000
  C   C18       1.0  0.2783693364479092  0.4293946990911053  0.7404066018873368  1.0000
  C   C19       1.0  0.2216305067659619  0.9293942798136924  0.24040784812283528  1.0000
  C   C20       1.0  0.7216254195983893  0.5706145787206864  0.25959227764104753  1.0000
  C   C21       1.0  0.6863473077560442  0.0362809693685477  0.5901193972699944  1.0000
  C   C22       1.0  0.1863523949236168  0.4637204506934225  0.9098829688196874  1.0000
  C   C23       1.0  0.313646215694888  0.9637181920766267  0.40988309520099625  1.0000
  C   C24       1.0  0.8136460589087591  0.536280550091135  0.09011794774255578  1.0000
  C   C25       1.0  0.914757089010422  0.1139645486230947  0.5176987318860213  1.0000
  C   C26       1.0  0.4147535480104665  0.3860313534207264  0.9823022964633027  1.0000
  C   C27       1.0  0.0852425974173201  0.8860327734826966  0.482303314671519  1.0000
  C   C28       1.0  0.5852449058219165  0.6139622900062918  0.017692792800723087  1.0000
  C   C29       1.0  0.9488667004500329  0.9252631235550479  0.5560385098708522  1.0000
  C   C30       1.0  0.4488693224268872  0.5747291809248692  0.9439596244941415  1.0000
  C   C31       1.0  0.0511292881916177  0.0747305198719772  0.4439633188005133  1.0000
  C   C32       1.0  0.5511291314054887  0.42526446250214883  0.0560381605328146  1.0000
  C   C33       1.0  0.7287954268164043  0.0198464719638309  0.09408361757083132  1.0000
  C   C34       1.0  0.2287869554350053  0.480149430079983  0.4059174107784926  1.0000
  C   C35       1.0  0.2712141203742249  0.9801526894813435  0.9059155051964894  1.0000
  C   C36       1.0  0.7712053354205679  0.5198432936773401  0.5940855428176094  1.0000
  C   C37       1.0  0.5666425766257035  0.0260524030487232  0.14633586680874805  1.0000
  C   C38       1.0  0.0666378030303889  0.47394809734355187  0.3536635805612677  1.0000
  C   C39       1.0  0.4333632727788412  0.9739513567449122  0.8536610010385389  1.0000
  C   C40       1.0  0.9333569530159025  0.5260446264137713  0.646341394857032  1.0000
  C   C41       1.0  0.5398829313268934  0.1513022184683024  0.22216168959089094  1.0000
  C   C42       1.0  0.0398732273501281  0.3487001212633629  0.27783887763332155  1.0000
  C   C43       1.0  0.4601229180776585  0.8487033806647161  0.7778342762883881  1.0000
  C   C44       1.0  0.9601227612915224  0.6512953615030455  0.7221654187736989  1.0000
  C   C45       1.0  0.6417618683387829  0.1689957436820322  0.3127263510212118  1.0000
  C   C46       1.0  0.1417509317666585  0.3310065960496331  0.18727421620299375  1.0000
  C   C47       1.0  0.3582464462564872  0.8310089357812982  0.6872700658420712  1.0000
  C   C48       1.0  0.8582425916842737  0.6689898063864631  0.8127262595163459  1.0000
  C   C49       1.0  0.595805782879502  0.2899350672529337  0.38681436454961476  1.0000
  C   C50       1.0  0.0958022418795466  0.2100645134696535  0.11318620774515151  1.0000
  C   C51       1.0  0.4041951361435991  0.7100696122103968  0.6131847480766054  1.0000
  C   C52       1.0  0.9041925141667448  0.7899291299573646  0.8868129251632768  1.0000
  N   N1        1.0  0.8227574038211927  0.1405062159482213  0.8472076458666039  1.0000
  N   N2        1.0  0.322752630225871  0.3594906057652878  0.6527929314987091  1.0000
  N   N3        1.0  0.1772496781787183  0.8594920258272651  0.1527952975883906  1.0000
  N   N4        1.0  0.6772433584157795  0.6405195917161919  0.3472054970456711  1.0000
  N   N5        1.0  0.8324566967210671  0.0057102291206447995  0.5288568583846569  1.0000
  N   N6        1.0  0.3324630164840059  0.4942875122625594  0.97114528981885  1.0000
  N   N7        1.0  0.1675392919205834  0.9942870929851465  0.47114384029141126  1.0000
  N   N8        1.0  0.6675379025390953  0.5057079705038419  0.028855636884493694  1.0000
  O   O1        1.0  0.7321061779574762  0.07096907082971168  0.02916824667376971  1.0000
  O   O2        1.0  0.2320915435992674  0.4290286705534925  0.4708318797075394  1.0000
  O   O3        1.0  0.2679181603774978  0.9290236529276185  0.9708272935742672  1.0000
  O   O4        1.0  0.7679069102331084  0.5709750892401431  0.5291757711914897  1.0000
  O   O5        1.0  0.8487885852613388  0.9649321560707094  0.11908756852027125  1.0000
  O   O6        1.0  0.3487850442613833  0.5350647467576691  0.38091302850982345  1.0000
  O   O7        1.0  0.151209868571037  0.0350660857047771  0.8809194185791256  1.0000
  O   O8        1.0  0.6512072465941827  0.4649270573299659  0.6190822887814846  1.0000
  O   O9        1.0  0.5163194058005232  0.2843260017984619  0.4595085071666531  1.0000
  O   O10       1.0  0.0163232603727366  0.21566714123627406  0.0404851129051522  1.0000
  O   O11       1.0  0.4836765828411274  0.7156832760133298  0.5404876765988007  1.0000
  O   O12       1.0  0.9836776586503646  0.7843200645028929  0.9595077417210476  1.0000
  O   O13       1.0  0.6361104186061652  0.38740809895037387  0.3682912341678701  1.0000
  O   O14       1.0  0.1361105753923013  0.1125951604509794  0.13171157783526874  1.0000
  O   O15       1.0  0.3639028263705484  0.6126020985311057  0.6317098901394403  1.0000
  O   O16       1.0  0.8639026695844194  0.8874040009941949  0.8682882188727917  1.0000
