data_image0
_chemical_formula_structural       ZnH20C24N18O4
_chemical_formula_sum              "Zn1 H20 C24 N18 O4"
_cell_length_a       7.573121471048171
_cell_length_b       7.35582518891838
_cell_length_c       14.445327458617259
_cell_angle_alpha    75.96036988062748
_cell_angle_beta     78.66804883626251
_cell_angle_gamma    62.961865458343944

_space_group_name_H-M_alt    "P 1"
_space_group_IT_number       1

loop_
  _space_group_symop_operation_xyz
  'x, y, z'

loop_
  _atom_site_type_symbol
  _atom_site_label
  _atom_site_symmetry_multiplicity
  _atom_site_fract_x
  _atom_site_fract_y
  _atom_site_fract_z
  _atom_site_occupancy
  Zn  Zn1       1.0  0.9999991858276401  0.9999984754568699  1.277987195134456e-06  1.0000
  H   H1        1.0  0.8716540994495785  0.39686667935303177  0.4638167901700072  1.0000
  H   H2        1.0  0.12834179042437202  0.603129102637588  0.536183816540408  1.0000
  H   H3        1.0  0.08773648226868147  0.1651405267710899  0.4935556353235455  1.0000
  H   H4        1.0  0.9122681598172735  0.8348632231579882  0.5064458387027102  1.0000
  H   H5        1.0  0.3015891650540894  0.6839499244700276  0.8709065205844057  1.0000
  H   H6        1.0  0.6984127605695747  0.316044339928041  0.129091587422316  1.0000
  H   H7        1.0  0.40020539517536957  0.6609524402176845  0.695288430435447  1.0000
  H   H8        1.0  0.5997985713060245  0.3390465559801328  0.3047102540484731  1.0000
  H   H9        1.0  0.8446657416971418  0.2676641097017978  0.8006725932176836  1.0000
  H   H10       1.0  0.15533555341405486  0.7323380087896397  0.19932804390653297  1.0000
  H   H11       1.0  0.5879572216573551  0.6294038660437238  0.5489185921868653  1.0000
  H   H12       1.0  0.41203270900778227  0.37059648523345595  0.4510806567718221  1.0000
  H   H13       1.0  0.37186713607412253  0.860401491456969  0.5184938244257467  1.0000
  H   H14       1.0  0.6281302493883627  0.1396099147524907  0.48150533994122224  1.0000
  H   H15       1.0  0.6344827085836683  0.783174079101414  0.21240600807148982  1.0000
  H   H16       1.0  0.365511842144265  0.21682168471586744  0.7875947372559154  1.0000
  H   H17       1.0  0.15776041709757035  0.35642509731337657  0.14531942751730756  1.0000
  H   H18       1.0  0.8422470041479072  0.6435848725601261  0.8546782052604345  1.0000
  H   H19       1.0  0.04892045597910058  0.36102474518406064  0.3206530438993553  1.0000
  H   H20       1.0  0.9510923044456592  0.6389853241193747  0.6793454173758562  1.0000
  C   C1        1.0  0.7747350775706608  0.7122781332092954  0.03947520797690629  1.0000
  C   C2        1.0  0.22526945672596094  0.28771627448174536  0.9605281546575739  1.0000
  C   C3        1.0  0.46005871135974274  0.7310280284190254  0.037888666774449645  1.0000
  C   C4        1.0  0.5399304531158934  0.2689740468269264  0.9621194412471326  1.0000
  C   C5        1.0  0.22304838765413848  0.8101786644324559  0.8152804106741486  1.0000
  C   C6        1.0  0.7769495778870733  0.18982179588476808  0.18471800658259954  1.0000
  C   C7        1.0  0.27545302701506813  0.798348945600807  0.7178947854571051  1.0000
  C   C8        1.0  0.7245482524719121  0.20165002761861217  0.282104867743513  1.0000
  C   C9        1.0  0.02112927053315869  0.11829160907133482  0.679705394507515  1.0000
  C   C10       1.0  0.9788719915490559  0.8817073908846634  0.32029564165853947  1.0000
  C   C11       1.0  0.9694942456045225  0.13223741309317208  0.7769930377592902  1.0000
  C   C12       1.0  0.030503652098168722  0.8677599821617574  0.22300854447015445  1.0000
  C   C13       1.0  0.8951654246504431  0.2904485173331394  0.607433582804191  1.0000
  C   C14       1.0  0.10484313756714417  0.7095427595010475  0.3925663056075663  1.0000
  C   C15       1.0  0.4443982898868556  0.9170392410687425  0.33339423193945095  1.0000
  C   C16       1.0  0.5556036756876211  0.08296130050507598  0.6666051524317567  1.0000
  C   C17       1.0  0.5027000613807145  0.9142843020721257  0.23540959966916114  1.0000
  C   C18       1.0  0.49729660674584847  0.08571924523890566  0.7645878656800278  1.0000
  C   C19       1.0  0.24135336305116076  0.22779387349824273  0.19929752132113523  1.0000
  C   C20       1.0  0.758654669521462  0.7722114410270535  0.8007013321935831  1.0000
  C   C21       1.0  0.1811580831292261  0.23062938728342164  0.2970776779269714  1.0000
  C   C22       1.0  0.818852619033038  0.7693759769568372  0.7029215898364783  1.0000
  C   C23       1.0  0.5687909958939842  0.7407270766141918  0.4049869143135468  1.0000
  C   C24       1.0  0.43120494441371443  0.25927179717530174  0.5950119103896014  1.0000
  N   N1        1.0  0.07174114766888096  0.9785014458610561  0.8443364567162777  1.0000
  N   N2        1.0  0.9282567761409625  0.021495909289008405  0.15566305106501938  1.0000
  N   N3        1.0  0.17649785995214268  0.9528636318382624  0.6497807281325905  1.0000
  N   N4        1.0  0.8235034195348447  0.04713534138115699  0.3502189250680274  1.0000
  N   N5        1.0  0.6411054497161004  0.6428655587207287  0.058895755695267824  1.0000
  N   N6        1.0  0.35888916528924847  0.3571396141760274  0.9411065584374967  1.0000
  N   N7        1.0  0.2926179324425534  0.7878681484362672  0.02529853579667218  1.0000
  N   N8        1.0  0.7073792461436597  0.21212455992882437  0.9747037143040203  1.0000
  N   N9        1.0  0.9568181486424194  0.2806247049132367  0.5151844939121162  1.0000
  N   N10       1.0  0.04318447691240803  0.7193774451198325  0.4848166960778286  1.0000
  N   N11       1.0  0.9115260032454913  0.7541210847484976  0.027937115479559783  1.0000
  N   N12       1.0  0.08847453972024508  0.24587322831766295  0.9720645885577356  1.0000
  N   N13       1.0  0.5033437527542192  0.7453128096882436  0.4973446425675761  1.0000
  N   N14       1.0  0.49665286315804025  0.2546908178325111  0.502656971677915  1.0000
  N   N15       1.0  0.28149014810607303  0.0748577358383997  0.36455269439673543  1.0000
  N   N16       1.0  0.7185165209939439  0.9251444286098262  0.6354460052940852  1.0000
  N   N17       1.0  0.4015345100448259  0.06862716613233029  0.1679071788736337  1.0000
  N   N18       1.0  0.598466158115002  0.9313764624353025  0.8320912535900079  1.0000
  O   O1        1.0  0.7371119005770409  0.4318768147377128  0.6371549294283696  1.0000
  O   O2        1.0  0.2628852780091648  0.5681158936273788  0.36284732067232994  1.0000
  O   O3        1.0  0.7279734827749208  0.6004398671784016  0.3752530183672036  1.0000
  O   O4        1.0  0.27201972880700237  0.3995558784655345  0.6247478655771914  1.0000
