data_image0
_chemical_formula_structural       Zn2H90C77N4O19
_chemical_formula_sum              "Zn2 H90 C77 N4 O19"
_cell_length_a       9.978994630298674
_cell_length_b       10.886880452135593
_cell_length_c       23.446337448925647
_cell_angle_alpha    90.43846675413154
_cell_angle_beta     90.13427816643265
_cell_angle_gamma    90.80703655713447

_space_group_name_H-M_alt    "P 1"
_space_group_IT_number       1

loop_
  _space_group_symop_operation_xyz
  'x, y, z'

loop_
  _atom_site_type_symbol
  _atom_site_label
  _atom_site_symmetry_multiplicity
  _atom_site_fract_x
  _atom_site_fract_y
  _atom_site_fract_z
  _atom_site_occupancy
  Zn  Zn1       1.0  0.632378348646185  0.5156770246722785  0.5032144576838818  1.0000
  Zn  Zn2       1.0  0.34188222248509  0.5102425421720724  0.4977764873175092  1.0000
  H   H1        1.0  0.5573058770943433  0.787556784127837  0.9342183763444043  1.0000
  H   H2        1.0  0.6511175108239726  0.3669825182780643  0.6683431738241057  1.0000
  H   H3        1.0  0.6744925070947758  0.3503227681223819  0.7747764337969585  1.0000
  H   H4        1.0  0.2814096040178953  0.8918362547137307  0.49347333855508424  1.0000
  H   H5        1.0  0.2817411586687513  0.12131982894543822  0.4843212318079609  1.0000
  H   H6        1.0  0.7842206520176873  0.12963040090188827  0.5617662301597266  1.0000
  H   H7        1.0  0.8125612797819528  0.9086249920458297  0.48158240503682503  1.0000
  H   H8        1.0  0.5281632063626773  0.8087660544474035  0.041465713388319614  1.0000
  H   H9        1.0  0.8532273687696375  0.728230147613921  0.4166166873729581  1.0000
  H   H10       1.0  0.129457965620297  0.647189585199591  0.3766566286919898  1.0000
  H   H11       1.0  0.3643340972615405  0.3842304467603554  0.31369967331747983  1.0000
  H   H12       1.0  0.343764334840536  0.7919897680914474  0.7128501865691209  1.0000
  H   H13       1.0  0.40455077803110834  0.7507647643312225  0.6442963935395057  1.0000
  H   H14       1.0  0.23671824502867617  0.7990192781236873  0.6519393458240614  1.0000
  H   H15       1.0  0.24333428426350423  0.5706197950209672  0.640655751461921  1.0000
  H   H16       1.0  0.18141958946628023  0.6102071692905254  0.7083497311249192  1.0000
  H   H17       1.0  0.8828488566666834  0.24550795464012506  0.4100094034851693  1.0000
  H   H18       1.0  0.7173105664962592  0.25235364236336016  0.4370858702349026  1.0000
  H   H19       1.0  0.8435065730476125  0.045110408521154007  0.36697296831636816  1.0000
  H   H20       1.0  0.694260690646253  0.0218370565631858  0.4058680389980865  1.0000
  H   H21       1.0  0.5822108058487814  0.19173800188212195  0.35376249906890694  1.0000
  H   H22       1.0  0.6426644329021514  0.08064803018650929  0.3046283148785207  1.0000
  H   H23       1.0  0.7297735402758434  0.22222376823965106  0.3143543942640933  1.0000
  H   H24       1.0  0.7641795113076952  0.008422587777488399  0.6396025345381207  1.0000
  H   H25       1.0  0.6398611166110584  0.8929711431859385  0.6275526000499312  1.0000
  H   H26       1.0  0.7895849331666013  0.8569971610669427  0.6641206130932602  1.0000
  H   H27       1.0  0.7997169082414644  0.7767192495663552  0.5645599235406352  1.0000
  H   H28       1.0  0.9238314905787491  0.8919899461929148  0.5749385716959311  1.0000
  H   H29       1.0  0.26193247014773385  0.2664300859280075  0.5799611190310046  1.0000
  H   H30       1.0  0.11787376479330902  0.23334528013776887  0.5364074938325986  1.0000
  H   H31       1.0  0.112872718370447  0.2426716730107543  0.6670951425768906  1.0000
  H   H32       1.0  0.9795136360390019  0.19487857986807458  0.6218459182866455  1.0000
  H   H33       1.0  0.12379775690389748  0.015383692802430498  0.5873336049795129  1.0000
  H   H34       1.0  0.0927112421648957  0.010870124042028802  0.6617877012170015  1.0000
  H   H35       1.0  0.2505416525096251  0.06322353771174961  0.6360548841871323  1.0000
  H   H36       1.0  0.7697620757086128  0.57197855030563  0.6389510019511919  1.0000
  H   H37       1.0  0.9407432602791559  0.5994091549460662  0.6197194756780677  1.0000
  H   H38       1.0  0.8560818934548281  0.3976224245838296  0.7028316898427536  1.0000
  H   H39       1.0  0.020665998479898903  0.4516910664738631  0.6890823353238817  1.0000
  H   H40       1.0  0.9548161550011187  0.6634613935956963  0.7272043399338843  1.0000
  H   H41       1.0  0.932464716323139  0.5485779916925039  0.7796407274442249  1.0000
  H   H42       1.0  0.7918315528135621  0.6045167694406075  0.7420672265868833  1.0000
  H   H43       1.0  0.7962700624352763  0.4628047210200208  0.3045554436678161  1.0000
  H   H44       1.0  0.8479970076027783  0.42028631877158773  0.37370580136629883  1.0000
  H   H45       1.0  0.043511127299609605  0.5172889067965869  0.2831467461324166  1.0000
  H   H46       1.0  0.08748319144013551  0.4395497593994406  0.3461699745597502  1.0000
  H   H47       1.0  0.9662821953490024  0.2469415390804457  0.3080511606904893  1.0000
  H   H48       1.0  0.099475088675284  0.294093981866368  0.26328708485380764  1.0000
  H   H49       1.0  0.9311561714152744  0.32635964209924134  0.24411480153330709  1.0000
  H   H50       1.0  0.0571443808605068  0.9610594572165283  0.4384247956402022  1.0000
  H   H51       1.0  0.9716664679530924  0.8723555664430265  0.3857394002354653  1.0000
  H   H52       1.0  0.2733857809996251  0.9279258000729697  0.38742530307477824  1.0000
  H   H53       1.0  0.18994108653378558  0.8401774147512953  0.3341818137620508  1.0000
  H   H54       1.0  0.0538218449815417  0.025407741576024996  0.30716594456600893  1.0000
  H   H55       1.0  0.22817883011525447  0.05735867860290969  0.3021728400713641  1.0000
  H   H56       1.0  0.1362352478754971  0.1129798053671465  0.3613939068496279  1.0000
  H   H57       1.0  0.8035258689781131  0.1861361378150548  0.07843912936334621  1.0000
  H   H58       1.0  0.7386814974719513  0.0807433169143508  0.02535205066514121  1.0000
  H   H59       1.0  0.7137427725208525  0.054191368810400306  0.1552780203260866  1.0000
  H   H60       1.0  0.6468606888565986  0.9485668994972943  0.10473569097819542  1.0000
  H   H61       1.0  0.8808971343431365  0.9062838437281471  0.0680628657098126  1.0000
  H   H62       1.0  0.869295671815159  0.8760593379235928  0.14206530675529194  1.0000
  H   H63       1.0  0.9483487622626683  0.013228297577285301  0.11847458435606482  1.0000
  H   H64       1.0  0.438185789876961  0.0098626893066793  0.9210071434922398  1.0000
  H   H65       1.0  0.3601899584152761  0.1549513937169635  0.9203605019897129  1.0000
  H   H66       1.0  0.3963597789884759  0.9956675718959218  0.027395906446237506  1.0000
  H   H67       1.0  0.3150706106430547  0.1382396921241806  0.025703595884678503  1.0000
  H   H68       1.0  0.1416526062366756  0.0489515693428615  0.9565968690474594  1.0000
  H   H69       1.0  0.14533425304805553  0.9664160061562657  0.021594668289090204  1.0000
  H   H70       1.0  0.2224776232407635  0.9049520117596542  0.9597472206223973  1.0000
  H   H71       1.0  0.18322260777659952  0.4714534374333751  0.1986861849238793  1.0000
  H   H72       1.0  0.28479485747916305  0.4919853829915652  0.13768430506563334  1.0000
  H   H73       1.0  0.18500825725227804  0.3562558833013371  0.14454225166907972  1.0000
  H   H74       1.0  0.3213400816017539  0.28938182679668506  0.22777425654825129  1.0000
  H   H75       1.0  0.42378666328679765  0.3083655545684039  0.16801202880196803  1.0000
  H   H76       1.0  0.4873508578452713  0.868170895983873  0.29261754945972746  1.0000
  H   H77       1.0  0.4108380709272694  0.7916996583145277  0.3508733727639851  1.0000
  H   H78       1.0  0.5261764181579807  0.9141352070557359  0.3640485583234394  1.0000
  H   H79       1.0  0.6331370165163719  0.7131582149966462  0.38246359567936855  1.0000
  H   H80       1.0  0.7120309448434483  0.78398729455408  0.32429849538011274  1.0000
  H   H81       1.0  0.8521880266312678  0.5444432272382616  0.2068850124765761  1.0000
  H   H82       1.0  0.8046569337027235  0.6104056889335111  0.141341591411809  1.0000
  H   H83       1.0  0.9229531109752642  0.6871035742290204  0.1855210754020362  1.0000
  H   H84       1.0  0.6732711619065982  0.7692969484652322  0.18930796518864673  1.0000
  H   H85       1.0  0.7664130585931873  0.7537473992116616  0.252249066917095  1.0000
  H   H86       1.0  0.13643196594649962  0.43508868774223697  0.7891604649142823  1.0000
  H   H87       1.0  0.2384467432671471  0.40191873240107173  0.8487011661546549  1.0000
  H   H88       1.0  0.11069164416511511  0.5139838512957907  0.8549763044096611  1.0000
  H   H89       1.0  0.334257620139006  0.618675710727338  0.8459255027380624  1.0000
  H   H90       1.0  0.23390173951478493  0.6516423420192652  0.7872155428051146  1.0000
  C   C1        1.0  0.4950745555798192  0.7458109608257149  0.5063204165388059  1.0000
  C   C2        1.0  0.5529047911785411  0.7075524246398004  0.9618690123839502  1.0000
  C   C3        1.0  0.5410574102631857  0.7194789417902641  0.0210614998548166  1.0000
  C   C4        1.0  0.5458587070243084  0.6155590832896677  0.05506546744761921  1.0000
  C   C5        1.0  0.560522631114388  0.4976928320614604  0.03029238606414711  1.0000
  C   C6        1.0  0.5842135599400677  0.3940389978196065  0.06496187775279341  1.0000
  C   C7        1.0  0.5826547453014044  0.2772339445304368  0.040216238926781514  1.0000
  C   C8        1.0  0.5529650036059408  0.2613528268737682  0.9801831414938393  1.0000
  C   C9        1.0  0.5230624755961203  0.6265551408210044  0.11718659761294255  1.0000
  C   C10       1.0  0.6138158981569859  0.41553053654470756  0.12641446156777653  1.0000
  C   C11       1.0  0.4479170325947734  0.44713286257466933  0.23431234459060596  1.0000
  C   C12       1.0  0.4826614871566264  0.5298171606850631  0.3902438802671497  1.0000
  C   C13       1.0  0.4310677956344903  0.45090026072802647  0.29329853200061257  1.0000
  C   C14       1.0  0.4965799262971585  0.5395764248329513  0.32668728374665085  1.0000
  C   C15       1.0  0.5796459672060692  0.6303585845867373  0.3021502904361953  1.0000
  C   C16       1.0  0.6105102815667038  0.6202126143484108  0.24349652586734297  1.0000
  C   C17       1.0  0.5412213776457833  0.5303730160025992  0.21089379685204798  1.0000
  C   C18       1.0  0.39232803503952596  0.5258839305149294  0.768223884343584  1.0000
  C   C19       1.0  0.3804283490281223  0.5365366896414089  0.7084105897007976  1.0000
  C   C20       1.0  0.47813712751198534  0.4817062330501188  0.6735447425859322  1.0000
  C   C21       1.0  0.5804781772150278  0.4115002918670143  0.6969107786590102  1.0000
  C   C22       1.0  0.5932570389864438  0.40176855496287806  0.7556404002053088  1.0000
  C   C23       1.0  0.48897714622160754  0.279708776836415  0.4961102699049178  1.0000
  C   C24       1.0  0.5020026192556628  0.46178943789389143  0.7904082465740458  1.0000
  C   C25       1.0  0.6113859017399436  0.9517617666687244  0.5110099034872776  1.0000
  C   C26       1.0  0.4938502575164918  0.8818575383582327  0.506579246974056  1.0000
  C   C27       1.0  0.37404854414312894  0.9455355734675452  0.4976454502390696  1.0000
  C   C28       1.0  0.3745624766541482  0.07292213911637187  0.49264926467314757  1.0000
  C   C29       1.0  0.4933564390537413  0.1435649113145843  0.49809429649887  1.0000
  C   C30       1.0  0.6115958652369571  0.0794317162843043  0.5076381585474438  1.0000
  C   C31       1.0  0.7627454860749694  0.0892559396155335  0.5194350830079913  1.0000
  C   C32       1.0  0.761696068369524  0.9430068594351797  0.5200044679251548  1.0000
  C   C33       1.0  0.05669704837138309  0.5663944398194971  0.4598266315528791  1.0000
  C   C34       1.0  0.4805840223526873  0.498025384814575  0.6100139561005237  1.0000
  C   C35       1.0  0.057357504450585906  0.4541634333959196  0.5404009923489214  1.0000
  C   C36       1.0  0.9135312720235262  0.46414397580938543  0.542362049859257  1.0000
  C   C37       1.0  0.9187866541153512  0.5575102406641222  0.4567339241371543  1.0000
  C   C38       1.0  0.9086214616259696  0.6445684993775344  0.4058386693595041  1.0000
  C   C39       1.0  0.0675804966422859  0.6653168949345911  0.4144832195503768  1.0000
  C   C40       1.0  0.517524408655838  0.3544313823729722  0.8823031791783508  1.0000
  C   C41       1.0  0.5611219764034275  0.58134983773369  0.874028050865299  1.0000
  C   C42       1.0  0.5550383532254061  0.5913797512523544  0.9366315850265398  1.0000
  C   C43       1.0  0.5522375698039427  0.48380478702735275  0.9700724655890486  1.0000
  C   C44       1.0  0.5421047911188808  0.3644578334744821  0.9447953224540839  1.0000
  C   C45       1.0  0.27156405056270216  0.6125279395095475  0.6816562097403321  1.0000
  C   C46       1.0  0.31661337076504037  0.7464337609404691  0.6723431767339677  1.0000
  C   C47       1.0  0.8004912029732765  0.1899047764181034  0.42799726706898883  1.0000
  C   C48       1.0  0.7556417121223546  0.0921984663300819  0.38448098699384314  1.0000
  C   C49       1.0  0.673452483214767  0.1496971425707798  0.3366301646523625  1.0000
  C   C50       1.0  0.8146754407088822  0.875827131548192  0.5723063318335024  1.0000
  C   C51       1.0  0.7485260606479115  0.9107727837933337  0.6288326839925775  1.0000
  C   C52       1.0  0.1521153567480198  0.26743898213221934  0.578303776573975  1.0000
  C   C53       1.0  0.08923665469963991  0.19524908682873132  0.6265991425337419  1.0000
  C   C54       1.0  0.1420052855764951  0.0640051454680375  0.6279564770927664  1.0000
  C   C55       1.0  0.8688630186883373  0.5300546837300287  0.6356160850080601  1.0000
  C   C56       1.0  0.9156191468271118  0.4798476444826746  0.692090671351899  1.0000
  C   C57       1.0  0.8976549666840867  0.5794975798478745  0.7378017064530483  1.0000
  C   C58       1.0  0.874862269713752  0.4778850764380565  0.3369186204791604  1.0000
  C   C59       1.0  0.010954227898466203  0.4438410314696952  0.31229534498641703  1.0000
  C   C60       1.0  0.0016528699789973007  0.32118952048767824  0.28015580420665753  1.0000
  C   C61       1.0  0.0692073562392039  0.8854895181274146  0.40747412803710154  1.0000
  C   C62       1.0  0.1779005300749787  0.9169590100338071  0.3644753134786215  1.0000
  C   C63       1.0  0.14709151884174082  0.0344353110036195  0.33203873324823974  1.0000
  C   C64       1.0  0.7253003709837245  0.11628422932231078  0.0690978236669153  1.0000
  C   C65       1.0  0.7298436141285479  0.014330304128975499  0.11261948421508093  1.0000
  C   C66       1.0  0.8643964717214346  0.9489374259978691  0.11012494720671383  1.0000
  C   C67       1.0  0.4149847665349214  0.09062902239786298  0.9473633514505054  1.0000
  C   C68       1.0  0.33561434102080057  0.055203395047399795  0.00020685793294459998  1.0000
  C   C69       1.0  0.20400441374140854  0.9904202841871028  0.9836182291659413  1.0000
  C   C70       1.0  0.36293497036856337  0.3594100605320065  0.19893009883064394  1.0000
  C   C71       1.0  0.2475722006277508  0.4233864125201379  0.1681047893873071  1.0000
  C   C72       1.0  0.6176850690373925  0.7412134267591811  0.3381390756538778  1.0000
  C   C73       1.0  0.5043284660927797  0.8347842080819776  0.3361674759184298  1.0000
  C   C74       1.0  0.7188173766242797  0.7011760924201056  0.217563200477251  1.0000
  C   C75       1.0  0.8301173117971035  0.6316775670696585  0.18591201781680414  1.0000
  C   C76       1.0  0.2874136741373404  0.5768600719730159  0.8079705900245957  1.0000
  C   C77       1.0  0.18731999536741736  0.4763657125895904  0.8263961107228897  1.0000
  N   N1        1.0  0.5254638853129165  0.46522410450366186  0.851244542653831  1.0000
  N   N2        1.0  0.559285977445043  0.5245962196790472  0.14984951314148995  1.0000
  N   N3        1.0  0.1308522512211425  0.5113565061386893  0.5000951802666906  1.0000
  N   N4        1.0  0.8425766242580436  0.5097160539270931  0.4988307190826263  1.0000
  O   O1        1.0  0.6078074585120632  0.6978841589567113  0.4943059762164453  1.0000
  O   O2        1.0  0.5901548636874026  0.6684340278457981  0.8431192915551762  1.0000
  O   O3        1.0  0.474692247059025  0.7192219144584299  0.1388775572549577  1.0000
  O   O4        1.0  0.6790749576780896  0.3458545278031764  0.15611589566650255  1.0000
  O   O5        1.0  0.3856385621584479  0.6891816988019741  0.5165669400194091  1.0000
  O   O6        1.0  0.5884838840204409  0.4995445364819702  0.41668395333288544  1.0000
  O   O7        1.0  0.36779386396600705  0.5479543857500815  0.41214260611732106  1.0000
  O   O8        1.0  0.5958642619709096  0.335290111064559  0.5124800855698554  1.0000
  O   O9        1.0  0.3807943676780994  0.3291048319918346  0.4796714002353043  1.0000
  O   O10       1.0  0.5884922521119337  0.541620785151764  0.5892000683739698  1.0000
  O   O11       1.0  0.3773698951009123  0.46529010328209347  0.581785432011529  1.0000
  O   O12       1.0  0.49090626935567633  0.25765615088807453  0.8571132338488783  1.0000
  O   O13       1.0  0.8544416103735769  0.14602575091180373  0.48079999830424225  1.0000
  O   O14       1.0  0.1156019110848874  0.3976481680060786  0.5837474674297525  1.0000
  O   O15       1.0  0.8510852976104106  0.43358634314213856  0.5908020258652087  1.0000
  O   O16       1.0  0.8622681557452125  0.6049377173171635  0.3524451673035359  1.0000
  O   O17       1.0  0.0984646416200121  0.7793308672791072  0.44158867565190013  1.0000
  O   O18       1.0  0.5957652864899928  0.1757418594133071  0.07280717035369833  1.0000
  O   O19       1.0  0.5461034863977973  0.14327680681908822  0.9616661939043143  1.0000
