data_image0
_chemical_formula_structural       Zn4H32C36N20O8
_chemical_formula_sum              "Zn4 H32 C36 N20 O8"
_cell_length_a       7.6495196040063425
_cell_length_b       9.382460008827987
_cell_length_c       14.948392653490512
_cell_angle_alpha    105.25355903947927
_cell_angle_beta     90.0001315658433
_cell_angle_gamma    89.99989947333755

_space_group_name_H-M_alt    "P 1"
_space_group_IT_number       1

loop_
  _space_group_symop_operation_xyz
  'x, y, z'

loop_
  _atom_site_type_symbol
  _atom_site_label
  _atom_site_symmetry_multiplicity
  _atom_site_fract_x
  _atom_site_fract_y
  _atom_site_fract_z
  _atom_site_occupancy
  Zn  Zn1       1.0  0.4896250284248326  0.8965511870509957  0.2146190517945641  1.0000
  Zn  Zn2       1.0  0.9896266565531847  0.6034500145152818  0.785380911534098  1.0000
  Zn  Zn3       1.0  0.5103748812408214  0.10344781178852  0.7853796333760955  1.0000
  Zn  Zn4       1.0  0.010375867656463799  0.39655008792983193  0.21461862552961722  1.0000
  H   H1        1.0  0.5255585510453926  0.14038093037400762  0.09320781455331682  1.0000
  H   H2        1.0  0.025558810658445508  0.3596202695549948  0.9067903401940214  1.0000
  H   H3        1.0  0.47444528043209294  0.8596202790670376  0.9067905680588524  1.0000
  H   H4        1.0  0.9744463280936843  0.6403809376256077  0.09320937998143822  1.0000
  H   H5        1.0  0.6751991741608664  0.28472096301351263  0.09773689591234103  1.0000
  H   H6        1.0  0.17520103385717084  0.21527898193649966  0.9022618952152044  1.0000
  H   H7        1.0  0.32480465731969593  0.7152780358240494  0.9022617892602939  1.0000
  H   H8        1.0  0.8248067194381649  0.78472443358649  0.09773885996374083  1.0000
  H   H9        1.0  0.7764673933127568  0.9559555041883314  0.02791583895075432  1.0000
  H   H10       1.0  0.27646732421881387  0.5440448050459352  0.972083726587819  1.0000
  H   H11       1.0  0.2235351308946676  0.0440434957797819  0.9720821774399087  1.0000
  H   H12       1.0  0.7235351999891934  0.45595971521645134  0.027917211698920096  1.0000
  H   H13       1.0  0.9065993507526927  0.10928780378567642  0.02402602145326681  1.0000
  H   H14       1.0  0.4065998542332352  0.3907119094531525  0.975973671506445  1.0000
  H   H15       1.0  0.09340448072636318  0.890711196181783  0.9759719949380496  1.0000
  H   H16       1.0  0.5934039772464033  0.6092926108085805  0.024027266780954907  1.0000
  H   H17       1.0  0.14597488664011854  0.7739341539212888  0.2428494529791295  1.0000
  H   H18       1.0  0.6459708925809411  0.7260718090299818  0.7571508966858574  1.0000
  H   H19       1.0  0.8540276375726138  0.22606373792034876  0.7571503866450513  1.0000
  H   H20       1.0  0.35403163162713003  0.2739305028887103  0.24284900659871772  1.0000
  H   H21       1.0  0.9156391264238621  0.8211800093367216  0.36385903145264115  1.0000
  H   H22       1.0  0.41563202401511756  0.6788190542248317  0.6361418286995076  1.0000
  H   H23       1.0  0.08436470506430283  0.17881677550768418  0.6361419626243929  1.0000
  H   H24       1.0  0.5843652711178108  0.3211799367067272  0.36386153793903736  1.0000
  H   H25       1.0  0.26822706197236806  0.1349259184007678  0.5396601866166506  1.0000
  H   H26       1.0  0.7682214306138777  0.3650717164711851  0.4603430134472362  1.0000
  H   H27       1.0  0.7317767695043289  0.8650763957770666  0.4603383791059414  1.0000
  H   H28       1.0  0.2317693281632387  0.6349239602532537  0.5396598038567363  1.0000
  H   H29       1.0  0.4784570280979424  0.07881273882144772  0.4107700260745659  1.0000
  H   H30       1.0  0.9784531622821789  0.4211846865630092  0.5892333857204619  1.0000
  H   H31       1.0  0.5215468033826198  0.9211862600161214  0.589228659098069  1.0000
  H   H32       1.0  0.0215402110367648  0.5788087829463322  0.41076772780134263  1.0000
  C   C1        1.0  0.7277923701280502  0.1563899692694761  0.19177413902793466  1.0000
  C   C2        1.0  0.22779352818884044  0.3436099232736538  0.8082247050677794  1.0000
  C   C3        1.0  0.27221015408088084  0.8436090295687393  0.8082245461440394  1.0000
  C   C4        1.0  0.7722103032908693  0.6563923886443916  0.19177519821744946  1.0000
  C   C5        1.0  0.6647110646844966  0.16903851184925142  0.10011331494435892  1.0000
  C   C6        1.0  0.1647139699492044  0.3309636518949546  0.8998865006229269  1.0000
  C   C7        1.0  0.3352901522527318  0.8309626953333051  0.8998864052291253  1.0000
  C   C8        1.0  0.835291168801355  0.6690397647592335  0.10011358577338574  1.0000
  C   C9        1.0  0.7708261545901253  0.06949402505659209  0.020772948166381908  1.0000
  C   C10       1.0  0.2708252790922003  0.43050692821282877  0.9792267911609402  1.0000
  C   C11       1.0  0.22917767688965543  0.9305060785177659  0.9792259201166758  1.0000
  C   C12       1.0  0.7291785523874452  0.5694975920489042  0.020774147126459773  1.0000
  C   C13       1.0  0.7012094479753161  0.05875284788693591  0.9241451944811274  1.0000
  C   C14       1.0  0.2012097129428554  0.4412470722754591  0.07585295406019552  1.0000
  C   C15       1.0  0.2987930762335438  0.941248359294967  0.07585452569301761  1.0000
  C   C16       1.0  0.7987954258070503  0.5587530324281431  0.9241452454422047  1.0000
  C   C17       1.0  0.1646218702153632  0.8553943016492765  0.3092247766461895  1.0000
  C   C18       1.0  0.6646216760380173  0.6446083205994171  0.6907797239386897  1.0000
  C   C19       1.0  0.8353754249144887  0.14460689988576556  0.6907782874318967  1.0000
  C   C20       1.0  0.3353795409082424  0.35539287980377315  0.3092240089226834  1.0000
  C   C21       1.0  0.03815784648185169  0.8809937049094713  0.3779965213224444  1.0000
  C   C22       1.0  0.5381508620055016  0.6190068372755632  0.6220054793276902  1.0000
  C   C23       1.0  0.9618459850032933  0.1190030821947232  0.6220031351919602  1.0000
  C   C24       1.0  0.461839896764019  0.38099105344203826  0.3779950290718759  1.0000
  C   C25       1.0  0.06769703656242139  0.984193309334131  0.4634056019137632  1.0000
  C   C26       1.0  0.5676898916580982  0.5158060975495575  0.5365969141571726  1.0000
  C   C27       1.0  0.9323081021920674  0.015804583636096905  0.5365935689304138  1.0000
  C   C28       1.0  0.4323060962001792  0.48419289564244394  0.463405114918082  1.0000
  C   C29       1.0  0.23094230942712102  0.05538715474708772  0.4754249234480667  1.0000
  C   C30       1.0  0.7309394090962514  0.44461051727642337  0.5245782390663721  1.0000
  C   C31       1.0  0.7690602147825275  0.9446129476980263  0.5245746136156485  1.0000
  C   C32       1.0  0.2690565787643919  0.5553851617052032  0.475423240677607  1.0000
  C   C33       1.0  0.35093272169542195  0.024979838574410003  0.40330013308796003  1.0000
  C   C34       1.0  0.8509300799486397  0.47502434682315453  0.59670157381062  1.0000
  C   C35       1.0  0.6490711097843516  0.9750202649999482  0.5966987351950976  1.0000
  C   C36       1.0  0.1490659079096375  0.5249746463688397  0.4033004552646346  1.0000
  N   N1        1.0  0.6653742790045385  0.06488154134464001  0.23993112253618423  1.0000
  N   N2        1.0  0.16537502179552632  0.43511841339608287  0.7600676586957889  1.0000
  N   N3        1.0  0.3346269379327538  0.9351174574942295  0.7600675626351292  1.0000
  N   N4        1.0  0.8346275024118271  0.564882794915718  0.23993139269704503  1.0000
  N   N5        1.0  0.7621517504808467  0.0882623430956642  0.3189063059925488  1.0000
  N   N6        1.0  0.2621508813313724  0.41173641160369107  0.6810917208149834  1.0000
  N   N7        1.0  0.2378481591833079  0.9117366568737496  0.6810917103967924  1.0000
  N   N8        1.0  0.7378490283350702  0.5882614824990355  0.3189067812452535  1.0000
  N   N9        1.0  0.8790060374341168  0.18934108114708434  0.31877342888493143  1.0000
  N   N10       1.0  0.3790053882046037  0.310657557111064  0.6812247156109096  1.0000
  N   N11       1.0  0.12099517950317562  0.8106579176917847  0.6812252562863819  1.0000
  N   N12       1.0  0.6209945214595508  0.6893414428583496  0.31877330077843175  1.0000
  N   N13       1.0  0.860672634728104  0.23339001186868572  0.23988395778133056  1.0000
  N   N14       1.0  0.36067374336406033  0.26660864352727026  0.7601148370324753  1.0000
  N   N15       1.0  0.1393285822106947  0.7666089858402858  0.760115396171294  1.0000
  N   N16       1.0  0.6393287808432931  0.7333925647845304  0.23988421436035176  1.0000
  N   N17       1.0  0.31824584429041647  0.9279691394863293  0.32105548235849574  1.0000
  N   N18       1.0  0.8182418325263258  0.5720311258593824  0.6789454628173176  1.0000
  N   N19       1.0  0.6817566799200137  0.0720298582219883  0.6789438715947897  1.0000
  N   N20       1.0  0.18175284805809613  0.42796676485626517  0.3210550455842239  1.0000
  O   O1        1.0  0.5810279248918989  0.15345605859260297  0.916538686260445  1.0000
  O   O2        1.0  0.081027122304981  0.34654508606368495  0.08345952435158213  1.0000
  O   O3        1.0  0.41897459931551845  0.8465429413755031  0.08345933013021072  1.0000
  O   O4        1.0  0.9189767091739399  0.6534583305911497  0.9165405620440694  1.0000
  O   O5        1.0  0.7577883416822504  0.9603590110242809  0.8566930304079962  1.0000
  O   O6        1.0  0.2577871670638459  0.5396402120867522  0.14330633320724226  1.0000
  O   O7        1.0  0.24221548979608798  0.039638885336287906  0.1433041340915793  1.0000
  O   O8        1.0  0.742216664419601  0.4603632011784029  0.8566957595323573  1.0000
