data_image0
_chemical_formula_structural       Zn2H10C18S4N2O22
_chemical_formula_sum              "Zn2 H10 C18 S4 N2 O22"
_cell_length_a       9.951530241921644
_cell_length_b       10.86279101700349
_cell_length_c       13.620874283824197
_cell_angle_alpha    88.32900788549108
_cell_angle_beta     98.39428162743371
_cell_angle_gamma    89.99726466424691

_space_group_name_H-M_alt    "P 1"
_space_group_IT_number       1

loop_
  _space_group_symop_operation_xyz
  'x, y, z'

loop_
  _atom_site_type_symbol
  _atom_site_label
  _atom_site_symmetry_multiplicity
  _atom_site_fract_x
  _atom_site_fract_y
  _atom_site_fract_z
  _atom_site_occupancy
  Zn  Zn1       1.0  0.3571022283339503  0.5168691247256161  0.5095204215597987  1.0000
  Zn  Zn2       1.0  0.6460293645994709  0.4828607001385521  0.5027772704713911  1.0000
  H   H1        1.0  0.34183870276216066  0.4791417759713425  0.9705520968859744  1.0000
  H   H2        1.0  0.8613920669888772  0.7846807909441363  0.5440217151013513  1.0000
  H   H3        1.0  0.6794359623314891  0.8699417044707117  0.636047947779126  1.0000
  H   H4        1.0  0.46505639509079094  0.9239130535454833  0.45076513624759673  1.0000
  H   H5        1.0  0.12007749335496955  0.4645778639250507  0.5625348407739565  1.0000
  H   H6        1.0  0.7521657149725628  0.3716863256764427  0.2722911543283573  1.0000
  H   H7        1.0  0.8391880865189023  0.5102757757607532  0.9658978991055136  1.0000
  H   H8        1.0  0.9065142292596421  0.054049960115207796  0.7103031722533827  1.0000
  H   H9        1.0  0.3080459691489281  0.24414408965640183  0.6249035623288676  1.0000
  H   H10       1.0  0.07406146567176823  0.8154092243360648  0.45167101831982837  1.0000
  C   C1        1.0  0.4897940085853422  0.2615072817560034  0.5458789818092455  1.0000
  C   C2        1.0  0.527228470339786  0.7348551710141464  0.497330445591487  1.0000
  C   C3        1.0  0.5547403988829133  0.5086288049818533  0.6947259605465702  1.0000
  C   C4        1.0  0.5700847847119164  0.5040112280252772  0.8019360972436473  1.0000
  C   C5        1.0  0.5552671973403208  0.48418587453225836  0.9918603102308836  1.0000
  C   C6        1.0  0.432862099659829  0.4777638365967717  0.02627876969110331  1.0000
  C   C7        1.0  0.41883196754068314  0.4720934441446828  0.1265845844358822  1.0000
  C   C8        1.0  0.5668301449889556  0.49440548227190817  0.8910126774941033  1.0000
  C   C9        1.0  0.09983625844397181  0.7251320502932187  0.4217259731573293  1.0000
  C   C10       1.0  0.8842003326821625  0.6906285403248588  0.5762387705086666  1.0000
  C   C11       1.0  0.41633857646235845  0.4719484334737628  0.2157409654517792  1.0000
  C   C12       1.0  0.6111719971590616  0.9240827972920868  0.5814544891386788  1.0000
  C   C13       1.0  0.5338079226797134  0.8702389009833026  0.5054926068841609  1.0000
  C   C14       1.0  0.6122378722694392  0.05831582558950289  0.584417360529244  1.0000
  C   C15       1.0  0.49875799191267584  0.1283995996395078  0.5793335875972971  1.0000
  C   C16       1.0  0.0657005800157435  0.6114547105585115  0.48272999974213343  1.0000
  C   C17       1.0  0.9230147628285509  0.5955302658814432  0.5031832202383484  1.0000
  C   C18       1.0  0.43974715919627977  0.4783321058271781  0.3224551638562402  1.0000
  S   S1        1.0  0.9144597601416607  0.4045734272595142  0.3898128493321024  1.0000
  S   S2        1.0  0.7108492590650642  0.4899212200561464  0.07858518084582039  1.0000
  S   S3        1.0  0.7825195056959445  0.11846122462994658  0.5776043773563444  1.0000
  S   S4        1.0  0.34265924748184773  0.055732294068086205  0.6085986747194383  1.0000
  N   N1        1.0  0.1578625900125132  0.5361837518068809  0.5239120884615787  1.0000
  N   N2        1.0  0.845315253453265  0.5065340657644625  0.4705472148735907  1.0000
  O   O1        1.0  0.3872277650421765  0.32526273259096417  0.5633215723372018  1.0000
  O   O2        1.0  0.9956072609189662  0.3205904254384463  0.45633281225752137  1.0000
  O   O3        1.0  0.7840406876781856  0.33923164485181445  0.34265938382129946  1.0000
  O   O4        1.0  0.7355467132312582  0.6152851754249227  0.10578165926223447  1.0000
  O   O5        1.0  0.7098964370935478  0.39232290550272353  0.1528671152909595  1.0000
  O   O6        1.0  0.8211504139119584  0.44436803288861165  0.013003605000761812  1.0000
  O   O7        1.0  0.808970116532258  0.0958196210746962  0.4792390300499605  1.0000
  O   O8        1.0  0.8106122027767954  0.23309364060206406  0.6265591537752968  1.0000
  O   O9        1.0  0.8682575150774027  0.01380880296004961  0.6490837519216155  1.0000
  O   O10       1.0  0.2574716559335287  0.0332393171012129  0.5157539296781977  1.0000
  O   O11       1.0  0.37395669497511363  0.9566219233455726  0.6804140643204946  1.0000
  O   O12       1.0  0.5822547809977224  0.3012250042261186  0.499343030121416  1.0000
  O   O13       1.0  0.2848065615626751  0.16483798073711847  0.6637429528746279  1.0000
  O   O14       1.0  0.14908801439078453  0.7157106921239418  0.346340998247328  1.0000
  O   O15       1.0  0.8962643224037309  0.6636771795617377  0.6642036026336129  1.0000
  O   O16       1.0  0.3415836986454437  0.45676668127260456  0.3704359553512048  1.0000
  O   O17       1.0  0.5611252309973125  0.5064549112009048  0.35791944017239524  1.0000
  O   O18       1.0  0.4093357263499867  0.6915196535482978  0.47185232554493683  1.0000
  O   O19       1.0  0.6366611811396156  0.6719851795760549  0.5176019842917725  1.0000
  O   O20       1.0  0.43943259816976626  0.5481243061807534  0.652608383346731  1.0000
  O   O21       1.0  0.6535222135894828  0.4708432879716041  0.654099292842318  1.0000
  O   O22       1.0  0.9699025924087296  0.48141430074142727  0.31825965742965673  1.0000
