data_image0
_chemical_formula_structural       Zn4H24C32O20
_chemical_formula_sum              "Zn4 H24 C32 O20"
_cell_length_a       6.60582290967963
_cell_length_b       10.148001286063433
_cell_length_c       20.000795120172622
_cell_angle_alpha    78.59818036728025
_cell_angle_beta     88.62827692312977
_cell_angle_gamma    78.74462341446441

_space_group_name_H-M_alt    "P 1"
_space_group_IT_number       1

loop_
  _space_group_symop_operation_xyz
  'x, y, z'

loop_
  _atom_site_type_symbol
  _atom_site_label
  _atom_site_symmetry_multiplicity
  _atom_site_fract_x
  _atom_site_fract_y
  _atom_site_fract_z
  _atom_site_occupancy
  Zn  Zn1       1.0  0.6437945810222699  0.6816644592190568  0.7150692363146759  1.0000
  Zn  Zn2       1.0  0.3562102171415303  0.3183321073700042  0.2849296651650306  1.0000
  Zn  Zn3       1.0  0.9522907584282475  0.7661679997020556  0.7818776650474746  1.0000
  Zn  Zn4       1.0  0.04770990535776317  0.23382754079687373  0.21812196789625915  1.0000
  H   H1        1.0  0.32887975946515263  0.5003065191684044  0.8904771493654664  1.0000
  H   H2        1.0  0.6711133410367865  0.49971053152504646  0.10952104328418946  1.0000
  H   H3        1.0  0.813965602696392  0.6017647139784899  0.9990490893083646  1.0000
  H   H4        1.0  0.18603413135463137  0.3982502725734848  0.0009491087409969851  1.0000
  H   H5        1.0  0.7391211301459962  0.8505657584874768  0.5097624147996953  1.0000
  H   H6        1.0  0.26087515826546337  0.1494206860970593  0.4902337602653333  1.0000
  H   H7        1.0  0.2008097003992474  0.005282278424608904  0.6028630160085412  1.0000
  H   H8        1.0  0.7991822350167153  0.9947102721122859  0.39713468028711657  1.0000
  H   H9        1.0  0.16729705043156423  0.03233252070528891  0.7114011315684222  1.0000
  H   H10       1.0  0.8327109510167857  0.9676628560526979  0.28860430760793315  1.0000
  H   H11       1.0  0.9292075738184024  0.2572568493292949  0.7099953679483659  1.0000
  H   H12       1.0  0.0707914623054435  0.7427312597047759  0.2900160919835812  1.0000
  H   H13       1.0  0.4150558467793814  0.40301713328639716  0.7959467622972624  1.0000
  H   H14       1.0  0.5849417875904096  0.5969782443933696  0.20405999664475158  1.0000
  H   H15       1.0  0.6500257942712931  0.17753880024583424  0.7988544299350903  1.0000
  H   H16       1.0  0.34997807522940144  0.8224628278063761  0.20114649463477718  1.0000
  H   H17       1.0  0.29420403525946176  0.7475729697379236  0.663771053695072  1.0000
  H   H18       1.0  0.7057945008204953  0.2524236364073502  0.3362270331488588  1.0000
  H   H19       1.0  0.2976267370697414  0.6058850402201514  0.7086457994393881  1.0000
  H   H20       1.0  0.7023693426984607  0.39411249864807024  0.2913562779821603  1.0000
  H   H21       1.0  0.15403188120993858  0.7683444677606203  0.8856017586386002  1.0000
  H   H22       1.0  0.8459748532815323  0.23168792186003628  0.11439396567582347  1.0000
  H   H23       1.0  0.32238668050933933  0.7372914005542484  0.8301843485551926  1.0000
  H   H24       1.0  0.6776177292107305  0.2627174427899419  0.16981382574258672  1.0000
  C   C1        1.0  0.6647930836552689  0.6211474280511026  0.8718444128590903  1.0000
  C   C2        1.0  0.33520004973176026  0.3788635028924858  0.1281533946419984  1.0000
  C   C3        1.0  0.5804417499407319  0.5579585574004967  0.9380821417097565  1.0000
  C   C4        1.0  0.41955241616524563  0.44205440686700836  0.06191592994681368  1.0000
  C   C5        1.0  0.403025695358103  0.500577795107283  0.9385376860221227  1.0000
  C   C6        1.0  0.5969699824899093  0.4994351654804063  0.0614603397135483  1.0000
  C   C7        1.0  0.6769223459508208  0.5566840548614493  0.9999461859925913  1.0000
  C   C8        1.0  0.32307465790660217  0.4433299143390527  5.21984402155089e-05  1.0000
  C   C9        1.0  0.9242598599596192  0.8351443432582852  0.6301899183523645  1.0000
  C   C10       1.0  0.07573164522494838  0.16484825695250294  0.36980578130455644  1.0000
  C   C11       1.0  0.9657826336549886  0.9192623697232707  0.5629011989558848  1.0000
  C   C12       1.0  0.03420669853383628  0.0807261762581604  0.4370934732303837  1.0000
  C   C13       1.0  0.852859987877977  0.9163963410492998  0.5048543719178794  1.0000
  C   C14       1.0  0.14713067032026564  0.08359321354494402  0.4951406589655247  1.0000
  C   C15       1.0  0.11320994117151169  0.0033370741563771957  0.5576920953713369  1.0000
  C   C16       1.0  0.8867803455614832  0.9966545050231232  0.44230374474813056  1.0000
  C   C17       1.0  0.5655043128219714  0.9587320215190829  0.753332754263127  1.0000
  C   C18       1.0  0.43451132794146463  0.0412696143500142  0.24666630546050067  1.0000
  C   C19       1.0  0.42308393662831617  0.0922598952507414  0.7546337817365937  1.0000
  C   C20       1.0  0.5769299748472533  0.907734491750766  0.24536957165907575  1.0000
  C   C21       1.0  0.21990262490012907  0.1142262217595515  0.7297779128334624  1.0000
  C   C22       1.0  0.7801048975251275  0.8857711920021669  0.2702278364192736  1.0000
  C   C23       1.0  0.08708555230428056  0.23887678351842107  0.7293714751521492  1.0000
  C   C24       1.0  0.9129072217357148  0.7611113650718621  0.2706391701440154  1.0000
  C   C25       1.0  0.15714256541544094  0.34370457977900065  0.7529130823194733  1.0000
  C   C26       1.0  0.8428597446233965  0.6562846546929748  0.2470936528709657  1.0000
  C   C27       1.0  0.3604686594093494  0.3213554356729417  0.7779510459775949  1.0000
  C   C28       1.0  0.6395315547366494  0.6786431292854119  0.22205029997992648  1.0000
  C   C29       1.0  0.4923233874573894  0.19593837568164924  0.7793434917217681  1.0000
  C   C30       1.0  0.5076782896389458  0.8040621729267202  0.2206601150299718  1.0000
  C   C31       1.0  0.018041504016878176  0.4792449195134336  0.7504742289843945  1.0000
  C   C32       1.0  0.9819562867024556  0.5207484584180122  0.24953072240218432  1.0000
  O   O1        1.0  0.5451119329268008  0.6455718599480349  0.819064185362471  1.0000
  O   O2        1.0  0.4548877717411485  0.35444213914825445  0.1809326097494832  1.0000
  O   O3        1.0  0.8442794682432223  0.6475457547090429  0.8709280760731559  1.0000
  O   O4        1.0  0.15572033157798162  0.35245699234321387  0.12906935167907108  1.0000
  O   O5        1.0  0.7997330695926619  0.7540837165285836  0.6313424933463807  1.0000
  O   O6        1.0  0.2002644995385268  0.24589861679306324  0.36865455904493416  1.0000
  O   O7        1.0  0.01927313794015357  0.8506812631910065  0.6827374918701281  1.0000
  O   O8        1.0  0.9807166110035935  0.14931037808086237  0.3172558524509199  1.0000
  O   O9        1.0  0.5114901339236866  0.8832832170210236  0.7159194268058897  1.0000
  O   O10       1.0  0.4885318495284991  0.11672465680204175  0.2840742977052883  1.0000
  O   O11       1.0  0.7317821610430144  0.9299410772799348  0.789186601838743  1.0000
  O   O12       1.0  0.2682233277575676  0.07006053467398492  0.21081477596991496  1.0000
  O   O13       1.0  0.8272195650994829  0.49230385363896534  0.737446493269786  1.0000
  O   O14       1.0  0.1727786070595556  0.5076914619484256  0.26256276147064733  1.0000
  O   O15       1.0  0.10283408882721552  0.5770712616758971  0.7617479798594077  1.0000
  O   O16       1.0  0.8971674513281939  0.42292831189526225  0.2382537247952428  1.0000
  O   O17       1.0  0.3825935526031897  0.6556517791264157  0.6740627235271005  1.0000
  O   O18       1.0  0.6174071405658949  0.3443447488282061  0.3259383123540331  1.0000
  O   O19       1.0  0.1858530334783594  0.7974739620064851  0.8377995220637402  1.0000
  O   O20       1.0  0.814150883742151  0.2025400633057757  0.16219563780646948  1.0000
