data_image0
_chemical_formula_structural       Tl4H24Pt2C40N4O4F20
_chemical_formula_sum              "Tl4 H24 Pt2 C40 N4 O4 F20"
_cell_length_a       7.788249923206557
_cell_length_b       12.29935548647691
_cell_length_c       13.65214551802309
_cell_angle_alpha    101.43290689315795
_cell_angle_beta     89.99923631456952
_cell_angle_gamma    89.99983339710862

_space_group_name_H-M_alt    "P 1"
_space_group_IT_number       1

loop_
  _space_group_symop_operation_xyz
  'x, y, z'

loop_
  _atom_site_type_symbol
  _atom_site_label
  _atom_site_symmetry_multiplicity
  _atom_site_fract_x
  _atom_site_fract_y
  _atom_site_fract_z
  _atom_site_occupancy
  Tl  Tl1       1.0  0.13112429491690852  0.9999403282143645  0.36011791276858657  1.0000
  Tl  Tl2       1.0  0.631122197931994  6.068280269739997e-05  0.1398792374206934  1.0000
  Tl  Tl3       1.0  0.8689015472214124  6.375460461070104e-05  0.6398808808345677  1.0000
  Tl  Tl4       1.0  0.3689049282397789  0.9999384395534461  0.8601164438101917  1.0000
  H   H1        1.0  0.19227420677434282  0.6560462423702589  0.3120337882351833  1.0000
  H   H2        1.0  0.6922590655179804  0.3439487709599475  0.18795812462946054  1.0000
  H   H3        1.0  0.8077208197251766  0.34395119357253623  0.6879652446005338  1.0000
  H   H4        1.0  0.30772312117911577  0.6560445395346831  0.8120372173888768  1.0000
  H   H5        1.0  0.9912612074525173  0.5943041289310216  0.3199764936885287  1.0000
  H   H6        1.0  0.49124979355876525  0.40569725276536434  0.1800179644885844  1.0000
  H   H7        1.0  0.0087261150298303  0.4056957350312799  0.6800310444969141  1.0000
  H   H8        1.0  0.5087323931439017  0.5942985572001546  0.8199763735058736  1.0000
  H   H9        1.0  0.0026323277314901005  0.7242346532030479  0.2794481690594707  1.0000
  H   H10       1.0  0.5026180466247752  0.27576931696233936  0.22054904680911133  1.0000
  H   H11       1.0  0.9973562788047803  0.2757669192170056  0.7205530916981715  1.0000
  H   H12       1.0  0.49736414011074714  0.7242248505109713  0.779442790754089  1.0000
  H   H13       1.0  0.10120926831772442  0.7312770747180366  0.5907479368471441  1.0000
  H   H14       1.0  0.6011983639492656  0.26871450817333914  0.9092436226280326  1.0000
  H   H15       1.0  0.8987908941123167  0.2687303371098437  0.4092500058229476  1.0000
  H   H16       1.0  0.39879794662213913  0.7312788242853117  0.09074879338027125  1.0000
  H   H17       1.0  0.018204589200848907  0.603992484452867  0.5194157867146599  1.0000
  H   H18       1.0  0.5181927052521403  0.39600599832649414  0.9805820765488491  1.0000
  H   H19       1.0  0.9818007090417356  0.396017338879595  0.48059285571514465  1.0000
  H   H20       1.0  0.48179975332701735  0.6039914706048108  0.01941256737069347  1.0000
  H   H21       1.0  0.23134246682639772  0.6421897280075228  0.4996662726915913  1.0000
  H   H22       1.0  0.7313315952423242  0.3578034755769508  0.00032647193292947944  1.0000
  H   H23       1.0  0.7686576954872777  0.3578209358208539  0.5003410597678908  1.0000
  H   H24       1.0  0.26866086332282185  0.6421914883861463  0.9996699074982939  1.0000
  Pt  Pt1       1.0  4.8791365287600015e-05  0.9999774826854663  1.1961963004063694e-05  1.0000
  Pt  Pt2       1.0  0.5000487964764276  5.2450935115005955e-06  0.4999805290544258  1.0000
  C   C1        1.0  0.16999359225172136  0.9773426350898403  0.10038021427596523  1.0000
  C   C2        1.0  0.6699918028753516  0.0226532159480755  0.3996215463371867  1.0000
  C   C3        1.0  0.8300399538051835  0.0226639471862384  0.8996175752712574  1.0000
  C   C4        1.0  0.33002248318639005  0.9773424125484664  0.6003969306214143  1.0000
  C   C5        1.0  0.9624970672961554  0.8290658998550668  0.9632565213179445  1.0000
  C   C6        1.0  0.46249138275280194  0.17093921149947283  0.5367494140026918  1.0000
  C   C7        1.0  0.03752749076076609  0.1709481038872767  0.0367484970244192  1.0000
  C   C8        1.0  0.5375267553967192  0.8290573344393837  0.4632575121188224  1.0000
  C   C9        1.0  0.9757362339083644  0.7700291973865346  0.8651712816530619  1.0000
  C   C10       1.0  0.47572542938121404  0.22997262011338654  0.6348244222000686  1.0000
  C   C11       1.0  0.024302448116060305  0.2299699139542994  0.1348258625053447  1.0000
  C   C12       1.0  0.5242875729124848  0.7700273097708249  0.3651743380247651  1.0000
  C   C13       1.0  0.9384267928915762  0.6574170366675531  0.8359426079764845  1.0000
  C   C14       1.0  0.43842889254366224  0.3425848098276632  0.6640673046798895  1.0000
  C   C15       1.0  0.061556677679334405  0.3425803608146722  0.16406154532200648  1.0000
  C   C16       1.0  0.5615532939562584  0.6574183556202017  0.335943039926029  1.0000
  C   C17       1.0  0.8842021177266519  0.5982148344305499  0.9074495889557708  1.0000
  C   C18       1.0  0.3842030162869321  0.40178814548378483  0.5925462983355131  1.0000
  C   C19       1.0  0.11576979709430903  0.4018009438338339  0.09254037432952336  1.0000
  C   C20       1.0  0.6157676145501584  0.598199347592299  0.4074494358191315  1.0000
  C   C21       1.0  0.8724600727269093  0.6527099579961515  0.006980842151591555  1.0000
  C   C22       1.0  0.37247380631933424  0.3472966936606028  0.49303307851132405  1.0000
  C   C23       1.0  0.12751440982120246  0.34730732532285186  0.9930299087495412  1.0000
  C   C24       1.0  0.6275276400394747  0.6526915463926456  0.5069737808161249  1.0000
  C   C25       1.0  0.9132812600320578  0.765190634614953  0.03226197361870212  1.0000
  C   C26       1.0  0.41327557767905904  0.2348218204213737  0.46773365950670603  1.0000
  C   C27       1.0  0.08674329815396932  0.23483593244966977  0.967729246750572  1.0000
  C   C28       1.0  0.5867399925605101  0.7651706055482634  0.5322688442668663  1.0000
  C   C29       1.0  0.05666068097472281  0.6750230225043835  0.3306435236207291  1.0000
  C   C30       1.0  0.556647345410724  0.3249774309174782  0.16935336202816836  1.0000
  C   C31       1.0  0.9433304934856822  0.32497768743507294  0.6693619730691651  1.0000
  C   C32       1.0  0.44333612527744753  0.6750183790457457  0.8306409759609465  1.0000
  C   C33       1.0  0.041007517253177604  0.7347762803361776  0.4376099275743214  1.0000
  C   C34       1.0  0.5409982264674512  0.2652283435511649  0.06239224221151567  1.0000
  C   C35       1.0  0.9589939289906938  0.26523351551657737  0.562402372310572  1.0000
  C   C36       1.0  0.45899423210613594  0.7347666259092521  0.9376034057318988  1.0000
  C   C37       1.0  0.10174181923366632  0.6757178729978078  0.5174766598705672  1.0000
  C   C38       1.0  0.6017289530068836  0.32427702046298623  0.9825162386029473  1.0000
  C   C39       1.0  0.898263479036217  0.3242878083715581  0.48253048615185173  1.0000
  C   C40       1.0  0.39826222159808117  0.6757179599943725  0.01747794637018526  1.0000
  N   N1        1.0  0.27190287289243303  0.9617026935632256  0.1597909421189455  1.0000
  N   N2        1.0  0.7719062331795216  0.03827790052811509  0.34020209598708817  1.0000
  N   N3        1.0  0.7281139814601333  0.0382914793454034  0.8402001638121489  1.0000
  N   N4        1.0  0.22811704097109245  0.9617186838827935  0.6597997096983761  1.0000
  O   O1        1.0  0.98026041886326  0.8294901900412414  0.4584960086467971  1.0000
  O   O2        1.0  0.48024563859002006  0.17050457858578477  0.04149951171429928  1.0000
  O   O3        1.0  0.019755151417243207  0.1705155737695492  0.5415001650157052  1.0000
  O   O4        1.0  0.5197570919361922  0.8294846118982875  0.9584914078598954  1.0000
  F   F1        1.0  0.028692373863073307  0.8220277097258373  0.7906394190375536  1.0000
  F   F2        1.0  0.5286736877892937  0.17797319103996057  0.7093632048255997  1.0000
  F   F3        1.0  0.9713552959954087  0.17796137622877234  0.20936539861798306  1.0000
  F   F4        1.0  0.47134188237017594  0.8220349897819189  0.29064293713019396  1.0000
  F   F5        1.0  0.9535045976925007  0.6047574275587309  0.739038621422324  1.0000
  F   F6        1.0  0.45349906750435326  0.39524278848777084  0.7609598874631585  1.0000
  F   F7        1.0  0.046482725052555914  0.39523678388395206  0.2609473642170101  1.0000
  F   F8        1.0  0.546461291261764  0.6047578940202031  0.23904926679405483  1.0000
  F   F9        1.0  0.8415512612637103  0.4896809031805915  0.8804622629382448  1.0000
  F   F10       1.0  0.34157155551736207  0.5103238442800019  0.6195401371966723  1.0000
  F   F11       1.0  0.15836801013094973  0.5103356936753939  0.11952931652570693  1.0000
  F   F12       1.0  0.658379815434998  0.4896619183812092  0.3804648004118433  1.0000
  F   F13       1.0  0.817732087207034  0.596009730033316  0.07692975911376719  1.0000
  F   F14       1.0  0.31774844770736616  0.4039938763918798  0.4230737643652915  1.0000
  F   F15       1.0  0.18221799975244582  0.4040093057679285  0.9230688625639657  1.0000
  F   F16       1.0  0.6822375908817835  0.5959894087257142  0.5769292511715489  1.0000
  F   F17       1.0  0.8961426423410546  0.812467000406315  0.13168914010876154  1.0000
  F   F18       1.0  0.39614462225623737  0.18753302406933875  0.36831092428953827  1.0000
  F   F19       1.0  0.103879347875413  0.18753876889031326  0.8683063020392152  1.0000
  F   F20       1.0  0.6038863557296427  0.8124601818889448  0.6316983157941038  1.0000
