data_image0
_chemical_formula_structural       Zn6H64C72N8O26
_chemical_formula_sum              "Zn6 H64 C72 N8 O26"
_cell_length_a       21.28474735745579
_cell_length_b       21.284170091536055
_cell_length_c       24.448009240579744
_cell_angle_alpha    116.13943870492803
_cell_angle_beta     116.12946377311022
_cell_angle_gamma    89.65318483383338

_space_group_name_H-M_alt    "P 1"
_space_group_IT_number       1

loop_
  _space_group_symop_operation_xyz
  'x, y, z'

loop_
  _atom_site_type_symbol
  _atom_site_label
  _atom_site_symmetry_multiplicity
  _atom_site_fract_x
  _atom_site_fract_y
  _atom_site_fract_z
  _atom_site_occupancy
  Zn  Zn1       1.0  0.434709151352223  0.9993097817362085  0.5010220431262271  1.0000
  Zn  Zn2       1.0  0.4646369728667779  0.46356197114946684  0.4299573339253229  1.0000
  Zn  Zn3       1.0  0.5364604542991104  0.5354171914654274  0.5700991142170438  1.0000
  Zn  Zn4       1.0  0.0006990023150023993  0.5652921385451036  0.4989525654902067  1.0000
  Zn  Zn5       1.0  0.5579841733178839  0.9977079326702661  0.49488903898120634  1.0000
  Zn  Zn6       1.0  0.0022575762752978998  0.4420059769384394  0.5050546256796267  1.0000
  H   H1        1.0  0.45233510661692133  0.8430566491430581  0.28312429562675606  1.0000
  H   H2        1.0  0.22208804349462954  0.39263029171593194  0.517803969012853  1.0000
  H   H3        1.0  0.6383453838894299  0.3709828826363406  0.377901850646957  1.0000
  H   H4        1.0  0.2693050165066992  0.9313702620530862  0.2795545970420223  1.0000
  H   H5        1.0  0.0686152331851773  0.7306824846203596  0.7204606150079726  1.0000
  H   H6        1.0  0.4747926947665206  0.8598860284398243  0.5768062285557249  1.0000
  H   H7        1.0  0.1403802547739588  0.5256122735691803  0.4235209239050306  1.0000
  H   H8        1.0  0.5673742986543004  0.8672477019130864  0.6279829718797743  1.0000
  H   H9        1.0  0.6069427722725679  0.7775818987964839  0.481633908851869  1.0000
  H   H10       1.0  0.13284849915742566  0.43305694801229316  0.37203298317182026  1.0000
  H   H11       1.0  0.5288671224247565  0.7613695282951412  0.6241301116439502  1.0000
  H   H12       1.0  0.23885169354144867  0.4716600608255347  0.376126769516361  1.0000
  H   H13       1.0  0.44227754129148167  0.7422625359732251  0.5536365817499131  1.0000
  H   H14       1.0  0.2581188574692845  0.5580868404348819  0.446929153961058  1.0000
  H   H15       1.0  0.4174228710263748  0.7762720181191864  0.4457217179071409  1.0000
  H   H16       1.0  0.22397809806975033  0.5824554084529936  0.5546220280097601  1.0000
  H   H17       1.0  0.6549001800374371  0.10538665310440355  0.6596377827970343  1.0000
  H   H18       1.0  0.8945152624874667  0.3450758224364349  0.3403135533194758  1.0000
  H   H19       1.0  0.6479340479582804  0.8383717615025502  0.5718917160462454  1.0000
  H   H20       1.0  0.16128474382465194  0.35200997884940216  0.4275844714160685  1.0000
  H   H21       1.0  0.6337912947425011  0.7473437508228926  0.5984433507917971  1.0000
  H   H22       1.0  0.2523497699645603  0.36627116873333415  0.4010960548979626  1.0000
  H   H23       1.0  0.1569654326676755  0.5476570343029081  0.716846158008387  1.0000
  H   H24       1.0  0.6183939475011826  0.687256206881642  0.5134762354629033  1.0000
  H   H25       1.0  0.3123530659584972  0.38111356849937295  0.4858696304131414  1.0000
  H   H26       1.0  0.4700065576906099  0.7581835051388808  0.40361746763754536  1.0000
  H   H27       1.0  0.2417590825470768  0.529491769597989  0.596315599944326  1.0000
  H   H28       1.0  0.49107485880999485  0.6540851315784053  0.4129879350517883  1.0000
  H   H29       1.0  0.34579950299133344  0.5082948099364017  0.5868760036700209  1.0000
  H   H30       1.0  0.7493607523048952  0.20729755662203786  0.8433107401578044  1.0000
  H   H31       1.0  0.7925752609448226  0.2505951735685557  0.15664616657642244  1.0000
  H   H32       1.0  0.5612986430111633  0.15416866028385082  0.8543477400035542  1.0000
  H   H33       1.0  0.8457840694416774  0.43862806888599687  0.14558380707404703  1.0000
  H   H34       1.0  0.3912626704118694  0.7814781863603029  0.15283660128442741  1.0000
  H   H35       1.0  0.21851967175850015  0.6087219880762262  0.8471254280132641  1.0000
  H   H36       1.0  0.49012586209740766  0.08992705984869792  0.7236098494506749  1.0000
  H   H37       1.0  0.91003828155624  0.5098145564559998  0.2763155246773439  1.0000
  H   H38       1.0  0.4440731309487874  0.2192397662637048  0.5463390523606151  1.0000
  H   H39       1.0  0.41683269146169993  0.6580062389383629  0.4274701668299701  1.0000
  H   H40       1.0  0.7809019236528911  0.5561193315795306  0.4538694104029375  1.0000
  H   H41       1.0  0.4050467000779819  0.17106013360340458  0.4548868196795511  1.0000
  H   H42       1.0  0.8290492086004235  0.5950481148456036  0.5453105004258563  1.0000
  H   H43       1.0  0.41513823744718087  0.2761442919052612  0.44645217871567416  1.0000
  H   H44       1.0  0.7239321705632946  0.5849603487357768  0.5536924730127097  1.0000
  H   H45       1.0  0.3422023700888134  0.5828226664771989  0.5728360745758323  1.0000
  H   H46       1.0  0.42617447754652465  0.3208079992933576  0.5316626477972761  1.0000
  H   H47       1.0  0.6793281107051855  0.573991835023982  0.4685248834595229  1.0000
  H   H48       1.0  0.5791475369471187  0.2404355120901798  0.6237642246997198  1.0000
  H   H49       1.0  0.7596073097362465  0.4210851112679349  0.3763108317073218  1.0000
  H   H50       1.0  0.5540194582097939  0.35114547411069447  0.6329734313261284  1.0000
  H   H51       1.0  0.6489019784260962  0.4461381583996696  0.36711298231432477  1.0000
  H   H52       1.0  0.5825682722506756  0.1760249089048926  0.454888061180931  1.0000
  H   H53       1.0  0.8239291881613511  0.4173922592368982  0.5450503815712224  1.0000
  H   H54       1.0  0.4895914654763447  0.1671671281224434  0.4038580105322112  1.0000
  H   H55       1.0  0.8328520648053371  0.5103732688458962  0.5961760119933573  1.0000
  H   H56       1.0  0.5233314553144481  0.2848367092456811  0.4276518294946355  1.0000
  H   H57       1.0  0.7151801491991421  0.47669204576720847  0.5723779155902022  1.0000
  H   H58       1.0  0.21061807597228474  0.8750593318491012  0.14950306344537986  1.0000
  H   H59       1.0  0.1248957995998836  0.7893600232480649  0.8505079617730829  1.0000
  H   H60       1.0  0.609286114752031  0.3008687223564479  0.4977624248063179  1.0000
  H   H61       1.0  0.6990997853061175  0.39074749738653486  0.5022059464950389  1.0000
  H   H62       1.0  0.6349656272182217  0.24048642953446372  0.5875789481248148  1.0000
  H   H63       1.0  0.7595336714893222  0.36512646739677  0.4123531464232357  1.0000
  H   H64       1.0  0.6291334241033938  0.36170227673071037  0.6221392233900147  1.0000
  C   C1        1.0  0.5300326138294055  0.8878185790037918  0.5105595622504994  1.0000
  C   C2        1.0  0.2641626935504604  0.7924600753568569  0.06697814974307183  1.0000
  C   C3        1.0  0.8061243294876235  0.4781546810453958  0.48980978818092075  1.0000
  C   C4        1.0  0.52633038807911  0.3241385774667337  0.5274684372346173  1.0000
  C   C5        1.0  0.675908528729977  0.4737799961121141  0.47260287807623774  1.0000
  C   C6        1.0  0.5759856146936569  0.32681168494805474  0.5972347028653786  1.0000
  C   C7        1.0  0.6732294247381817  0.42414839185086356  0.40282810422505133  1.0000
  C   C8        1.0  0.5514247975905279  0.2790028043151763  0.47441534473587416  1.0000
  C   C9        1.0  0.207489847456344  0.7357872787374616  0.9330060941091675  1.0000
  C   C10       1.0  0.7209969741719675  0.4486129393217553  0.5255975716551191  1.0000
  C   C11       1.0  0.36941056915767234  0.48371730281792935  0.47595277781346124  1.0000
  C   C12       1.0  0.5162012008220246  0.6306229491541016  0.5240828869828037  1.0000
  C   C13       1.0  0.603136104663271  0.4777575874296857  0.46918428305804116  1.0000
  C   C14       1.0  0.5223810761297331  0.39691944445092264  0.5308893102357786  1.0000
  C   C15       1.0  0.538340828531247  0.0700256483326882  0.6335100823408553  1.0000
  C   C16       1.0  0.9299300768948414  0.4616362442910005  0.3664385047702155  1.0000
  C   C17       1.0  0.3988248355420865  0.8485757324510246  0.25324894723458174  1.0000
  C   C18       1.0  0.15142101956305254  0.6011591302597095  0.7467234662749503  1.0000
  C   C19       1.0  0.3652208355354887  0.8148996168964756  0.18096912560235281  1.0000
  C   C20       1.0  0.5185217619453368  0.8319777917160207  0.5783621799372013  1.0000
  C   C21       1.0  0.18508715270687762  0.634756488124424  0.8190000637034275  1.0000
  C   C22       1.0  0.2974649280131842  0.8250872215438674  0.14321302631569216  1.0000
  C   C23       1.0  0.17488564234648862  0.702505004710929  0.8567730480319611  1.0000
  C   C24       1.0  0.2630369069157368  0.867364573304762  0.17908265734045872  1.0000
  C   C25       1.0  0.1326187461788351  0.7369503238581885  0.8209274398507277  1.0000
  C   C26       1.0  0.168158591936205  0.4817720581562808  0.42177778292889917  1.0000
  C   C27       1.0  0.2958659098977705  0.898987463236075  0.25145491889429666  1.0000
  C   C28       1.0  0.1009941917850341  0.7041159386055468  0.7485507877645787  1.0000
  C   C29       1.0  0.5002218042637666  0.7585202993307972  0.5729204969057805  1.0000
  C   C30       1.0  0.24167229417669492  0.5000799990146803  0.42734048507539063  1.0000
  C   C31       1.0  0.11213903728497601  0.46997085633395114  0.4893431361027467  1.0000
  C   C32       1.0  0.467691523674887  0.7608723398961316  0.44865848197019903  1.0000
  C   C33       1.0  0.2391828559821221  0.5320503513465411  0.5514188477001198  1.0000
  C   C34       1.0  0.6011833827885269  0.7940787906763518  0.5282773752871394  1.0000
  C   C35       1.0  0.20567050804456244  0.39863025274326697  0.47130167723522476  1.0000
  C   C36       1.0  0.5314955912151406  0.8203619229281783  0.5173931308968848  1.0000
  C   C37       1.0  0.179607622959935  0.4684687988358078  0.4825192954015947  1.0000
  C   C38       1.0  0.5206987683100125  0.7007567907926598  0.5219018766044458  1.0000
  C   C39       1.0  0.2992558854356134  0.47920962095207636  0.47809309603538724  1.0000
  C   C40       1.0  0.4708263806701467  0.6881327693663407  0.44766995707981044  1.0000
  C   C41       1.0  0.31191188007520054  0.5288166721935141  0.5523961445707216  1.0000
  C   C42       1.0  0.5988980844074875  0.7304081931306712  0.5429164546774743  1.0000
  C   C43       1.0  0.2693518693433887  0.40091751710949813  0.4566733547128976  1.0000
  C   C44       1.0  0.40436332025803523  0.9293036767297733  0.36703156304100315  1.0000
  C   C45       1.0  0.07069649690038911  0.5956256724043952  0.6329562906534747  1.0000
  C   C46       1.0  0.6544309942416718  0.142323335099583  0.7446143419737938  1.0000
  C   C47       1.0  0.3645704862832559  0.8909102319008041  0.28909575272659555  1.0000
  C   C48       1.0  0.8575819407772585  0.3455347342298579  0.25533259470118713  1.0000
  C   C49       1.0  0.6927966682285813  0.18135303017238155  0.8175644242745649  1.0000
  C   C50       1.0  0.8185445614584452  0.30715473165759016  0.1823842098399595  1.0000
  C   C51       1.0  0.6593595817003433  0.18521319460343486  0.8564131685211153  1.0000
  C   C52       1.0  0.814691729634049  0.34058624312559965  0.14353104181319054  1.0000
  C   C53       1.0  0.10908543715086691  0.6354173260623172  0.7108920848309881  1.0000
  C   C54       1.0  0.5861632323709784  0.15118369559307596  0.8230173323469714  1.0000
  C   C55       1.0  0.8487477897884262  0.41377487962023446  0.17691397403625334  1.0000
  C   C56       1.0  0.5471334915602172  0.11534233250568354  0.750798598006405  1.0000
  C   C57       1.0  0.8846155644741247  0.45281589463193234  0.2491435632450136  1.0000
  C   C58       1.0  0.5798744469033537  0.10975855048840799  0.7103281228353353  1.0000
  C   C59       1.0  0.8901846076207536  0.4200887483934039  0.2896188135514565  1.0000
  C   C60       1.0  0.7745916471670071  0.29815687749688646  0.06706270057302534  1.0000
  C   C61       1.0  0.7017828599466469  0.22532194868532684  0.9328855020873591  1.0000
  C   C62       1.0  0.45010659001650305  0.21441413921868235  0.5023568180680654  1.0000
  C   C63       1.0  0.7856858680150013  0.5500183078268605  0.497808507849868  1.0000
  C   C64       1.0  0.4487851541684763  0.285492983453338  0.49986939196269026  1.0000
  C   C65       1.0  0.7146021295481617  0.5513389929769517  0.500278810449565  1.0000
  C   C66       1.0  0.5827242370198392  0.24935562595027952  0.5840959950663915  1.0000
  C   C67       1.0  0.7506800850583559  0.4174092004640286  0.41593449979200864  1.0000
  C   C68       1.0  0.5200478242457223  0.11875323700548532  0.5016568033690803  1.0000
  C   C69       1.0  0.8812688466378023  0.47999315053133523  0.4983762918351574  1.0000
  C   C70       1.0  0.5367373437430843  0.19935641927902026  0.4559560285225785  1.0000
  C   C71       1.0  0.800641764035845  0.4632646773911801  0.5440515013086085  1.0000
  C   C72       1.0  0.521928161611534  0.19391631065222725  0.510259970931081  1.0000
  N   N1        1.0  0.2106709048621482  0.8187592105198362  0.03416655504114632  1.0000
  N   N2        1.0  0.7956346841087553  0.31701342449582626  0.03045168280458918  1.0000
  N   N3        1.0  0.6829016396136254  0.20429764306803103  0.9694944030983307  1.0000
  N   N4        1.0  0.7200442548801576  0.24171189377886998  0.0381007828489714  1.0000
  N   N5        1.0  0.7582347681464583  0.2798552844736616  0.9618451790807185  1.0000
  N   N6        1.0  0.18118025484061923  0.78927077978566  0.9658322338266813  1.0000
  N   N7        1.0  0.2616719043634177  0.710106454621652  0.9660150969953492  1.0000
  N   N8        1.0  0.289812887883258  0.7382448348010158  0.03394619082603612  1.0000
  O   O1        1.0  0.4746139732433506  0.9129435505784046  0.505622008316209  1.0000
  O   O2        1.0  0.4869453174317755  0.395115052054237  0.47246809293720554  1.0000
  O   O3        1.0  0.604923238281515  0.5132076798466798  0.5276060678345759  1.0000
  O   O4        1.0  0.5449450405127153  0.44786572560800414  0.4097232642369947  1.0000
  O   O5        1.0  0.552258160456809  0.4551260451880593  0.590351406279524  1.0000
  O   O6        1.0  0.5818174854111291  0.9148043795980811  0.5076053719045532  1.0000
  O   O7        1.0  0.0851199436492323  0.4181748986280525  0.4922585261568387  1.0000
  O   O8        1.0  0.08706142064363581  0.5254323462454876  0.4943467448996941  1.0000
  O   O9        1.0  0.3680977889897648  0.9475607508134798  0.3998785194176834  1.0000
  O   O10       1.0  0.0524385733759658  0.6318978741432985  0.6001197507189531  1.0000
  O   O11       1.0  0.47272725330113724  0.9418303377516892  0.39564463438866676  1.0000
  O   O12       1.0  0.0581816386835428  0.5272482727104588  0.6043280655260332  1.0000
  O   O13       1.0  0.46638537371416794  0.0880600099681885  0.4981185637524562  1.0000
  O   O14       1.0  0.9119647570789767  0.5336421413249041  0.5018980316519901  1.0000
  O   O15       1.0  0.5730553983838435  0.09011781885805441  0.4990059179476276  1.0000
  O   O16       1.0  0.9098780178550285  0.4269641477110822  0.500997870347227  1.0000
  O   O17       1.0  0.4692784171306458  0.05043554467663829  0.6021958894721636  1.0000
  O   O18       1.0  0.9495405365924798  0.5307054708601627  0.3977679961564819  1.0000
  O   O19       1.0  0.5744546932195718  0.056787079502349416  0.6005181511901299  1.0000
  O   O20       1.0  0.9431551176601334  0.425522521478065  0.3994280175645387  1.0000
  O   O21       1.0  0.4271799107841971  0.515738479459763  0.5340301726742069  1.0000
  O   O22       1.0  0.48417817030809834  0.572830356380379  0.4660080506869591  1.0000
  O   O23       1.0  0.6905509395537807  0.13802093449401548  0.710110811487752  1.0000
  O   O24       1.0  0.366429029543248  0.4540978137120462  0.4158372381424229  1.0000
  O   O25       1.0  0.8618705700509892  0.30942402005012326  0.2898421140157055  1.0000
  O   O26       1.0  0.5458098366890597  0.6336228107242475  0.584198926872631  1.0000
