data_image0
_chemical_formula_structural       Ag24H144C144N24O48F48
_chemical_formula_sum              "Ag24 H144 C144 N24 O48 F48"
_cell_length_a       18.252580557792424
_cell_length_b       18.252562368457134
_cell_length_c       18.252562055660768
_cell_angle_alpha    87.2526390979184
_cell_angle_beta     87.25257212623
_cell_angle_gamma    87.25257856874406

_space_group_name_H-M_alt    "P 1"
_space_group_IT_number       1

loop_
  _space_group_symop_operation_xyz
  'x, y, z'

loop_
  _atom_site_type_symbol
  _atom_site_label
  _atom_site_symmetry_multiplicity
  _atom_site_fract_x
  _atom_site_fract_y
  _atom_site_fract_z
  _atom_site_occupancy
  Ag  Ag1       1.0  0.25000088818045185  0.5559555854156386  0.9440453365712216  1.0000
  Ag  Ag2       1.0  0.5559558435671903  0.9440450960052976  0.2499999850831713  1.0000
  Ag  Ag3       1.0  0.9440455188845359  0.2500002929905206  0.555955097198698  1.0000
  Ag  Ag4       1.0  0.7499988270740868  0.4440441052170314  0.05595478940255561  1.0000
  Ag  Ag5       1.0  0.44404387069233997  0.055954593632009206  0.749999593119597  1.0000
  Ag  Ag6       1.0  0.05595364630379859  0.7499994227074538  0.4440445070647954  1.0000
  Ag  Ag7       1.0  0.34928405728102513  0.6263935559402969  0.0380089242794881  1.0000
  Ag  Ag8       1.0  0.6263941787634266  0.038010379384566306  0.34928537751961397  1.0000
  Ag  Ag9       1.0  0.03801020118545039  0.3492855659054754  0.6263943413305527  1.0000
  Ag  Ag10      1.0  0.8736039937842007  0.1507139131807307  0.46198849904239847  1.0000
  Ag  Ag11      1.0  0.46198953270391024  0.8736048771708982  0.1507141472676068  1.0000
  Ag  Ag12      1.0  0.1507145678204154  0.4619888640229774  0.8736051570167688  1.0000
  Ag  Ag13      1.0  0.6507156560336681  0.3736055852432969  0.9619906812985236  1.0000
  Ag  Ag14      1.0  0.3736055354961039  0.9619893102527332  0.6507142006831613  1.0000
  Ag  Ag15      1.0  0.9619895150139326  0.6507146731809073  0.3736057572679883  1.0000
  Ag  Ag16      1.0  0.12639462223259557  0.8492869234946028  0.5380099809893296  1.0000
  Ag  Ag17      1.0  0.5380096344744699  0.1263948405178184  0.8492865525378832  1.0000
  Ag  Ag18      1.0  0.8492856936206222  0.5380097026462352  0.12639444987576104  1.0000
  Ag  Ag19      1.0  0.8410528261708733  0.6589414291826616  0.25000178840609527  1.0000
  Ag  Ag20      1.0  0.6589419268674986  0.25000122699741933  0.8410523855817188  1.0000
  Ag  Ag21      1.0  0.25000363668694797  0.8410530081560522  0.6589423188745941  1.0000
  Ag  Ag22      1.0  0.15894688719399844  0.34105716454259755  0.7499983923181475  1.0000
  Ag  Ag23      1.0  0.34105833745822867  0.7499984375745825  0.15894771433134028  1.0000
  Ag  Ag24      1.0  0.7499971766597964  0.15894717781360873  0.34105717983151623  1.0000
  H   H1        1.0  0.1511544304051498  0.6557526399920661  0.9596802666584381  1.0000
  H   H2        1.0  0.6557531220191065  0.9596796404317162  0.1511535805247632  1.0000
  H   H3        1.0  0.9596786916874505  0.15115485941648643  0.6557518212088881  1.0000
  H   H4        1.0  0.8442471476931812  0.34884600842553226  0.5403214862259987  1.0000
  H   H5        1.0  0.5403204622178776  0.8442474070541409  0.3488447570145041  1.0000
  H   H6        1.0  0.3488446016389374  0.5403200318231711  0.8442476515541344  1.0000
  H   H7        1.0  0.8488458349156005  0.34424702557530656  0.040320381025630105  1.0000
  H   H8        1.0  0.34424714325146505  0.0403205725939912  0.8488464920130667  1.0000
  H   H9        1.0  0.04032102451193249  0.8488453796698964  0.3442482773896529  1.0000
  H   H10       1.0  0.15575147518837437  0.6511559301340668  0.45967967791026615  1.0000
  H   H11       1.0  0.45967925398150555  0.15575283203224188  0.6511553415840368  1.0000
  H   H12       1.0  0.6511556616917743  0.45967963175345977  0.15575190058793004  1.0000
  H   H13       1.0  0.10012713821804196  0.7311235276540772  0.9182766532367594  1.0000
  H   H14       1.0  0.7311243653918567  0.9182766314531039  0.10012581606068952  1.0000
  H   H15       1.0  0.9182756472603869  0.10012653085598802  0.7311242308797716  1.0000
  H   H16       1.0  0.7688759047078191  0.39987476536455085  0.5817234776105736  1.0000
  H   H17       1.0  0.5817229539734894  0.7688768424165602  0.3998724424292989  1.0000
  H   H18       1.0  0.3998735442524789  0.5817222372774823  0.7688768908482045  1.0000
  H   H19       1.0  0.8998731251628482  0.268875588464212  0.081723474051536  1.0000
  H   H20       1.0  0.26887590082355217  0.0817241300263163  0.8998742291019042  1.0000
  H   H21       1.0  0.08172406893899617  0.8998737082303946  0.2688758677187693  1.0000
  H   H22       1.0  0.2311232672449249  0.6001271471343728  0.41827766046498027  1.0000
  H   H23       1.0  0.41827731030205934  0.23112336961377614  0.6001270823375292  1.0000
  H   H24       1.0  0.6001267210180927  0.4182779757482322  0.2311231816896253  1.0000
  H   H25       1.0  0.1791952981186142  0.7465097605584534  0.9679150522585118  1.0000
  H   H26       1.0  0.7465103185014144  0.9679152984720145  0.17919451169035486  1.0000
  H   H27       1.0  0.9679146621370901  0.17919546029554564  0.7465096462214689  1.0000
  H   H28       1.0  0.7534888504390692  0.3208037310748892  0.5320863197600616  1.0000
  H   H29       1.0  0.5320855856937214  0.7534896470270241  0.3208032169419893  1.0000
  H   H30       1.0  0.32080263874970427  0.5320856429383767  0.7534898276442233  1.0000
  H   H31       1.0  0.8208049662071202  0.25348990401354854  0.03208504765455442  1.0000
  H   H32       1.0  0.2534904948453231  0.032084887497653404  0.8208049870157624  1.0000
  H   H33       1.0  0.03208615120965418  0.8208047256741224  0.2534898524846411  1.0000
  H   H34       1.0  0.24650977055281226  0.6791971105772916  0.46791489912667567  1.0000
  H   H35       1.0  0.4679141315006845  0.2465105930547297  0.6791974294275532  1.0000
  H   H36       1.0  0.6791970783945231  0.46791514460171874  0.2465102435790811  1.0000
  H   H37       1.0  0.4244726396696804  0.656100219017887  0.9203116135368532  1.0000
  H   H38       1.0  0.6561004346926608  0.9203125109406474  0.42447164172753554  1.0000
  H   H39       1.0  0.9203120735983742  0.42447232744989094  0.6561006534782693  1.0000
  H   H40       1.0  0.8438992689867318  0.07552718949275321  0.579687827204431  1.0000
  H   H41       1.0  0.5796881916758493  0.8438990409313903  0.07552724213007171  1.0000
  H   H42       1.0  0.07552693841638101  0.5796870503882448  0.8438989991760693  1.0000
  H   H43       1.0  0.5755276236610313  0.343899444558744  0.07968793860520411  1.0000
  H   H44       1.0  0.34389928051170665  0.07968772715036469  0.5755279091000106  1.0000
  H   H45       1.0  0.07968819167219719  0.5755278855758164  0.3438994190595608  1.0000
  H   H46       1.0  0.15610044721265126  0.9244730495936293  0.42031227139410987  1.0000
  H   H47       1.0  0.4203126217210737  0.15610059757993616  0.9244728317222765  1.0000
  H   H48       1.0  0.9244727758431494  0.4203126392490545  0.1561005790266989  1.0000
  H   H49       1.0  0.4915503592249522  0.6239386709224348  0.8536688895345107  1.0000
  H   H50       1.0  0.6239393318226334  0.853669191218984  0.49155017633988507  1.0000
  H   H51       1.0  0.8536687787533166  0.4915500438328734  0.6239393395344167  1.0000
  H   H52       1.0  0.8760598166494656  0.008449234318028713  0.6463305524568597  1.0000
  H   H53       1.0  0.6463309407349342  0.876060013603201  0.00844926934438922  1.0000
  H   H54       1.0  0.008449220767147398  0.6463306879929293  0.8760598295398266  1.0000
  H   H55       1.0  0.5084499051007754  0.37606099364956685  0.14633121037854832  1.0000
  H   H56       1.0  0.37606093250310113  0.146330473353018  0.5084499235731741  1.0000
  H   H57       1.0  0.14633093650122217  0.5084496467998038  0.37606078643936064  1.0000
  H   H58       1.0  0.12393934948371306  0.9915510298336586  0.3536690244313974  1.0000
  H   H59       1.0  0.3536693235908004  0.12393965096879361  0.9915508305686699  1.0000
  H   H60       1.0  0.9915510435084084  0.35366952403741436  0.12393969522700132  1.0000
  H   H61       1.0  0.5182349252374719  0.6743716023808445  0.9277460307566514  1.0000
  H   H62       1.0  0.6743712464653411  0.9277467094477176  0.5182347812641481  1.0000
  H   H63       1.0  0.9277466286325261  0.5182346172831273  0.6743712208160562  1.0000
  H   H64       1.0  0.8256283434248457  0.9817645906217153  0.5722528658826675  1.0000
  H   H65       1.0  0.5722529362287858  0.8256286163565109  0.9817647200356631  1.0000
  H   H66       1.0  0.9817640851077059  0.572252493338638  0.8256285092180206  1.0000
  H   H67       1.0  0.481765339038084  0.3256286096494989  0.07225349401017672  1.0000
  H   H68       1.0  0.32562846878920476  0.0722529811849597  0.4817653447096219  1.0000
  H   H69       1.0  0.07225363469819257  0.48176504629350353  0.3256283313260084  1.0000
  H   H70       1.0  0.17437082370334878  0.018235674525342905  0.4277472587765914  1.0000
  H   H71       1.0  0.42774732809694166  0.17437104821549104  0.018235379877396006  1.0000
  H   H72       1.0  0.0182350820204888  0.4277477718084199  0.17437161544123816  1.0000
  H   H73       1.0  0.39886007154027675  0.49516525601484335  0.16080473755008026  1.0000
  H   H74       1.0  0.4951650626158183  0.160805043435289  0.3988595428030735  1.0000
  H   H75       1.0  0.16080442142746415  0.3988598293267742  0.49516536037651093  1.0000
  H   H76       1.0  0.004833137184554899  0.10113980048267021  0.3391957295671304  1.0000
  H   H77       1.0  0.33919542932920166  0.004833805128050999  0.1011395131377739  1.0000
  H   H78       1.0  0.10113925106735877  0.3391953548619497  0.004834067716679206  1.0000
  H   H79       1.0  0.601140191790442  0.5048344075617873  0.8391948145919771  1.0000
  H   H80       1.0  0.504834652588542  0.83919519465573  0.6011400080244728  1.0000
  H   H81       1.0  0.8391952928320661  0.601139860310532  0.5048342178262644  1.0000
  H   H82       1.0  0.9951665780699838  0.8988598901499999  0.6608043964066468  1.0000
  H   H83       1.0  0.66080483400151  0.9951658584485799  0.8988600390042836  1.0000
  H   H84       1.0  0.8988604651822028  0.6608043367660912  0.9951666060280928  1.0000
  H   H85       1.0  0.3834379095875845  0.4095842454053694  0.12193939862893902  1.0000
  H   H86       1.0  0.4095840449256085  0.12193983905810063  0.38343766407984253  1.0000
  H   H87       1.0  0.12194024654419879  0.3834375442237957  0.4095838103288045  1.0000
  H   H88       1.0  0.09041470415782978  0.11656285353019065  0.3780604058358819  1.0000
  H   H89       1.0  0.3780601580023981  0.09041545523006532  0.11656250819770973  1.0000
  H   H90       1.0  0.1165625091164983  0.3780601454621434  0.0904155528577419  1.0000
  H   H91       1.0  0.6165623547381428  0.5904154191666322  0.8780607012841201  1.0000
  H   H92       1.0  0.5904162203449629  0.8780603739676069  0.6165624084579805  1.0000
  H   H93       1.0  0.8780600177313573  0.616562667806541  0.5904157144380163  1.0000
  H   H94       1.0  0.9095850130365759  0.8834373865515631  0.6219402405336609  1.0000
  H   H95       1.0  0.6219401053283135  0.9095842083465656  0.8834370439443475  1.0000
  H   H96       1.0  0.8834377561540732  0.621940067563564  0.9095845196800881  1.0000
  H   H97       1.0  0.3341806914676226  0.4907434459421225  0.0911647836867431  1.0000
  H   H98       1.0  0.49074291017347343  0.09116462553964771  0.33418009331157356  1.0000
  H   H99       1.0  0.09116463210126108  0.3341806453411422  0.4907430100044009  1.0000
  H   H100      1.0  0.009255838544667898  0.16582031233577513  0.4088350713932414  1.0000
  H   H101      1.0  0.40883466876808666  0.009255867402231402  0.1658200819285085  1.0000
  H   H102      1.0  0.16581973119679108  0.4088346890210132  0.009255831330122508  1.0000
  H   H103      1.0  0.6658201209342847  0.5092561915738402  0.9088347423946034  1.0000
  H   H104      1.0  0.5092568040860569  0.9088350640976588  0.6658194848912018  1.0000
  H   H105      1.0  0.9088350840479433  0.6658201412035752  0.5092565134479089  1.0000
  H   H106      1.0  0.9907438776547153  0.8341799267506075  0.5911650272052995  1.0000
  H   H107      1.0  0.5911650464864592  0.9907438232304459  0.8341800440452689  1.0000
  H   H108      1.0  0.8341799840075764  0.5911655490699985  0.9907437194974165  1.0000
  H   H109      1.0  0.09673510199131387  0.808853182251582  0.7900537488406131  1.0000
  H   H110      1.0  0.8088540660546285  0.7900537532655818  0.09673404054446175  1.0000
  H   H111      1.0  0.7900539358705955  0.09673424754020492  0.8088533991033345  1.0000
  H   H112      1.0  0.6911439939308791  0.40326524022498234  0.7099433343304399  1.0000
  H   H113      1.0  0.7099441057165379  0.6911431588966792  0.40326547294336723  1.0000
  H   H114      1.0  0.4032661277923849  0.7099433657936913  0.6911428817761874  1.0000
  H   H115      1.0  0.9032657114056091  0.1911464562597445  0.20994632501173527  1.0000
  H   H116      1.0  0.19114564914973184  0.20994648482543  0.9032655102830771  1.0000
  H   H117      1.0  0.20994632746012337  0.9032654160364261  0.19114615303872995  1.0000
  H   H118      1.0  0.30885627039484825  0.5967344243470192  0.29005676558261945  1.0000
  H   H119      1.0  0.2900567076803852  0.3088564796146471  0.5967346009089809  1.0000
  H   H120      1.0  0.596734136483171  0.2900568462366451  0.30885664299064086  1.0000
  H   H121      1.0  0.17006447547608863  0.8684056031865526  0.7715952349557682  1.0000
  H   H122      1.0  0.8684062360336354  0.771595293480715  0.17006402446275357  1.0000
  H   H123      1.0  0.7715957880111118  0.17006375430317894  0.8684061126943519  1.0000
  H   H124      1.0  0.6315929185582049  0.3299354808024759  0.7284017920218916  1.0000
  H   H125      1.0  0.7284022573337551  0.6315933507289131  0.3299347913943508  1.0000
  H   H126      1.0  0.3299356637029831  0.7284016632672062  0.6315930035923571  1.0000
  H   H127      1.0  0.8299357888496459  0.13159406138544935  0.22840486495729104  1.0000
  H   H128      1.0  0.13159402923694327  0.22840491954499242  0.8299360480750692  1.0000
  H   H129      1.0  0.22840392624841138  0.8299359353341204  0.13159346550841627  1.0000
  H   H130      1.0  0.3684062485699896  0.670064784344582  0.2715983326373674  1.0000
  H   H131      1.0  0.2715980079368165  0.3684068622968013  0.6700652811434721  1.0000
  H   H132      1.0  0.6700640515013844  0.2715985748238126  0.36840654723518906  1.0000
  H   H133      1.0  0.14236971762117887  0.8436765687193956  0.8642882203536502  1.0000
  H   H134      1.0  0.8436770917579391  0.8642874629575915  0.14236969827184964  1.0000
  H   H135      1.0  0.8642883171483572  0.14236977638441323  0.8436760284368818  1.0000
  H   H136      1.0  0.6563259079166456  0.3576276648742152  0.6357092874776598  1.0000
  H   H137      1.0  0.6357097290691341  0.6563247608318578  0.35762799821709734  1.0000
  H   H138      1.0  0.35762877482215316  0.6357093582033216  0.6563246902882582  1.0000
  H   H139      1.0  0.8576299995732197  0.15632367136235814  0.1357124260158926  1.0000
  H   H140      1.0  0.156323172567788  0.13571220161441033  0.8576304016412167  1.0000
  H   H141      1.0  0.13571139810618857  0.8576299142482567  0.15632409753689563  1.0000
  H   H142      1.0  0.3436743574041116  0.6423720006931575  0.3642913602064013  1.0000
  H   H143      1.0  0.36429053620143736  0.3436754521938498  0.6423720743207325  1.0000
  H   H144      1.0  0.6423714903982399  0.3642914022807275  0.3436748071033335  1.0000
  C   C1        1.0  0.13104478351754514  0.5964790479576224  0.16226769227863258  1.0000
  C   C2        1.0  0.5964782142985214  0.1622682533053919  0.13104394098630218  1.0000
  C   C3        1.0  0.162267527892773  0.1310438110131145  0.5964792862870496  1.0000
  C   C4        1.0  0.903522173418544  0.36895539374071973  0.337732291989127  1.0000
  C   C5        1.0  0.3377327473785597  0.9035217296797601  0.3689544833103752  1.0000
  C   C6        1.0  0.3689549411147864  0.3377325826318085  0.9035216641793227  1.0000
  C   C7        1.0  0.8689554788683295  0.4035200671652959  0.8377318872386609  1.0000
  C   C8        1.0  0.4035193046210849  0.8377320890283215  0.8689557140840874  1.0000
  C   C9        1.0  0.8377327383728211  0.8689564030079635  0.40352133402178236  1.0000
  C   C10       1.0  0.09647863992820048  0.6310447922289483  0.662267206716983  1.0000
  C   C11       1.0  0.6622669658859479  0.09647795896217565  0.6310445471213981  1.0000
  C   C12       1.0  0.631044225068571  0.6622671340615439  0.09647848785516541  1.0000
  C   C13       1.0  0.07035154054350559  0.6547566052839642  0.13912224210864824  1.0000
  C   C14       1.0  0.6547563288930361  0.1391224498657024  0.07035073227223172  1.0000
  C   C15       1.0  0.13912240069079468  0.0703510815706139  0.6547561836554222  1.0000
  C   C16       1.0  0.8452440604743713  0.42964769171030787  0.3608789850096485  1.0000
  C   C17       1.0  0.360878965903879  0.8452440803398248  0.42964705078085785  1.0000
  C   C18       1.0  0.42964818930769155  0.36087830997831816  0.8452446882288099  1.0000
  C   C19       1.0  0.929648724827423  0.3452425128250668  0.860878980721644  1.0000
  C   C20       1.0  0.34524229199848117  0.8608794867031618  0.9296493363220365  1.0000
  C   C21       1.0  0.8608784145958023  0.9296496538481308  0.3452438354464605  1.0000
  C   C22       1.0  0.15475620479620025  0.5703525213153996  0.6391210875281814  1.0000
  C   C23       1.0  0.6391207502453254  0.15475670620489979  0.570352472671452  1.0000
  C   C24       1.0  0.5703520750682216  0.6391208071353418  0.15475598683048733  1.0000
  C   C25       1.0  0.19507406736614996  0.5891649252962451  0.10347782774292111  1.0000
  C   C26       1.0  0.5891645856653865  0.1034772113320344  0.19507357738572043  1.0000
  C   C27       1.0  0.10347783670314928  0.19507376183126007  0.5891643837174031  1.0000
  C   C28       1.0  0.9108363410451117  0.3049249046896279  0.3965216230878497  1.0000
  C   C29       1.0  0.396522441116744  0.9108365237309858  0.3049242768513166  1.0000
  C   C30       1.0  0.3049245627732943  0.396522418610772  0.9108366555147711  1.0000
  C   C31       1.0  0.8049261960147475  0.41083419082205114  0.8965222995453744  1.0000
  C   C32       1.0  0.41083457952294816  0.8965225043659402  0.8049260268777659  1.0000
  C   C33       1.0  0.8965218785513969  0.8049259288014169  0.4108357422563743  1.0000
  C   C34       1.0  0.0891639241752813  0.6950758557944214  0.6034778743037421  1.0000
  C   C35       1.0  0.6034767240715978  0.08916319196699622  0.6950753274121696  1.0000
  C   C36       1.0  0.6950751534260957  0.603477820475611  0.08916344308376982  1.0000
  C   C37       1.0  0.1555327940093036  0.7094357108219784  0.930454367491862  1.0000
  C   C38       1.0  0.7094362448709146  0.9304545743388106  0.15553245024512558  1.0000
  C   C39       1.0  0.9304541279676922  0.1555328911387477  0.7094358515823629  1.0000
  C   C40       1.0  0.7905651202927045  0.3444660407773839  0.5695468954344208  1.0000
  C   C41       1.0  0.5695461234100349  0.7905650838489678  0.3444657673865166  1.0000
  C   C42       1.0  0.3444662423908226  0.5695461829699013  0.7905646745745755  1.0000
  C   C43       1.0  0.8444674693715938  0.29056340529631813  0.06954575979643349  1.0000
  C   C44       1.0  0.2905640203996568  0.06954563868690401  0.8444676222926973  1.0000
  C   C45       1.0  0.06954613824771629  0.8444678703406723  0.29056419358023083  1.0000
  C   C46       1.0  0.20943459789671684  0.6555342002997335  0.43045429870612395  1.0000
  C   C47       1.0  0.43045359179433257  0.20943515424204415  0.6555337834410224  1.0000
  C   C48       1.0  0.6555340218847333  0.4304540290604424  0.20943485019225253  1.0000
  C   C49       1.0  0.4807302799338017  0.6328991989931295  0.9123217529013344  1.0000
  C   C50       1.0  0.6328994821699041  0.9123216767178234  0.4807296105128457  1.0000
  C   C51       1.0  0.9123217946166946  0.48073032736777316  0.6328995354846114  1.0000
  C   C52       1.0  0.8671002183401838  0.019269536361406416  0.5876781915597462  1.0000
  C   C53       1.0  0.587678473829655  0.8670998630114185  0.01926931660119641  1.0000
  C   C54       1.0  0.0192693000892916  0.5876782852183312  0.8671000905892612  1.0000
  C   C55       1.0  0.5192699843919327  0.36710046557887205  0.0876783470117317  1.0000
  C   C56       1.0  0.36710023303446343  0.08767856137318829  0.5192699403146932  1.0000
  C   C57       1.0  0.08767847159872129  0.5192704341116466  0.36710050967798225  1.0000
  C   C58       1.0  0.13289949785919927  0.9807307027249763  0.4123219070387946  1.0000
  C   C59       1.0  0.41232233857224526  0.13289977450453697  0.9807302094801499  1.0000
  C   C60       1.0  0.9807304151150757  0.41232195287268075  0.13289946023827784  1.0000
  C   C61       1.0  0.0018565710944998003  0.6579082570530163  0.1933629858564316  1.0000
  C   C62       1.0  0.6579085102126426  0.19336375506973266  0.0018566488849743141  1.0000
  C   C63       1.0  0.19336253499537998  0.0018556315100752994  0.6579083168032939  1.0000
  C   C64       1.0  0.842092987242651  0.49814242788476554  0.30663936336127057  1.0000
  C   C65       1.0  0.3066388298337798  0.8420931091109197  0.4981421424201428  1.0000
  C   C66       1.0  0.4981431583863197  0.30663863633683525  0.8420930293373842  1.0000
  C   C67       1.0  0.9981431442102175  0.3420908861213192  0.8066377152635767  1.0000
  C   C68       1.0  0.34209120693157746  0.8066370324703557  0.9981434223383302  1.0000
  C   C69       1.0  0.8066371802591659  0.9981440591226018  0.3420918091704833  1.0000
  C   C70       1.0  0.15790727708308339  0.5018572366872291  0.6933607365517888  1.0000
  C   C71       1.0  0.6933608863154248  0.1579076774338048  0.5018573810321669  1.0000
  C   C72       1.0  0.5018565559233892  0.6933605058421294  0.15790712401162924  1.0000
  C   C73       1.0  0.20400244822587868  0.7032977372527115  0.8625485812200963  1.0000
  C   C74       1.0  0.7032981215083324  0.8625485408962775  0.2040020685905048  1.0000
  C   C75       1.0  0.8625474690585121  0.2040034384596296  0.7032979243629144  1.0000
  C   C76       1.0  0.7967026915563692  0.2959986103987902  0.6374520098707209  1.0000
  C   C77       1.0  0.6374516892584196  0.7967030951217353  0.2959966882393772  1.0000
  C   C78       1.0  0.2959976880421351  0.6374512816421429  0.7967026509910439  1.0000
  C   C79       1.0  0.7959972670788459  0.296701405921617  0.13745211989991188  1.0000
  C   C80       1.0  0.2967021447572549  0.13745167312480078  0.7959985517183269  1.0000
  C   C81       1.0  0.13745279710672523  0.795997870478125  0.29670154565344126  1.0000
  C   C82       1.0  0.20329702752771076  0.7040027265903818  0.3625485817483566  1.0000
  C   C83       1.0  0.36254802883063764  0.2032982408720656  0.7040033556086982  1.0000
  C   C84       1.0  0.7040025762334209  0.3625489303881935  0.20329687377578415  1.0000
  C   C85       1.0  0.4913824363586483  0.5633563319085726  0.9579335748329854  1.0000
  C   C86       1.0  0.5633563096193086  0.9579340470559644  0.49138214256411317  1.0000
  C   C87       1.0  0.9579336073194252  0.4913824563372842  0.5633561068154762  1.0000
  C   C88       1.0  0.9366433947113673  0.008617779908270529  0.5420662855265519  1.0000
  C   C89       1.0  0.5420661163434346  0.9366435297060317  0.008617377175291124  1.0000
  C   C90       1.0  0.008617140380707199  0.5420664161663071  0.9366440502115977  1.0000
  C   C91       1.0  0.5086183760432519  0.4366433056073831  0.04206595124836811  1.0000
  C   C92       1.0  0.4366434055850588  0.04206619103505461  0.5086174082634258  1.0000
  C   C93       1.0  0.042066107884941986  0.5086177817537276  0.43664344401206273  1.0000
  C   C94       1.0  0.06335577241682697  0.9913824852387878  0.45793383913269986  1.0000
  C   C95       1.0  0.4579341479822999  0.06335613486596972  0.9913827227377754  1.0000
  C   C96       1.0  0.9913820267474874  0.45793384898074413  0.0633560744476611  1.0000
  C   C97       1.0  0.4463669240170843  0.4842028058160609  0.05222963950439659  1.0000
  C   C98       1.0  0.48420281439631896  0.052230167025229  0.4463657287386907  1.0000
  C   C99       1.0  0.05222978547290319  0.4463667660845729  0.4842030803642884  1.0000
  C   C100      1.0  0.0157970279365358  0.05363414561260531  0.44777120847795965  1.0000
  C   C101      1.0  0.44777062074684437  0.015796927797644904  0.05363375645322321  1.0000
  C   C102      1.0  0.05363350178653548  0.4477703173503614  0.015796915060477108  1.0000
  C   C103      1.0  0.5536338913196985  0.5157973821443419  0.9477709547437241  1.0000
  C   C104      1.0  0.5157968998130257  0.9477700700704192  0.5536332743178464  1.0000
  C   C105      1.0  0.9477710308087168  0.5536339703295353  0.5157974865085961  1.0000
  C   C106      1.0  0.9842032393240742  0.9463660694038367  0.5522299596018669  1.0000
  C   C107      1.0  0.5522290925678419  0.9842022133859485  0.9463658491247814  1.0000
  C   C108      1.0  0.9463662144128475  0.5522299217360215  0.9842031835380637  1.0000
  C   C109      1.0  0.3874781197899394  0.46864013604660226  0.1098262836802988  1.0000
  C   C110      1.0  0.4686398638673024  0.10982617009936042  0.38747746410247436  1.0000
  C   C111      1.0  0.10982637977232909  0.3874776455014058  0.46863999991509786  1.0000
  C   C112      1.0  0.0313588821699469  0.11252228008454072  0.390173568914186  1.0000
  C   C113      1.0  0.3901740222000925  0.03135950363758871  0.11252211391324349  1.0000
  C   C114      1.0  0.11252230164981816  0.39017324963738537  0.03135941638309699  1.0000
  C   C115      1.0  0.6125226926119608  0.5313595014693533  0.8901732424010474  1.0000
  C   C116      1.0  0.5313598503922207  0.8901735195379459  0.6125221141003011  1.0000
  C   C117      1.0  0.890173334487194  0.6125220441359005  0.5313595782876775  1.0000
  C   C118      1.0  0.9686408340294361  0.8874779590018419  0.6098265296843622  1.0000
  C   C119      1.0  0.6098262411306264  0.9686401599390422  0.8874774382288209  1.0000
  C   C120      1.0  0.8874774136047276  0.6098264409952918  0.9686407095906799  1.0000
  C   C121      1.0  0.20339785785836983  0.7585589168954172  0.8060971879611287  1.0000
  C   C122      1.0  0.7585593547386509  0.8060974968454815  0.20339730179956916  1.0000
  C   C123      1.0  0.8060973312011227  0.20339825784630966  0.758558917731591  1.0000
  C   C124      1.0  0.7414403551744967  0.29660273586244307  0.6939024221605335  1.0000
  C   C125      1.0  0.6939018239632516  0.7414410490680012  0.29660256865884804  1.0000
  C   C126      1.0  0.29660228085216284  0.6939015561110793  0.7414411661895671  1.0000
  C   C127      1.0  0.7966018573961761  0.24144077373725997  0.19390293801264147  1.0000
  C   C128      1.0  0.24144036146073225  0.19390274224090123  0.7966027967989718  1.0000
  C   C129      1.0  0.19390293401927036  0.7966025026377396  0.24144057966000076  1.0000
  C   C130      1.0  0.258559362964739  0.7033980526730231  0.30609819683377276  1.0000
  C   C131      1.0  0.30609789323115416  0.25855919101375247  0.7033980777106948  1.0000
  C   C132      1.0  0.7033974353973987  0.3060981355169616  0.2585595075552122  1.0000
  C   C133      1.0  0.15042175525172746  0.8236472004778436  0.8086938084884706  1.0000
  C   C134      1.0  0.8236473838531351  0.8086933445253878  0.15042111630539523  1.0000
  C   C135      1.0  0.8086937781586483  0.15042176265146887  0.8236469668204763  1.0000
  C   C136      1.0  0.6763528696600217  0.349577330535574  0.6913037173091753  1.0000
  C   C137      1.0  0.6913042705898745  0.676353394895365  0.34957713885484765  1.0000
  C   C138      1.0  0.34957728543190564  0.6913037590399042  0.6763526769884151  1.0000
  C   C139      1.0  0.8495785100690295  0.17635246508952926  0.19130683919559036  1.0000
  C   C140      1.0  0.17635233040638806  0.19130634511191152  0.8495784618973802  1.0000
  C   C141      1.0  0.19130593704571908  0.84957847543955  0.17635258400706988  1.0000
  C   C142      1.0  0.32364629746817286  0.650422934611484  0.30869640735008375  1.0000
  C   C143      1.0  0.3086959946806971  0.3236468181303422  0.6504229336829822  1.0000
  C   C144      1.0  0.6504218807012733  0.3086965051117899  0.32364689989984197  1.0000
  N   N1        1.0  0.24999979210940632  0.6436342040859344  0.8563657896209451  1.0000
  N   N2        1.0  0.6436342641539097  0.8563659149037834  0.24999887392668543  1.0000
  N   N3        1.0  0.8563659951492324  0.25000040921999306  0.6436347913815439  1.0000
  N   N4        1.0  0.7500004722163282  0.3563654604860602  0.14363431029211432  1.0000
  N   N5        1.0  0.356366002061506  0.14363484657563672  0.7500011712359084  1.0000
  N   N6        1.0  0.1436337229900104  0.7500003793154733  0.35636582761276975  1.0000
  N   N7        1.0  0.43938488497362016  0.5466152070121238  0.010137723130149807  1.0000
  N   N8        1.0  0.546615479844668  0.010138135947961806  0.439384663812632  1.0000
  N   N9        1.0  0.010137890288319799  0.43938459335242214  0.5466154813082653  1.0000
  N   N10       1.0  0.9533843389827581  0.06061550824846052  0.48986211606053587  1.0000
  N   N11       1.0  0.4898624023900309  0.9533845919262376  0.06061535858360401  1.0000
  N   N12       1.0  0.06061539119151149  0.48986223438286214  0.9533845912818605  1.0000
  N   N13       1.0  0.5606159284233029  0.45338443149920243  0.9898623507221983  1.0000
  N   N14       1.0  0.45338478448106645  0.9898615286240328  0.5606154361004343  1.0000
  N   N15       1.0  0.989861824966226  0.5606150972802552  0.453384644665512  1.0000
  N   N16       1.0  0.046614827150413894  0.9393847559032266  0.510137460827721  1.0000
  N   N17       1.0  0.5101378619357035  0.046615072645757004  0.9393847413294554  1.0000
  N   N18       1.0  0.9393848740790599  0.5101379786428526  0.04661548125596944  1.0000
  N   N19       1.0  0.2500003452721201  0.752917433428955  0.7470820538897626  1.0000
  N   N20       1.0  0.7529177811248431  0.7470816252698428  0.24999994171976433  1.0000
  N   N21       1.0  0.7470813731600571  0.24999930275211582  0.7529181426522982  1.0000
  N   N22       1.0  0.7499999209934742  0.24708278059212327  0.2529185664190692  1.0000
  N   N23       1.0  0.24708193412970292  0.2529180653628273  0.7500001842540129  1.0000
  N   N24       1.0  0.2529183450293643  0.7500009383250018  0.2470830514882465  1.0000
  O   O1        1.0  0.2433137456991616  0.6359376463979985  0.10751221697024958  1.0000
  O   O2        1.0  0.6359379037014249  0.10751181077541362  0.2433130397352201  1.0000
  O   O3        1.0  0.10751294734490806  0.2433131932778565  0.6359381076166529  1.0000
  O   O4        1.0  0.8640619263794703  0.25668670971170826  0.3924877913139895  1.0000
  O   O5        1.0  0.3924884297114986  0.8640616265915924  0.2566864815081757  1.0000
  O   O6        1.0  0.25668762922951766  0.3924880829653928  0.8640622475403745  1.0000
  O   O7        1.0  0.7566865186265729  0.3640620181740033  0.8924878829428096  1.0000
  O   O8        1.0  0.36406180956308276  0.8924878778665217  0.7566859906965534  1.0000
  O   O9        1.0  0.8924867678594522  0.7566870448131625  0.3640614432108934  1.0000
  O   O10       1.0  0.135937787880053  0.743312979925598  0.6075117868887859  1.0000
  O   O11       1.0  0.6075118336192132  0.13593803698503135  0.7433130706338887  1.0000
  O   O12       1.0  0.7433131861072579  0.6075121049950097  0.13593834670773933  1.0000
  O   O13       1.0  0.19022672588529585  0.5397347819526175  0.05849244213658272  1.0000
  O   O14       1.0  0.5397349828338703  0.05849108687427672  0.19022600376212037  1.0000
  O   O15       1.0  0.05849391434895779  0.1902274925870842  0.539734441055188  1.0000
  O   O16       1.0  0.9602675804727451  0.3097698045126976  0.44150540502223373  1.0000
  O   O17       1.0  0.4415063658394087  0.9602675104547984  0.30976970234881657  1.0000
  O   O18       1.0  0.30976970651907004  0.4415063479247296  0.9602677740569164  1.0000
  O   O19       1.0  0.8097735384404385  0.4602648826193772  0.9415076577764765  1.0000
  O   O20       1.0  0.4602647285911344  0.9415069574018986  0.8097736565663495  1.0000
  O   O21       1.0  0.9415063499767767  0.8097721719849175  0.46026565885787823  1.0000
  O   O22       1.0  0.03973268380281069  0.6902304075176389  0.5584941197445943  1.0000
  O   O23       1.0  0.5584933493649513  0.0397327276362134  0.6902298484787295  1.0000
  O   O24       1.0  0.6902300106251571  0.5584944396153659  0.039732297166388326  1.0000
  O   O25       1.0  0.9416513157117945  0.6421449486594425  0.1681287658305664  1.0000
  O   O26       1.0  0.6421450480868172  0.16812928864383994  0.9416510695082181  1.0000
  O   O27       1.0  0.1681300008952746  0.9416502347092573  0.6421447395634914  1.0000
  O   O28       1.0  0.8578562963127536  0.5583481725467649  0.3318735827084467  1.0000
  O   O29       1.0  0.3318734493146066  0.8578565972357595  0.5583477499050106  1.0000
  O   O30       1.0  0.5583483948730148  0.33187325846768795  0.857856546128218  1.0000
  O   O31       1.0  0.058347851416399976  0.3578553164876155  0.8318713588286855  1.0000
  O   O32       1.0  0.3578574115788341  0.8318697232317547  0.0583489535372266  1.0000
  O   O33       1.0  0.8318691682731367  0.058349484970200635  0.35785705578400245  1.0000
  O   O34       1.0  0.14214341988662937  0.44165206653961775  0.6681265158900942  1.0000
  O   O35       1.0  0.668126815955965  0.1421436157899478  0.4416523226328195  1.0000
  O   O36       1.0  0.4416518703975639  0.6681269545580195  0.14214352640961184  1.0000
  O   O37       1.0  0.0157392120279312  0.6773735001236646  0.25613086401138213  1.0000
  O   O38       1.0  0.6773742832307902  0.25613170836803784  0.015739128039030013  1.0000
  O   O39       1.0  0.2561311358573376  0.015738807078570016  0.6773739319537242  1.0000
  O   O40       1.0  0.8226272173602565  0.48426096740164576  0.24387090816156845  1.0000
  O   O41       1.0  0.24387077927205064  0.8226269641687836  0.48426026084369067  1.0000
  O   O42       1.0  0.4842610640489581  0.24387091461071006  0.8226272867822075  1.0000
  O   O43       1.0  0.9842605022817777  0.32262564205530003  0.7438692893376243  1.0000
  O   O44       1.0  0.3226248838472258  0.7438691042373548  0.9842604214739906  1.0000
  O   O45       1.0  0.7438685784523713  0.9842603351003943  0.32262622139528224  1.0000
  O   O46       1.0  0.1773730479103151  0.5157392456240614  0.7561291643762615  1.0000
  O   O47       1.0  0.7561294840084825  0.17737324686618897  0.5157387161521355  1.0000
  O   O48       1.0  0.5157392012216133  0.7561292984149973  0.1773727857556224  1.0000
  F   F1        1.0  0.15791933537368408  0.6137015260979765  0.22804851310058175  1.0000
  F   F2        1.0  0.6137005604825702  0.22804874787087207  0.15791919053611994  1.0000
  F   F3        1.0  0.22804911387932236  0.157917764421974  0.6136989011130468  1.0000
  F   F4        1.0  0.8863009278556929  0.3420802585991112  0.2719519808152029  1.0000
  F   F5        1.0  0.27195225835767906  0.886301393480636  0.3420802585964609  1.0000
  F   F6        1.0  0.342080938967591  0.27195154700354607  0.8863009049615939  1.0000
  F   F7        1.0  0.842080929947066  0.386298139469389  0.7719521345834864  1.0000
  F   F8        1.0  0.3862980575744359  0.7719515433368612  0.8420809601838498  1.0000
  F   F9        1.0  0.7719511504464122  0.8420819001500275  0.3863011988000125  1.0000
  F   F10       1.0  0.11369933647004159  0.6579194059728836  0.7280481190978563  1.0000
  F   F11       1.0  0.7280474539619916  0.11369774670759367  0.6579187992105489  1.0000
  F   F12       1.0  0.6579187772819779  0.728048144624495  0.11369976878318515  1.0000
  F   F13       1.0  0.09692040061900539  0.530624431768217  0.174942075783548  1.0000
  F   F14       1.0  0.5306245587434545  0.17494236784717998  0.0969196499551117  1.0000
  F   F15       1.0  0.17494111147109234  0.09691794494785463  0.5306236614424548  1.0000
  F   F16       1.0  0.969375287105862  0.40308234212997013  0.32505838409627336  1.0000
  F   F17       1.0  0.32505916442625693  0.9693751685287353  0.4030820936193606  1.0000
  F   F18       1.0  0.40308206551988224  0.3250584628452345  0.9693755809752033  1.0000
  F   F19       1.0  0.9030804128280963  0.4693746592847746  0.8250585732150384  1.0000
  F   F20       1.0  0.4693740583185289  0.8250579223651826  0.9030799529938563  1.0000
  F   F21       1.0  0.825058602788431  0.9030817446894517  0.4693759167603203  1.0000
  F   F22       1.0  0.030624977169693993  0.5969178699003664  0.6749411406705476  1.0000
  F   F23       1.0  0.6749399997670621  0.030624546173875406  0.5969169628731237  1.0000
  F   F24       1.0  0.596917100663475  0.674941253848111  0.030624571059284716  1.0000
  F   F25       1.0  0.10025644180938537  0.7230851150715837  0.1329268410708835  1.0000
  F   F26       1.0  0.7230842317717006  0.1329281914080056  0.1002562259098028  1.0000
  F   F27       1.0  0.13292799898660226  0.1002558712895194  0.7230846878619558  1.0000
  F   F28       1.0  0.7769150602519586  0.39974531281284  0.367071568812932  1.0000
  F   F29       1.0  0.36707172156938833  0.7769152209159174  0.3997443737266266  1.0000
  F   F30       1.0  0.3997454831975418  0.36707217668191555  0.7769150330664231  1.0000
  F   F31       1.0  0.8997443736277542  0.27691397797214284  0.8670749034696995  1.0000
  F   F32       1.0  0.27691439105967663  0.8670742946099281  0.8997443630802309  1.0000
  F   F33       1.0  0.8670711681917777  0.8997438463991971  0.27691601194353405  1.0000
  F   F34       1.0  0.22308520496843437  0.6002554476712091  0.6329279285786598  1.0000
  F   F35       1.0  0.6329274455588062  0.22308504423114078  0.6002557509326253  1.0000
  F   F36       1.0  0.6002547811281926  0.6329274878900861  0.22308506684664312  1.0000
  F   F37       1.0  0.05152251447894679  0.6391417526726713  0.06944773930487712  1.0000
  F   F38       1.0  0.6391417824238417  0.0694483813811004  0.051522536659796  1.0000
  F   F39       1.0  0.06944770416480138  0.051522049833273804  0.6391420507952219  1.0000
  F   F40       1.0  0.8608591524710505  0.44847461284322787  0.4305535827233484  1.0000
  F   F41       1.0  0.43055311144309627  0.8608587136062198  0.4484746574891076  1.0000
  F   F42       1.0  0.4484750226571207  0.43055371574749995  0.860859474076598  1.0000
  F   F43       1.0  0.9484777517364618  0.36085900880674876  0.9305523058577168  1.0000
  F   F44       1.0  0.3608595820343081  0.9305512330602851  0.9484786066738452  1.0000
  F   F45       1.0  0.9305520130296043  0.9484781902484797  0.36085859557432104  1.0000
  F   F46       1.0  0.13914111180450559  0.5515255991871088  0.5694459420434796  1.0000
  F   F47       1.0  0.5694466038114498  0.13914097702645734  0.5515254684846697  1.0000
  F   F48       1.0  0.5515252416686137  0.5694459488244944  0.13914062583646822  1.0000
