data_image0
_chemical_formula_structural       Cu2H30C22N10O2
_chemical_formula_sum              "Cu2 H30 C22 N10 O2"
_cell_length_a       6.770005748859552
_cell_length_b       10.286561642468133
_cell_length_c       10.61651109094526
_cell_angle_alpha    118.59864330637757
_cell_angle_beta     108.04266152539157
_cell_angle_gamma    91.08585300314662

_space_group_name_H-M_alt    "P 1"
_space_group_IT_number       1

loop_
  _space_group_symop_operation_xyz
  'x, y, z'

loop_
  _atom_site_type_symbol
  _atom_site_label
  _atom_site_symmetry_multiplicity
  _atom_site_fract_x
  _atom_site_fract_y
  _atom_site_fract_z
  _atom_site_occupancy
  Cu  Cu1       1.0  0.4331709335711835  0.780357099681602  0.0632256330482973  1.0000
  Cu  Cu2       1.0  0.8698071903822467  0.7172448824673979  0.9369515234662698  1.0000
  H   H1        1.0  0.27454889184465975  0.3441195844419698  0.6137596819840141  1.0000
  H   H2        1.0  0.16094150659223774  0.7302422729600696  0.38637122174178984  1.0000
  H   H3        1.0  0.2118861415535349  0.08939671281961381  0.5742151902717012  1.0000
  H   H4        1.0  0.13860048539203268  0.5147374381644955  0.4254962409791716  1.0000
  H   H5        1.0  0.30025933177439873  0.04968130225906721  0.7991404315192908  1.0000
  H   H6        1.0  0.0017936591338595968  0.2501700687743522  0.20034661360519115  1.0000
  H   H7        1.0  0.458415515007573  0.27465594200734966  0.06534673764237903  1.0000
  H   H8        1.0  0.8928442918624314  0.20923167283041982  0.9342675099563137  1.0000
  H   H9        1.0  0.6225435279954253  0.5228239709466963  0.23186690079896266  1.0000
  H   H10       1.0  0.8903862713431822  0.2910388363739358  0.76811639702575  1.0000
  H   H11       1.0  0.7638349874125224  0.7409265957144912  0.41450772477270437  1.0000
  H   H12       1.0  0.8496808401221473  0.32648670478843667  0.5856517249782272  1.0000
  H   H13       1.0  0.8540083140659219  0.8580089477441036  0.3565307270828411  1.0000
  H   H14       1.0  0.997778466484739  0.501624683823657  0.6437031242015364  1.0000
  H   H15       1.0  0.7046996256069704  0.9866908397767274  0.5666366148382733  1.0000
  H   H16       1.0  0.6384660802512911  0.420031235851667  0.43342181828359827  1.0000
  H   H17       1.0  0.45055539909520087  0.8770732394425452  0.433881084583632  1.0000
  H   H18       1.0  0.5169174027695931  0.44300624745796574  0.5659845671979227  1.0000
  H   H19       1.0  0.520141422649182  0.1404702241750613  0.47737373430563673  1.0000
  H   H20       1.0  0.5427441153932975  0.6629927157463913  0.5226923016114355  1.0000
  H   H21       1.0  0.7270029999849256  0.09211500736871162  0.4031677365892675  1.0000
  H   H22       1.0  0.8238388128974135  0.6890540462126111  0.5969575111654277  1.0000
  H   H23       1.0  0.3824230214890533  0.20927462916697698  0.2869073784492286  1.0000
  H   H24       1.0  0.5953677203949185  0.9222885726133118  0.7130747597636997  1.0000
  H   H25       1.0  0.2923708257959063  0.06776776900272813  0.08760501753182837  1.0000
  H   H26       1.0  0.7045754055638652  0.9802343419963719  0.9124004324745839  1.0000
  H   H27       1.0  0.5700638918457841  0.13548224561093755  0.19567026098608403  1.0000
  H   H28       1.0  0.8742603451869114  0.9398683091995182  0.8043999172927625  1.0000
  H   H29       1.0  0.27461198675871396  0.9602531441561551  0.23853309334214134  1.0000
  H   H30       1.0  0.5360049799217209  0.7216689105200303  0.7614690550883552  1.0000
  C   C1        1.0  0.3983009343711643  0.45987240594535456  0.8627962220971667  1.0000
  C   C2        1.0  0.03536734099254351  0.5971162772887483  0.13731210996176912  1.0000
  C   C3        1.0  0.315692864371961  0.32909685474908923  0.7130576871525846  1.0000
  C   C4        1.0  0.10279725288548043  0.6159489998746538  0.28696727542525474  1.0000
  C   C5        1.0  0.2803564567541131  0.18548867496318883  0.6917663607668912  1.0000
  C   C6        1.0  0.08915880840162768  0.49344806796038654  0.3080090298502895  1.0000
  C   C7        1.0  0.32877936126336493  0.1632909168184966  0.8180512502747987  1.0000
  C   C8        1.0  0.011159588842339493  0.34497681708165834  0.18159069521797727  1.0000
  C   C9        1.0  0.4155177209481877  0.2883205401441203  0.9650816009106579  1.0000
  C   C10       1.0  0.9503214292748793  0.3231287503461573  0.03464135539412876  1.0000
  C   C11       1.0  0.4505948362566201  0.4362465733897807  0.9910889172802797  1.0000
  C   C12       1.0  0.959258628513055  0.4452045683508388  0.008883132207870136  1.0000
  C   C13       1.0  0.5526935849427943  0.5575669263591507  0.1470232193602924  1.0000
  C   C14       1.0  0.9054077877516703  0.41063481082425574  0.8529882834840662  1.0000
  C   C15       1.0  0.7105983588001765  0.8050996732549651  0.3562507991103417  1.0000
  C   C16       1.0  0.8546222401529563  0.4489434555508396  0.6439107253172266  1.0000
  C   C17       1.0  0.6031304045263823  0.9280229861815459  0.4440148423202927  1.0000
  C   C18       1.0  0.6594037864782863  0.4839653227718019  0.556007055673767  1.0000
  C   C19       1.0  0.5740652008621155  0.04611363349576442  0.39672441334643327  1.0000
  C   C20       1.0  0.6773789343510755  0.6493604303679703  0.6033309774340337  1.0000
  C   C21       1.0  0.41600793636322925  0.10778883265977875  0.20016940115258555  1.0000
  C   C22       1.0  0.7157111478940195  0.9076248906814612  0.7998644728415839  1.0000
  N   N1        1.0  0.192389654332196  0.8155559270413594  0.9202283403961147  1.0000
  N   N2        1.0  0.7721737847687606  0.895570473503675  0.07990338241267375  1.0000
  N   N3        1.0  0.202400634611088  0.7903051039808846  0.7998611328361491  1.0000
  N   N4        1.0  0.9026473225064818  0.9906974923505628  0.2002786020516323  1.0000
  N   N5        1.0  0.20819176630195813  0.7663377476890504  0.6812346533424432  1.0000
  N   N6        1.0  0.027152210759339806  0.08537362834950103  0.3188832545411628  1.0000
  N   N7        1.0  0.5764616979268739  0.7012149844889495  0.19629813685399009  1.0000
  N   N8        1.0  0.880182343450528  0.5050574619346336  0.8038050308530131  1.0000
  N   N9        1.0  0.4215328708799931  0.9874459692780775  0.23863320808978006  1.0000
  N   N10       1.0  0.6828447124385307  0.7488053108562839  0.761413922712876  1.0000
  O   O1        1.0  0.42691235424671703  0.5937992624004098  0.878013863287471  1.0000
  O   O2        1.0  0.048548133919666774  0.7159152367150273  0.12224387036077643  1.0000
