data_image0
_chemical_formula_structural       La4H108C102N24O48
_chemical_formula_sum              "La4 H108 C102 N24 O48"
_cell_length_a       16.544878211874448
_cell_length_b       16.54344024877934
_cell_length_c       19.286306925912466
_cell_angle_alpha    64.61712010757269
_cell_angle_beta     64.60130992957252
_cell_angle_gamma    59.998660574007914

_space_group_name_H-M_alt    "P 1"
_space_group_IT_number       1

loop_
  _space_group_symop_operation_xyz
  'x, y, z'

loop_
  _atom_site_type_symbol
  _atom_site_label
  _atom_site_symmetry_multiplicity
  _atom_site_fract_x
  _atom_site_fract_y
  _atom_site_fract_z
  _atom_site_occupancy
  La  La1       1.0  0.07079527324311388  0.07078058763924132  0.787708634147684  1.0000
  La  La2       1.0  0.9292038625968431  0.9292196124739008  0.21229034560075624  1.0000
  La  La3       1.0  0.7846565866702662  0.7847930910147626  0.6459012508612074  1.0000
  La  La4       1.0  0.21534615061058557  0.21520366894853998  0.3541002628761092  1.0000
  H   H1        1.0  0.0789954891869797  0.1308973029108671  0.9464834116906077  1.0000
  H   H2        1.0  0.13071835339020046  0.8439987254383469  0.9466350260281474  1.0000
  H   H3        1.0  0.843765372937014  0.07876687697329017  0.9466256885713664  1.0000
  H   H4        1.0  0.9210022123405961  0.8691034795579996  0.0535138016706042  1.0000
  H   H5        1.0  0.8692807571232349  0.15600011752827922  0.053367045460206  1.0000
  H   H6        1.0  0.15623378393749482  0.9212346761696253  0.05337072100428478  1.0000
  H   H7        1.0  0.14801984839289156  0.2017106449366466  0.9862331394183459  1.0000
  H   H8        1.0  0.20146987558525348  0.6644005004099968  0.9863553043689136  1.0000
  H   H9        1.0  0.6641627340063677  0.14783847517875162  0.9863166720128193  1.0000
  H   H10       1.0  0.8519778325254704  0.7982874520563641  0.013766606452826105  1.0000
  H   H11       1.0  0.798524874687338  0.3355980353787019  0.013648452619690783  1.0000
  H   H12       1.0  0.3358371271484089  0.8521627744360883  0.013682185457810305  1.0000
  H   H13       1.0  0.3274604259284715  0.14453164660099554  0.9577471534381559  1.0000
  H   H14       1.0  0.14427735372502332  0.5706725146412596  0.9578225331809236  1.0000
  H   H15       1.0  0.570393810333151  0.32728505828799814  0.9576415884716383  1.0000
  H   H16       1.0  0.6725357987922819  0.8554683446101239  0.042253471544242256  1.0000
  H   H17       1.0  0.8557144869363497  0.42932781297290734  0.0421826647523247  1.0000
  H   H18       1.0  0.42960893661430066  0.6727150430823414  0.04235871550494612  1.0000
  H   H19       1.0  0.4378752704070479  0.014575845852611706  0.8874984701985298  1.0000
  H   H20       1.0  0.014514244203496701  0.6604587160466054  0.8874277156346011  1.0000
  H   H21       1.0  0.6601756208458553  0.43767706446740806  0.8872364073868939  1.0000
  H   H22       1.0  0.5621231564353407  0.9854259861179531  0.11249862088487815  1.0000
  H   H23       1.0  0.9854797899955442  0.3395434440935218  0.11257499153389706  1.0000
  H   H24       1.0  0.33982638126022374  0.5623226350989511  0.11276638475096223  1.0000
  H   H25       1.0  0.46584435338389335  0.8977119023952863  0.832695322000035  1.0000
  H   H26       1.0  0.8978139092320562  0.8040558750346564  0.8326170944955749  1.0000
  H   H27       1.0  0.8037397680685743  0.46562354788854066  0.8324830632758662  1.0000
  H   H28       1.0  0.5341540625158814  0.10229058550646632  0.16730309183260056  1.0000
  H   H29       1.0  0.10218228115287789  0.19594408324254434  0.1673877030238131  1.0000
  H   H30       1.0  0.1962607806238879  0.5343760492851714  0.16752029069541405  1.0000
  H   H31       1.0  0.49968275658440575  0.7699828385302825  0.7948377257644239  1.0000
  H   H32       1.0  0.7701422686738794  0.9356143662930306  0.7947757117314823  1.0000
  H   H33       1.0  0.9353393737258527  0.49958990661745883  0.7948747130982313  1.0000
  H   H34       1.0  0.5003171065036867  0.23001907936596672  0.20516088975406177  1.0000
  H   H35       1.0  0.22985613090866508  0.0643854402496089  0.20522471304398954  1.0000
  H   H36       1.0  0.06465902307269289  0.5004118965359295  0.20512602895504264  1.0000
  H   H37       1.0  0.3812797727496502  0.6940680290591601  0.8994917262891563  1.0000
  H   H38       1.0  0.6941550066568992  0.02529298229661951  0.8994116250488348  1.0000
  H   H39       1.0  0.025123630333254692  0.3812490763835185  0.8994523121726987  1.0000
  H   H40       1.0  0.6187201032143719  0.30593390118730224  0.10050532452795839  1.0000
  H   H41       1.0  0.30584049854901  0.9747079642570283  0.1005883963549293  1.0000
  H   H42       1.0  0.9748747608973005  0.6187567199913602  0.10054906443617981  1.0000
  H   H43       1.0  0.4453438059218016  0.6443124776332285  0.8163542149300084  1.0000
  H   H44       1.0  0.6443566044307545  0.09411417332586314  0.8163335462427598  1.0000
  H   H45       1.0  0.0938784207077461  0.44533008506858357  0.8163163424986734  1.0000
  H   H46       1.0  0.5546567938490483  0.35568850138744074  0.18364291789861636  1.0000
  H   H47       1.0  0.355640360839395  0.9058862155724939  0.18366511214548328  1.0000
  H   H48       1.0  0.906119981040085  0.5546763878211891  0.18368374902382104  1.0000
  H   H49       1.0  0.322143590180822  0.7298940952222138  0.826300371377542  1.0000
  H   H50       1.0  0.7299036799703275  0.12185513860006832  0.8262699503449653  1.0000
  H   H51       1.0  0.12159487323793879  0.3221357523099471  0.8262136246836178  1.0000
  H   H52       1.0  0.6778570196819659  0.27010889275943106  0.17369551402752142  1.0000
  H   H53       1.0  0.270092555267702  0.8781455291259377  0.17372938955103473  1.0000
  H   H54       1.0  0.8784042398661214  0.6778684245577294  0.17378807588892897  1.0000
  H   H55       1.0  0.47667353214140457  0.749603006453306  0.6812541905602886  1.0000
  H   H56       1.0  0.7497437890494253  0.09253460631186525  0.6811334885742043  1.0000
  H   H57       1.0  0.0922813154798661  0.47666009614953003  0.681200139992697  1.0000
  H   H58       1.0  0.5233306858129083  0.2503958813305545  0.31874342765155456  1.0000
  H   H59       1.0  0.25025534485721573  0.9074649255198607  0.3188657331263798  1.0000
  H   H60       1.0  0.9077192561804708  0.5233415223353718  0.3188004018536433  1.0000
  H   H61       1.0  0.36585869125200077  0.8539125075696178  0.6890280762690112  1.0000
  H   H62       1.0  0.8540950754706528  0.09127460507005478  0.6887918121347242  1.0000
  H   H63       1.0  0.0910413374899051  0.36584545219905357  0.6889443274831635  1.0000
  H   H64       1.0  0.6341455372195881  0.14608705672913666  0.3109682568564409  1.0000
  H   H65       1.0  0.14590404598539658  0.9087235819653828  0.3112089366044017  1.0000
  H   H66       1.0  0.9089563230512141  0.6341559573838252  0.3110578595971417  1.0000
  H   H67       1.0  0.3779500667618763  0.009393834093962977  0.6324617947854206  1.0000
  H   H68       1.0  0.009551031108564702  0.9799069221218487  0.6324522905347295  1.0000
  H   H69       1.0  0.9797825145574349  0.3779704451080191  0.6325457281789184  1.0000
  H   H70       1.0  0.622054149259114  0.9906043854084885  0.36753606537856587  1.0000
  H   H71       1.0  0.9904473727659562  0.020092888537533285  0.3675476126736116  1.0000
  H   H72       1.0  0.020218791001660498  0.6220322311120582  0.3674536482553775  1.0000
  H   H73       1.0  0.38730816439919374  0.16001046627794585  0.5589251627369193  1.0000
  H   H74       1.0  0.1601710341062414  0.8931291568421996  0.5590759947572649  1.0000
  H   H75       1.0  0.8931922482586642  0.38759295553388984  0.5589345955297917  1.0000
  H   H76       1.0  0.6126974994674299  0.8399918488386435  0.44107277014926155  1.0000
  H   H77       1.0  0.8398273635429804  0.10686998141903084  0.4409246719703501  1.0000
  H   H78       1.0  0.10680905300845471  0.6124097165694452  0.44106530247162107  1.0000
  H   H79       1.0  0.47912773273657894  0.2668030270198685  0.4717427990879415  1.0000
  H   H80       1.0  0.2668727738717536  0.7815461723972064  0.47197745616139014  1.0000
  H   H81       1.0  0.7818247653039092  0.47968127253140846  0.47167543724554406  1.0000
  H   H82       1.0  0.5208793658677705  0.7331973732949206  0.5282568625226318  1.0000
  H   H83       1.0  0.7331277982139139  0.21845411364162026  0.5280230480221207  1.0000
  H   H84       1.0  0.21817069462356642  0.5203202970195164  0.52833007944443  1.0000
  H   H85       1.0  0.660826225706387  0.19218480302074434  0.43120970560863014  1.0000
  H   H86       1.0  0.19215121941457622  0.7151195617415809  0.4314523677503955  1.0000
  H   H87       1.0  0.7154785932020502  0.6613421845961583  0.43128358409378337  1.0000
  H   H88       1.0  0.3391808632313555  0.8078122558870006  0.5687911657626827  1.0000
  H   H89       1.0  0.8078493923815342  0.2848840945214732  0.5685432757025168  1.0000
  H   H90       1.0  0.2845154171784543  0.3386606191249371  0.5687220105253133  1.0000
  H   H91       1.0  0.7489309257654212  0.014058798138030732  0.47696490031739813  1.0000
  H   H92       1.0  0.013958727748381198  0.7596324862406121  0.4771546334174842  1.0000
  H   H93       1.0  0.7599904103851003  0.74918147715249  0.4771421272438231  1.0000
  H   H94       1.0  0.251073971567962  0.9859370965251558  0.5230382198665068  1.0000
  H   H95       1.0  0.9860411525076174  0.24036944812259245  0.5228418958325067  1.0000
  H   H96       1.0  0.24001089324067948  0.2508205307861786  0.5228574911426166  1.0000
  H   H97       1.0  0.2882955463687651  0.902364256637526  0.8268328135852486  1.0000
  H   H98       1.0  0.9023157176044379  0.9829211616097597  0.8267265329652743  1.0000
  H   H99       1.0  0.9826394980321493  0.2881758402424596  0.8267942769297394  1.0000
  H   H100      1.0  0.711704336671225  0.0976356811149303  0.1731633983869401  1.0000
  H   H101      1.0  0.09767978524281061  0.017080449108561893  0.17327376805346262  1.0000
  H   H102      1.0  0.017362529400450896  0.711825216470416  0.173205423468211  1.0000
  H   H103      1.0  0.5683927494796848  0.8458612452874306  0.632783272487714  1.0000
  H   H104      1.0  0.8458667254608939  0.9529969046265595  0.6327078952331033  1.0000
  H   H105      1.0  0.9527394946189601  0.568379463436429  0.6327994386123735  1.0000
  H   H106      1.0  0.43161000562638197  0.15414019676246943  0.3672160260174523  1.0000
  H   H107      1.0  0.1541316640297055  0.04700089295511129  0.36729377696592286  1.0000
  H   H108      1.0  0.04726107274939299  0.43162215093173734  0.36720162480109764  1.0000
  C   C1        1.0  0.21779338537409393  0.03303484522842127  0.8928417449383376  1.0000
  C   C2        1.0  0.03289140401564341  0.8567125587871162  0.8929482001791484  1.0000
  C   C3        1.0  0.856447860727222  0.2175699972631764  0.8928276812284537  1.0000
  C   C4        1.0  0.7822050442522865  0.9669649901313947  0.10715502886726111  1.0000
  C   C5        1.0  0.9671069822656264  0.14328856785137833  0.10705382696051657  1.0000
  C   C6        1.0  0.1435534561998253  0.7824306905796306  0.10717033479378563  1.0000
  C   C7        1.0  0.15730780170445513  0.1056950485875419  0.9340256153979851  1.0000
  C   C8        1.0  0.10550682146294578  0.8033566908552959  0.9341549439003458  1.0000
  C   C9        1.0  0.8031000537289614  0.15708883106172059  0.9340594148987263  1.0000
  C   C10       1.0  0.8426891654990171  0.8943060085922313  0.06597280103811429  1.0000
  C   C11       1.0  0.8944915590183626  0.19664243093897216  0.0658478090957644  1.0000
  C   C12       1.0  0.1969019870049138  0.8429109055552929  0.06593868313502313  1.0000
  C   C13       1.0  0.19681319278719656  0.14460482261890212  0.9560291037936042  1.0000
  C   C14       1.0  0.14437819368557567  0.7029398440665134  0.9561486685066499  1.0000
  C   C15       1.0  0.7026820168007788  0.1966176050339996  0.956043226038567  1.0000
  C   C16       1.0  0.8031852282552306  0.8553950045074358  0.043968713146248985  1.0000
  C   C17       1.0  0.8556194739315187  0.2970595730223593  0.04385267972872252  1.0000
  C   C18       1.0  0.2973192939009691  0.8033824104106558  0.04395555350293984  1.0000
  C   C19       1.0  0.298084080964216  0.11257200510707575  0.9400116527378729  1.0000
  C   C20       1.0  0.11237858437197448  0.6497375336697575  0.9400710784708081  1.0000
  C   C21       1.0  0.6494598749390833  0.2978863995062326  0.9399008077659372  1.0000
  C   C22       1.0  0.7019136081127613  0.8874274325654954  0.059987087661880815  1.0000
  C   C23       1.0  0.887615435443159  0.3502626133926654  0.05993339768838279  1.0000
  C   C24       1.0  0.35054069478793076  0.7021145506972601  0.06009997603254641  1.0000
  C   C25       1.0  0.3592466527519278  0.04071392683243861  0.9013235068187911  1.0000
  C   C26       1.0  0.04062940402807411  0.6991128551873801  0.9013003986683685  1.0000
  C   C27       1.0  0.6988260106907375  0.35903988154515093  0.9010838433350586  1.0000
  C   C28       1.0  0.6407503120928836  0.959287794512001  0.09867518923228137  1.0000
  C   C29       1.0  0.9593668136167108  0.3008891285177455  0.09870106515896289  1.0000
  C   C30       1.0  0.30117600664993205  0.6409591662067556  0.09891710448645329  1.0000
  C   C31       1.0  0.32136741230562643  0.9995582308386589  0.8772868247998671  1.0000
  C   C32       1.0  0.9995048477321403  0.8021704787235324  0.8772944832007356  1.0000
  C   C33       1.0  0.8018911908564944  0.32114596219214064  0.8771234995020762  1.0000
  C   C34       1.0  0.6786302868632887  0.00044321579487411407  0.12271066817631751  1.0000
  C   C35       1.0  0.0004928209676009006  0.1978322715389069  0.12270669840814459  1.0000
  C   C36       1.0  0.19810719778343608  0.6788545002816877  0.12287824802260863  1.0000
  C   C37       1.0  0.388008415681142  0.9227119225808947  0.8411402216694698  1.0000
  C   C38       1.0  0.9227590928803978  0.8484934737570099  0.8410681838303018  1.0000
  C   C39       1.0  0.8481990127374741  0.3877943219722014  0.8409652293225848  1.0000
  C   C40       1.0  0.6119907349680745  0.07728895816387636  0.15885695142544876  1.0000
  C   C41       1.0  0.07723712283106471  0.15150784166670667  0.15893352194917298  1.0000
  C   C42       1.0  0.15180081879879026  0.6122055663793802  0.15903724145508136  1.0000
  C   C43       1.0  0.4284961239905484  0.7918551777765899  0.7878182921023368  1.0000
  C   C44       1.0  0.7919398681783889  0.9920370770224806  0.7877050750262383  1.0000
  C   C45       1.0  0.991744662045839  0.4284297032849126  0.7877979382629334  1.0000
  C   C46       1.0  0.5715051886445224  0.2081455059494743  0.21218024548702627  1.0000
  C   C47       1.0  0.2080578037306893  0.007962344183134507  0.2122957516420101  1.0000
  C   C48       1.0  0.008253730460730002  0.5715720957517336  0.21220332535745698  1.0000
  C   C49       1.0  0.39155411460848194  0.7099262377997136  0.8355738813083989  1.0000
  C   C50       1.0  0.7099718917701308  0.06312574573453844  0.8355067503793095  1.0000
  C   C51       1.0  0.0628677265777213  0.39153257205909864  0.8355287592816724  1.0000
  C   C52       1.0  0.6084464894543443  0.29007474533769795  0.16442272995310248  1.0000
  C   C53       1.0  0.29002434346789846  0.9368749219914676  0.16449258951669762  1.0000
  C   C54       1.0  0.9371306693701554  0.6084718959864475  0.1644720580972531  1.0000
  C   C55       1.0  0.43817370537928463  0.8175413706136753  0.6985169383737215  1.0000
  C   C56       1.0  0.8176558885291102  0.04584746302474941  0.6983907215472556  1.0000
  C   C57       1.0  0.045610656336919  0.4381514726747967  0.6984789690559978  1.0000
  C   C58       1.0  0.5618305082830588  0.1824575130534497  0.3014812014052454  1.0000
  C   C59       1.0  0.18234177522134587  0.9541506175013054  0.30161111059241114  1.0000
  C   C60       1.0  0.95438845955114  0.5618507075821314  0.30152241423873943  1.0000
  C   C61       1.0  0.45714934735669727  0.9722164972505286  0.617844978520452  1.0000
  C   C62       1.0  0.9723020689128178  0.9525931759260544  0.6178212780412192  1.0000
  C   C63       1.0  0.9524848122726793  0.45716675203551177  0.6179123065318349  1.0000
  C   C64       1.0  0.5428534287839213  0.027786297829152283  0.38215174981192496  1.0000
  C   C65       1.0  0.0276970587685312  0.04740568350752739  0.38217870717863894  1.0000
  C   C66       1.0  0.047515039872799  0.5428358217919184  0.3820876317358781  1.0000
  C   C67       1.0  0.5150333660151531  0.02785439272948757  0.5680828317206092  1.0000
  C   C68       1.0  0.0279048423189394  0.888706016623523  0.5681350400549193  1.0000
  C   C69       1.0  0.8887160800000089  0.5151550141900927  0.5681677675027927  1.0000
  C   C70       1.0  0.4849686528334943  0.9721466557499028  0.4319179118115882  1.0000
  C   C71       1.0  0.9720942872957252  0.11129351109146766  0.4318647032127885  1.0000
  C   C72       1.0  0.1112866914232953  0.4848491092189208  0.4318295200595371  1.0000
  C   C73       1.0  0.46630953139159453  0.12960336560233537  0.5402542130485841  1.0000
  C   C74       1.0  0.12967667206245176  0.8633146513727111  0.5403823380391943  1.0000
  C   C75       1.0  0.8634141407504144  0.46659054885905243  0.540261720364093  1.0000
  C   C76       1.0  0.5336946704774519  0.8703988388881357  0.4597453248052614  1.0000
  C   C77       1.0  0.8703217337453851  0.13668582756807265  0.4596173232170031  1.0000
  C   C78       1.0  0.1365864304845772  0.5334124020719246  0.4597388591450838  1.0000
  C   C79       1.0  0.5174000715146291  0.18861708394202037  0.4922648355802223  1.0000
  C   C80       1.0  0.18865876836616735  0.8011074367143254  0.49244232992582226  1.0000
  C   C81       1.0  0.8012992510362976  0.5178308679969634  0.49225590692746807  1.0000
  C   C82       1.0  0.4826048436439762  0.8113834928077709  0.507736069371532  1.0000
  C   C83       1.0  0.8113389136348418  0.198893993452252  0.5075572493188574  1.0000
  C   C84       1.0  0.19869840242885323  0.4821725340799219  0.5077471189977628  1.0000
  C   C85       1.0  0.6197090573939262  0.14631733047446727  0.4697496555020492  1.0000
  C   C86       1.0  0.146305980066046  0.763636628419299  0.4699572473952997  1.0000
  C   C87       1.0  0.7639404574442565  0.620129613327265  0.46979829147291235  1.0000
  C   C88       1.0  0.3802965667622544  0.8536816144179015  0.5302531381147304  1.0000
  C   C89       1.0  0.8536924401257052  0.23636586359919684  0.530040644870205  1.0000
  C   C90       1.0  0.23605792605302156  0.3798735099219784  0.530204052944562  1.0000
  C   C91       1.0  0.6697716845084968  0.04690480216319771  0.4945484705161221  1.0000
  C   C92       1.0  0.04686910551316709  0.7883386778801622  0.4946981866728919  1.0000
  C   C93       1.0  0.7886037219388696  0.6700359128523277  0.4946676154247812  1.0000
  C   C94       1.0  0.33023250576063384  0.9530933926388202  0.505452519050614  1.0000
  C   C95       1.0  0.9531307704508619  0.21166325236630698  0.5052988641442228  1.0000
  C   C96       1.0  0.21139830936036927  0.3299664804233658  0.5053316010688674  1.0000
  C   C97       1.0  0.6197508737033529  0.9842480851451757  0.5453706405130845  1.0000
  C   C98       1.0  0.9842394690677522  0.8503975661324648  0.5453948788858082  1.0000
  C   C99       1.0  0.8504941874818357  0.6198488177742049  0.5454621061181584  1.0000
  C   C100      1.0  0.38025040502123625  0.01575123320089491  0.45463203195043184  1.0000
  C   C101      1.0  0.015758945324037703  0.1496029210418044  0.4546037392361414  1.0000
  C   C102      1.0  0.14950857771616904  0.38015463323666415  0.4545359449634462  1.0000
  N   N1        1.0  0.2150484175565097  0.169494797151998  0.7072008614992101  1.0000
  N   N2        1.0  0.16948668265424519  0.9082604241111056  0.7071625463055681  1.0000
  N   N3        1.0  0.9083090067901124  0.21507078171169533  0.7071326723830894  1.0000
  N   N4        1.0  0.7849529045131901  0.8305032299154008  0.29279655763024687  1.0000
  N   N5        1.0  0.830516801401309  0.09173740593757874  0.29283623731832625  1.0000
  N   N6        1.0  0.0916894337788818  0.7849283977169321  0.29286277867328886  1.0000
  N   N7        1.0  0.3623328391257274  0.8768741795242008  0.8182042143669364  1.0000
  N   N8        1.0  0.8769408136144677  0.9429223893954556  0.8180711012014897  1.0000
  N   N9        1.0  0.942625450758598  0.3621953346721016  0.8181417927573732  1.0000
  N   N10       1.0  0.6376663158154583  0.12312670533731321  0.18179243716085838  1.0000
  N   N11       1.0  0.12305540016367898  0.05707825774685199  0.181930846530129  1.0000
  N   N12       1.0  0.05737365697083869  0.6378055049052662  0.18186059600877502  1.0000
  N   N13       1.0  0.49345160772129765  0.8778678562251869  0.6477444855506533  1.0000
  N   N14       1.0  0.877925567647665  0.9809231648965164  0.6476634831210859  1.0000
  N   N15       1.0  0.9807104715181296  0.49342688360789577  0.6477909448640559  1.0000
  N   N16       1.0  0.5065504340952174  0.12213521356539296  0.3522534458566042  1.0000
  N   N17       1.0  0.12207355338304637  0.0190763545849961  0.3523373032808692  1.0000
  N   N18       1.0  0.019289370110072892  0.5065750137046479  0.3522102784900413  1.0000
  N   N19       1.0  0.6870647367661321  0.6377238203678104  0.7485037584277308  1.0000
  N   N20       1.0  0.6376904908888932  0.9269107996103119  0.7485304843973777  1.0000
  N   N21       1.0  0.9266574789489609  0.687077551931793  0.7486226078927058  1.0000
  N   N22       1.0  0.31294090390065316  0.36227047537187923  0.25149707788421677  1.0000
  N   N23       1.0  0.362308613824581  0.07308603851208768  0.2514723129474135  1.0000
  N   N24       1.0  0.07334450618257898  0.312914800655804  0.2513823241516491  1.0000
  O   O1        1.0  0.18158117901481316  0.997626160842792  0.8693375289659285  1.0000
  O   O2        1.0  0.9974457456783057  0.9518299289121827  0.8695137285474459  1.0000
  O   O3        1.0  0.9515660793560201  0.1813504400087851  0.8694143438554959  1.0000
  O   O4        1.0  0.8184186810573166  0.002371755598481777  0.13066149513119277  1.0000
  O   O5        1.0  0.0025526448949478005  0.04817120184305419  0.13048777702509542  1.0000
  O   O6        1.0  0.04843523799636531  0.8186489153879464  0.13058363450390678  1.0000
  O   O7        1.0  0.13272268768010057  0.20319228089940816  0.7565685551602429  1.0000
  O   O8        1.0  0.20321453747042276  0.9075515124355676  0.7564846690826529  1.0000
  O   O9        1.0  0.9075656622675081  0.1327486635202391  0.7564248487061674  1.0000
  O   O10       1.0  0.8672808111846989  0.7968062297809053  0.24342842181012964  1.0000
  O   O11       1.0  0.7967852964245027  0.09244771175134044  0.24351752208004027  1.0000
  O   O12       1.0  0.0924320240254772  0.8672527707630805  0.24357420897139545  1.0000
  O   O13       1.0  0.2791128427623732  0.1999909087308254  0.685051256431919  1.0000
  O   O14       1.0  0.20006085474150836  0.8358770332546824  0.6849293974727217  1.0000
  O   O15       1.0  0.835938317683336  0.27915004436835045  0.684928442693369  1.0000
  O   O16       1.0  0.7208899436635433  0.8000065647980178  0.31494427811489367  1.0000
  O   O17       1.0  0.7999455485918715  0.16412234637558504  0.3150667354458037  1.0000
  O   O18       1.0  0.16406307711799425  0.7208420546178973  0.3150602010958181  1.0000
  O   O19       1.0  0.22672458489013536  0.1020249356020173  0.6827881072525059  1.0000
  O   O20       1.0  0.1019018236989027  0.9883959423600643  0.6828864756412044  1.0000
  O   O21       1.0  0.9884800445933661  0.22674424554960393  0.6828540542802984  1.0000
  O   O22       1.0  0.773275279473964  0.8979729849559918  0.3172103952774915  1.0000
  O   O23       1.0  0.8981023865221331  0.011600272298167484  0.3171121103792274  1.0000
  O   O24       1.0  0.0115161812100339  0.773259078835075  0.3171464040756077  1.0000
  O   O25       1.0  0.6666604849456661  0.8903664231685509  0.5709556820412233  1.0000
  O   O26       1.0  0.8903288003671647  0.8719908306296632  0.5709015162622036  1.0000
  O   O27       1.0  0.872019978428888  0.6666210911309773  0.5710807174394431  1.0000
  O   O28       1.0  0.33334081481347505  0.10963424820729986  0.4290444202495038  1.0000
  O   O29       1.0  0.10967104682903539  0.12800707346138301  0.4290990725362889  1.0000
  O   O30       1.0  0.1279871641778811  0.3333826835247749  0.428913561873415  1.0000
  O   O31       1.0  0.6637386583756495  0.7022031206923102  0.6853799681054652  1.0000
  O   O32       1.0  0.702183529719278  0.9488474916666905  0.6853923775162868  1.0000
  O   O33       1.0  0.9487060157599955  0.6636968926015924  0.685493146295144  1.0000
  O   O34       1.0  0.3362684376380686  0.2977919457214283  0.31462006442091445  1.0000
  O   O35       1.0  0.29781918223505227  0.05114791115008902  0.31461222796094296  1.0000
  O   O36       1.0  0.0512995948629467  0.3362973743209139  0.31451134098666966  1.0000
  O   O37       1.0  0.6396660977590259  0.5869162098730243  0.7949544559608694  1.0000
  O   O38       1.0  0.5869993551953883  0.9785971284822569  0.7950593350983652  1.0000
  O   O39       1.0  0.9782218449122623  0.6395935499353699  0.795225626912476  1.0000
  O   O40       1.0  0.36033663051253473  0.41308187430286825  0.205048138573531  1.0000
  O   O41       1.0  0.4129932646431697  0.021403633869809428  0.20493920213661457  1.0000
  O   O42       1.0  0.021780862943458594  0.3603945182528678  0.20477955376987458  1.0000
  O   O43       1.0  0.7616333059581917  0.6288084007607894  0.7614069255109472  1.0000
  O   O44       1.0  0.6286381229326066  0.8484499058931335  0.7613603677992276  1.0000
  O   O45       1.0  0.8481957552749718  0.7618109090516828  0.7613738922184864  1.0000
  O   O46       1.0  0.23837525332910295  0.3711827789408275  0.23859138905928023  1.0000
  O   O47       1.0  0.3713631441920596  0.15154540276449077  0.23864375637717222  1.0000
  O   O48       1.0  0.15180623650719838  0.23818078348798372  0.23863023864376492  1.0000
