data_image0
_chemical_formula_structural       Cd2H28C28N4Cl4O8
_chemical_formula_sum              "Cd2 H28 C28 N4 Cl4 O8"
_cell_length_a       5.5228643968811655
_cell_length_b       8.330568976341347
_cell_length_c       17.304863844276763
_cell_angle_alpha    90.01743156580066
_cell_angle_beta     96.0581318456626
_cell_angle_gamma    82.19969461558217

_space_group_name_H-M_alt    "P 1"
_space_group_IT_number       1

loop_
  _space_group_symop_operation_xyz
  'x, y, z'

loop_
  _atom_site_type_symbol
  _atom_site_label
  _atom_site_symmetry_multiplicity
  _atom_site_fract_x
  _atom_site_fract_y
  _atom_site_fract_z
  _atom_site_occupancy
  Cd  Cd1       1.0  0.7907873371361376  0.8765728218219241  0.0473622559758624  1.0000
  Cd  Cd2       1.0  0.20921728517657812  0.12343139968024275  0.9526363397258563  1.0000
  H   H1        1.0  0.6683002317570016  0.33569778117472293  0.4908470404433629  1.0000
  H   H2        1.0  0.3317274271333376  0.6642905341934338  0.5091521437634725  1.0000
  H   H3        1.0  0.12390275818820842  0.6358158404153472  0.1241584883603792  1.0000
  H   H4        1.0  0.8760964223515516  0.36419432411634034  0.8758481094103203  1.0000
  H   H5        1.0  0.9254032801233623  0.5456023551075406  0.0689758115023338  1.0000
  H   H6        1.0  0.07460907613563711  0.45440801249903734  0.9310249454599457  1.0000
  H   H7        1.0  0.5518093849186344  0.4663623645903173  0.1134581008264988  1.0000
  H   H8        1.0  0.44819676990697843  0.533636875528849  0.8865404559850916  1.0000
  H   H9        1.0  0.3971893379345417  0.3606133352904451  0.2304658730641691  1.0000
  H   H10       1.0  0.6027968810299029  0.639390892602812  0.7695291078514472  1.0000
  H   H11       1.0  0.9727744731450515  0.5470336658081295  0.37646661677040777  1.0000
  H   H12       1.0  0.02722165133364739  0.45295454724203676  0.6235336402884357  1.0000
  H   H13       1.0  0.12560283259043098  0.6544247865681643  0.2600794600193765  1.0000
  H   H14       1.0  0.8744064051914295  0.34556659070445056  0.739922531892482  1.0000
  H   H15       1.0  0.6746134742104103  0.7791288883973452  0.5515160308352947  1.0000
  H   H16       1.0  0.32540397993729897  0.22087377847651635  0.44848361639508016  1.0000
  H   H17       1.0  0.9056973551703962  0.1318198162094575  0.1475904183719194  1.0000
  H   H18       1.0  0.09428522246921742  0.8681859395251127  0.8524056067006782  1.0000
  H   H19       1.0  0.6039984317668896  0.1385575542069191  0.12321730128800108  1.0000
  H   H20       1.0  0.3959912275709669  0.8614447211989573  0.8767818247370515  1.0000
  H   H21       1.0  0.04013138013555561  0.09974732710694671  0.2857762111897201  1.0000
  H   H22       1.0  0.9598574884189333  0.9002419360721774  0.714221468132216  1.0000
  H   H23       1.0  0.968774437732897  0.9913749096369029  0.4137635226248833  1.0000
  H   H24       1.0  0.03122620816574792  0.008624976530292431  0.5862348306394906  1.0000
  H   H25       1.0  0.31186726054372826  0.8218341154014582  0.3095768869068962  1.0000
  H   H26       1.0  0.688126192017002  0.17816901517993958  0.690421248330793  1.0000
  H   H27       1.0  0.385185451863812  0.9260840397603334  0.1798442540842942  1.0000
  H   H28       1.0  0.6148026303052704  0.07392312266274816  0.8201560640012104  1.0000
  C   C1        1.0  0.8465000546105941  0.5695143914967321  0.17997135485131108  1.0000
  C   C2        1.0  0.15349182078136184  0.4304936261018641  0.820027972446823  1.0000
  C   C3        1.0  0.6395106423666591  0.488043636977196  0.17132639003554573  1.0000
  C   C4        1.0  0.36048251993091185  0.5119588802265298  0.8286792408091728  1.0000
  C   C5        1.0  0.5533517916907087  0.4283493188587857  0.2367456363760425  1.0000
  C   C6        1.0  0.44664496270810616  0.5716484734415773  0.763254257576051  1.0000
  C   C7        1.0  0.6715011831848088  0.44980966805412254  0.3111060123849043  1.0000
  C   C8        1.0  0.32849964150752703  0.5501957510090634  0.6888976635698753  1.0000
  C   C9        1.0  0.8771805871232916  0.5329359460411071  0.3191309129986095  1.0000
  C   C10       1.0  0.12282714047359632  0.4670604597974021  0.6808705412182263  1.0000
  C   C11       1.0  0.9631346819278548  0.5927841536451127  0.25392705542201804  1.0000
  C   C12       1.0  0.036862563855748896  0.4072198321118066  0.7460700890283007  1.0000
  C   C13       1.0  0.5868545830821007  0.37848112074505746  0.3800492156602573  1.0000
  C   C14       1.0  0.41312892404595664  0.6215132242354643  0.6199524029497637  1.0000
  C   C15       1.0  0.7208554359310071  0.014729216309042725  0.22425327021401387  1.0000
  C   C16       1.0  0.2791357291943087  0.9852700832674802  0.7757504829717661  1.0000
  C   C17       1.0  0.8828721045233153  0.035386017034404894  0.2903920022147659  1.0000
  C   C18       1.0  0.1171266291173154  0.9646128929737262  0.709606256515734  1.0000
  C   C19       1.0  0.841323574974794  0.9760806443634421  0.362653332010936  1.0000
  C   C20       1.0  0.1586818919121242  0.023909924916544912  0.6373490741031347  1.0000
  C   C21       1.0  0.6357240459934204  0.8970538666927795  0.3691725573314812  1.0000
  C   C22       1.0  0.3642669939592978  0.10294104431327612  0.6308264764338389  1.0000
  C   C23       1.0  0.47156276718007467  0.8816043359260848  0.3029224461769218  1.0000
  C   C24       1.0  0.528443258075427  0.11839256835915535  0.6970754806799064  1.0000
  C   C25       1.0  0.5117259283141921  0.9398794380147354  0.23135679431003814  1.0000
  C   C26       1.0  0.4882763483743131  0.060116705460778526  0.7686409701638439  1.0000
  C   C27       1.0  0.5788412271478407  0.8240016901471992  0.441800327655848  1.0000
  C   C28       1.0  0.42117987728991585  0.1760004988450845  0.5582000318578224  1.0000
  N   N1        1.0  0.9405106844519225  0.6265859309076877  0.11323048787519241  1.0000
  N   N2        1.0  0.0594993664412371  0.3734185057745736  0.8867723741546385  1.0000
  N   N3        1.0  0.7599489289318483  0.06713404815104705  0.1485372853642914  1.0000
  N   N4        1.0  0.24004247740325718  0.9328678231738936  0.8514642148504592  1.0000
  Cl  Cl1       1.0  0.310307637657111  0.8420142092431393  0.038824643316672805  1.0000
  Cl  Cl2       1.0  0.6896881381998909  0.1579969521820104  0.9611748997340043  1.0000
  Cl  Cl3       1.0  0.19762426684575024  0.2615063621857275  0.083646560663027  1.0000
  Cl  Cl4       1.0  0.8023636187694193  0.7384983228547244  0.9163548572231833  1.0000
  O   O1        1.0  0.7268807658422745  0.39612642179950813  0.4452509227900734  1.0000
  O   O2        1.0  0.27313412819687954  0.6038635897456431  0.5547454801326381  1.0000
  O   O3        1.0  0.4011340113951364  0.30638411251170783  0.3757780152752659  1.0000
  O   O4        1.0  0.5988683368448875  0.6936152752087568  0.6242238653491157  1.0000
  O   O5        1.0  0.7287752420677195  0.8397867524526607  0.5052731385058706  1.0000
  O   O6        1.0  0.2712363547010597  0.16021170006978747  0.49472735160839676  1.0000
  O   O7        1.0  0.3955751380387795  0.75023358982336  0.4406219648441052  1.0000
  O   O8        1.0  0.6044359494147785  0.24975656932308965  0.5593777618914046  1.0000
