data_image0
_chemical_formula_structural       Al6H68C99Br3N3O28
_chemical_formula_sum              "Al6 H68 C99 Br3 N3 O28"
_cell_length_a       12.78508996371835
_cell_length_b       13.031886281386504
_cell_length_c       27.618264045798114
_cell_angle_alpha    89.74125762433466
_cell_angle_beta     89.31847382351394
_cell_angle_gamma    120.02834864971776

_space_group_name_H-M_alt    "P 1"
_space_group_IT_number       1

loop_
  _space_group_symop_operation_xyz
  'x, y, z'

loop_
  _atom_site_type_symbol
  _atom_site_label
  _atom_site_symmetry_multiplicity
  _atom_site_fract_x
  _atom_site_fract_y
  _atom_site_fract_z
  _atom_site_occupancy
  Al  Al1       1.0  0.151963004873231  0.5562823125434591  0.5042226593756496  1.0000
  Al  Al2       1.0  0.4203176085457797  0.5977078847840714  0.5034509695241525  1.0000
  Al  Al3       1.0  0.39033599583176953  0.8101570393884928  0.4993321003340156  1.0000
  Al  Al4       1.0  0.16114852059368448  0.0703123200844473  0.015409606421563598  1.0000
  Al  Al5       1.0  0.9091214527401872  0.067766251914442  0.0190285070029361  1.0000
  Al  Al6       1.0  0.9005029350837003  0.8336806390701881  0.0166480012080683  1.0000
  H   H1        1.0  0.5731584100086735  0.9417051218150336  0.8121425775587596  1.0000
  H   H2        1.0  0.034932459089738174  0.6363873746348077  0.8002684142360862  1.0000
  H   H3        1.0  0.3348879783779281  0.3891781376944863  0.819843829470507  1.0000
  H   H4        1.0  0.4514924619717959  0.7914196189124924  0.730642646506176  1.0000
  H   H5        1.0  0.23156191490888742  0.7077957155832878  0.7278877872071802  1.0000
  H   H6        1.0  0.34308990737699224  0.5227454896298127  0.7349224132918124  1.0000
  H   H7        1.0  0.4818591164463796  0.7857923893772494  0.8138612570364856  1.0000
  H   H8        1.0  0.19146643157088047  0.706075895315081  0.8110221006148635  1.0000
  H   H9        1.0  0.28377474817698106  0.49211281201036894  0.8167384974180577  1.0000
  H   H10       1.0  0.7328230033590233  0.7216487777595476  0.7933596515415076  1.0000
  H   H11       1.0  0.24976866308549006  0.016906876002529707  0.7973274057597166  1.0000
  H   H12       1.0  0.963086180226078  0.2703986603941644  0.7881915771315704  1.0000
  H   H13       1.0  0.7077384549739706  0.022031517457456604  0.1372905571073773  1.0000
  H   H14       1.0  0.9312125852819406  0.6631328954649122  0.1381195181668815  1.0000
  H   H15       1.0  0.28445092946842715  0.2456208191646638  0.1351495886642269  1.0000
  H   H16       1.0  0.6384107913703828  0.088796066431641  0.3018679112679549  1.0000
  H   H17       1.0  0.9017248324022162  0.5084272266259405  0.29833512717236493  1.0000
  H   H18       1.0  0.4722629167338042  0.37174655059170897  0.28946560480174105  1.0000
  H   H19       1.0  0.7067016579737951  0.6916145533957592  0.1408119775194763  1.0000
  H   H20       1.0  0.263205079843651  0.9968059976226302  0.1358230079818057  1.0000
  H   H21       1.0  0.9408019968269129  0.2267114938197636  0.1519924044944716  1.0000
  H   H22       1.0  0.660545445596746  0.5754289866497331  0.21682589655171114  1.0000
  H   H23       1.0  0.3890595234040575  0.06782992440405171  0.2079975543046402  1.0000
  H   H24       1.0  0.8813921344316568  0.27643810991910556  0.22944669296261114  1.0000
  H   H25       1.0  0.6267740801884188  0.5606813955938749  0.3057403118426336  1.0000
  H   H26       1.0  0.4235084040672418  0.0413707559043957  0.294188471145219  1.0000
  H   H27       1.0  0.9255119827888052  0.33747877508881163  0.31517319139845773  1.0000
  H   H28       1.0  0.5548503471398831  0.9452005401306637  0.7279290869238437  1.0000
  H   H29       1.0  0.07472935490714153  0.6313168319545709  0.717468702538774  1.0000
  H   H30       1.0  0.37403679961308717  0.4049274451230361  0.7360253650366033  1.0000
  H   H31       1.0  0.5886978371627549  0.6402248144786782  0.3809087149657628  1.0000
  H   H32       1.0  0.3566695710184644  0.9214752997116801  0.3693487773284119  1.0000
  H   H33       1.0  0.06688396832948473  0.40456911352129765  0.38289388187507717  1.0000
  H   H34       1.0  0.8302054715605464  0.9200482986627918  0.7056456184341471  1.0000
  H   H35       1.0  0.04909364205344245  0.9028785698134809  0.6989353055406298  1.0000
  H   H36       1.0  0.05834148351343771  0.16766183718734604  0.7078078942542447  1.0000
  H   H37       1.0  0.7769228274193906  0.021663306458052  0.707801630453453  1.0000
  H   H38       1.0  0.9663729035836893  0.7465785944476124  0.7028437668488293  1.0000
  H   H39       1.0  0.2083548276705898  0.19602910606496954  0.7114914631660624  1.0000
  H   H40       1.0  0.7968940788649732  0.03511613336762309  0.7921792700987851  1.0000
  H   H41       1.0  0.9354053329857094  0.7601416243615945  0.7858721215476835  1.0000
  H   H42       1.0  0.19488699297627926  0.17716255537052916  0.7963413741360624  1.0000
  H   H43       1.0  0.8647536857319973  0.9460630018734616  0.788779004811481  1.0000
  H   H44       1.0  0.025409898634570934  0.9162095351460451  0.7824384014556002  1.0000
  H   H45       1.0  0.0384130587282954  0.12258333693574743  0.7909451591661139  1.0000
  H   H46       1.0  0.5319164406319317  0.646878254898546  0.7250407077053254  1.0000
  H   H47       1.0  0.3510873579357607  0.9331364264246886  0.722559784035134  1.0000
  H   H48       1.0  0.12979311839407606  0.47916753788928196  0.7265650227439481  1.0000
  H   H49       1.0  0.6853716780418823  0.7001733172168301  0.7109388806368315  1.0000
  H   H50       1.0  0.2745346249128673  0.012520566555160402  0.7131577704414767  1.0000
  H   H51       1.0  0.015077270152929112  0.33897412832972423  0.7076936488583243  1.0000
  H   H52       1.0  0.5773990033867591  0.6560313738808432  0.8073809392982199  1.0000
  H   H53       1.0  0.3193324460075786  0.9311294255418759  0.8064685693900131  1.0000
  H   H54       1.0  0.05788806596386564  0.41823571241815943  0.806129536082061  1.0000
  H   H55       1.0  0.7017568781187935  0.09717459621999323  0.3642516908932478  1.0000
  H   H56       1.0  0.659270505030193  0.051590041148259005  0.4622564064611083  1.0000
  H   H57       1.0  0.8016374219271895  0.1504357835403241  0.4338447075857204  1.0000
  H   H58       1.0  0.7600554818724631  0.0002851826338456994  0.4465651206469232  1.0000
  H   H59       1.0  0.025509101829584293  0.5820875998556829  0.421074692964396  1.0000
  H   H60       1.0  0.828142679982484  0.47548803241634363  0.4175438257495188  1.0000
  H   H61       1.0  0.843280614594896  0.42273261673203427  0.3604008762570103  1.0000
  H   H62       1.0  0.8255008777609942  0.5500810885177784  0.3632922507477758  1.0000
  H   H63       1.0  0.42545810878758766  0.4301063490526218  0.4145523285284867  1.0000
  H   H64       1.0  0.5017720572727882  0.30860054046431173  0.4083939548021077  1.0000
  H   H65       1.0  0.5628791676728965  0.3757570493235463  0.3511277720138892  1.0000
  H   H66       1.0  0.41795524566024506  0.24484375185005555  0.3549989776258542  1.0000
  H   H67       1.0  0.9489521199591165  0.4575921867188839  0.5309411163779103  1.0000
  H   H68       1.0  0.35859431971384476  0.14877940816820973  0.9843575839098904  1.0000
  C   C1        1.0  0.21068661724996218  0.7610217375907027  0.5686180960170759  1.0000
  C   C2        1.0  0.2556028326737092  0.4501175137830914  0.5727874354580109  1.0000
  C   C3        1.0  0.5383301576702448  0.7905716152211821  0.570627842440949  1.0000
  C   C4        1.0  0.6519332174608935  0.7283975586471599  0.7866702720987818  1.0000
  C   C5        1.0  0.24776647254251563  0.9350418608411105  0.7863343966897814  1.0000
  C   C6        1.0  0.05578505510376888  0.3458293491376949  0.7851451526377176  1.0000
  C   C7        1.0  0.6237725190772919  0.7192748334405151  0.7319911170722762  1.0000
  C   C8        1.0  0.26712711007594675  0.9335363234360513  0.7310008824154934  1.0000
  C   C9        1.0  0.09284673393544551  0.3834328292871732  0.731688807823076  1.0000
  C   C10       1.0  0.6972993747969696  0.8577218318968179  0.8580878116418944  1.0000
  C   C11       1.0  0.10387048363245537  0.8322013962087808  0.8535643319412429  1.0000
  C   C12       1.0  0.11708964704283892  0.2827079663068019  0.8594819081054156  1.0000
  C   C13       1.0  0.6120172607359322  0.8292182102954657  0.6612494974489778  1.0000
  C   C14       1.0  0.1775259149039385  0.8132337902418313  0.6576384238726405  1.0000
  C   C15       1.0  0.21727175510632424  0.37877765085234216  0.6642442416684419  1.0000
  C   C16       1.0  0.5875814535467256  0.8194530920637604  0.6184578113726927  1.0000
  C   C17       1.0  0.18909528685669125  0.7962487797064455  0.6151890816962649  1.0000
  C   C18       1.0  0.23678311626529336  0.40286969982128795  0.6213049467527866  1.0000
  C   C19       1.0  0.0820396178919509  0.1873371704992906  0.0888563688563195  1.0000
  C   C20       1.0  0.7583231355244209  0.8804261410419871  0.08373781828224479  1.0000
  C   C21       1.0  0.07070320905652493  0.8601049077718912  0.0833375376710919  1.0000
  C   C22       1.0  0.0803926173821949  0.20490675399918254  0.9500950576672764  1.0000
  C   C23       1.0  0.7690097385457122  0.8902986164218519  0.9490991606108992  1.0000
  C   C24       1.0  0.06996139643620593  0.866906343862127  0.9452773109051406  1.0000
  C   C25       1.0  0.643145830249743  0.9235219782324935  0.3637056768489231  1.0000
  C   C26       1.0  0.07830180903406608  0.6705207480413832  0.35802321487522454  1.0000
  C   C27       1.0  0.31984989034136657  0.3857568500485159  0.3572674470559534  1.0000
  C   C28       1.0  0.6448391128953047  0.9247848615108936  0.3115562470032245  1.0000
  C   C29       1.0  0.06273110529166095  0.6820649692095628  0.307147326646934  1.0000
  C   C30       1.0  0.2964792554894585  0.35335201677245465  0.3073134714693424  1.0000
  C   C31       1.0  0.6706380508164217  0.9362840189800111  0.2077187983901823  1.0000
  C   C32       1.0  0.029129291361627334  0.7090140029507807  0.2053729556775963  1.0000
  C   C33       1.0  0.24823705836590187  0.2900368268245472  0.2066096121077763  1.0000
  C   C34       1.0  0.22011740893104545  0.75408002820091  0.4298932992290077  1.0000
  C   C35       1.0  0.25323508505365305  0.4543502566654923  0.4332130270404306  1.0000
  C   C36       1.0  0.5578164474935361  0.7834215136306567  0.4369794234332788  1.0000
  C   C37       1.0  0.6577314056317434  0.023160013009700702  0.23464914230037692  1.0000
  C   C38       1.0  0.9496604121039667  0.6046656066931888  0.232736840251782  1.0000
  C   C39       1.0  0.36046734011679843  0.3185596061237702  0.2284612562220261  1.0000
  C   C40       1.0  0.648595550652395  0.019720498699825808  0.2841101862235931  1.0000
  C   C41       1.0  0.9647675833834767  0.5915108822065491  0.2807923690022349  1.0000
  C   C42       1.0  0.38377160347941697  0.3480538405851447  0.2760772933992754  1.0000
  C   C43       1.0  0.6956352621568699  0.945263946864259  0.1578065720482016  1.0000
  C   C44       1.0  0.011204386460072048  0.7283153888620572  0.15692407558823618  1.0000
  C   C45       1.0  0.2206570429022604  0.25543032637779817  0.15836308450823816  1.0000
  C   C46       1.0  0.7106297769959866  0.8585141022788036  0.1343265657535255  1.0000
  C   C47       1.0  0.09485967235727336  0.8322805777511633  0.1327497589963968  1.0000
  C   C48       1.0  0.1102156177131448  0.2321180197125088  0.1392460649572982  1.0000
  C   C49       1.0  0.6112783571690698  0.7218994546867776  0.3615488299997551  1.0000
  C   C50       1.0  0.2742399634758853  0.8568501415748527  0.3516030984903082  1.0000
  C   C51       1.0  0.12866952957853775  0.3874902360950044  0.3615695616873467  1.0000
  C   C52       1.0  0.6321739663700608  0.7290147354986231  0.3117493647866425  1.0000
  C   C53       1.0  0.2568612925111751  0.8731736855609924  0.3031666542152891  1.0000
  C   C54       1.0  0.10001090342920797  0.3476273312095444  0.3142980457968036  1.0000
  C   C55       1.0  0.6444163998302698  0.8301841273763485  0.2860182255524606  1.0000
  C   C56       1.0  0.14986524915794758  0.7840775488613615  0.280450410960583  1.0000
  C   C57       1.0  0.1860491307331955  0.3325439030867372  0.2863095168163881  1.0000
  C   C58       1.0  0.637090922286589  0.6371997549770612  0.2853844820431419  1.0000
  C   C59       1.0  0.3427287312046303  0.975012921109965  0.2759334965952078  1.0000
  C   C60       1.0  0.9895401072881567  0.3255451928167048  0.2928202402721496  1.0000
  C   C61       1.0  0.6554083069751755  0.6451042939320145  0.2364908774812449  1.0000
  C   C62       1.0  0.3244040747652405  0.9895963493283019  0.2285470963718765  1.0000
  C   C63       1.0  0.9650661064482193  0.291961766144155  0.2457943485313407  1.0000
  C   C64       1.0  0.6689776232522887  0.7457007108216301  0.2096067898389151  1.0000
  C   C65       1.0  0.21921836186823623  0.9018257939314578  0.20434625180968882  1.0000
  C   C66       1.0  0.05013030137323683  0.27843398843128153  0.2162009533532299  1.0000
  C   C67       1.0  0.5431822429753123  0.8598962203706505  0.740506558405329  1.0000
  C   C68       1.0  0.1478256659692931  0.7101109841671517  0.7345888959128574  1.0000
  C   C69       1.0  0.3056693886516512  0.429358022181212  0.7455510011936823  1.0000
  C   C70       1.0  0.660238022838371  0.8372559723924909  0.23466325126503312  1.0000
  C   C71       1.0  0.1325052511244068  0.7976269789529342  0.23037764996818313  1.0000
  C   C72       1.0  0.16180477363443657  0.3001006224188103  0.2367171635019716  1.0000
  C   C73       1.0  0.6947505768688487  0.7582903152573692  0.15976791963933581  1.0000
  C   C74       1.0  0.1990486578566859  0.9171391727852695  0.1558543155296022  1.0000
  C   C75       1.0  0.02608406213352048  0.2445696256308381  0.1676480377174556  1.0000
  C   C76       1.0  0.6117731015524653  0.8142062089374208  0.3880249368435216  1.0000
  C   C77       1.0  0.1892206987004741  0.7600525447760235  0.37933420042498506  1.0000
  C   C78       1.0  0.23556218936445109  0.40790201003257215  0.38343567386291966  1.0000
  C   C79       1.0  0.7646373201914967  0.9388534283788773  0.7237204170189598  1.0000
  C   C80       1.0  0.04235314269852352  0.8259952206475134  0.7184116345516854  1.0000
  C   C81       1.0  0.1441475473351446  0.2206089275905185  0.7266307444979532  1.0000
  C   C82       1.0  0.7837919663286428  0.9500028630743742  0.7791208319022971  1.0000
  C   C83       1.0  0.02344254673659663  0.8332354184750629  0.7734293594331234  1.0000
  C   C84       1.0  0.1279227953465352  0.19815359204812924  0.7819422964095181  1.0000
  C   C85       1.0  0.7207414159802281  0.8682699916828083  0.9009614081591408  1.0000
  C   C86       1.0  0.0882679198965307  0.8392490977228281  0.896603907242536  1.0000
  C   C87       1.0  0.09995888657152108  0.25661653435160764  0.9022850992565736  1.0000
  C   C88       1.0  0.635633044581006  0.8367056528245911  0.7128378933266433  1.0000
  C   C89       1.0  0.1599437273466292  0.8220069258608474  0.7090091894193266  1.0000
  C   C90       1.0  0.19097851181010128  0.3533979196130517  0.7155270588604595  1.0000
  C   C91       1.0  0.5610067663369306  0.8597830200724773  0.7958497022601065  1.0000
  C   C92       1.0  0.12303869296023606  0.7118837383921388  0.7893584574798567  1.0000
  C   C93       1.0  0.2742839622098287  0.41126653110283223  0.8003063354488019  1.0000
  C   C94       1.0  0.673433181759634  0.8483338626421709  0.8064724996900523  1.0000
  C   C95       1.0  0.12427557219992003  0.827992751099735  0.8020948417248093  1.0000
  C   C96       1.0  0.14235046527294057  0.3095366136683921  0.8082318326988229  1.0000
  C   C97       1.0  0.7259559343217391  0.05883851016477592  0.4350461647636976  1.0000
  C   C98       1.0  0.8670889240445588  0.5037881559021855  0.3809979441000664  1.0000
  C   C99       1.0  0.4785005850802688  0.3288914437274356  0.37283258532238506  1.0000
  Br  Br1       1.0  0.6497306041560478  0.1463791883386634  0.2007739993836779  1.0000
  Br  Br2       1.0  0.8170736501844972  0.4758559462122422  0.20147761783045584  1.0000
  Br  Br3       1.0  0.4847525684184504  0.3205465812525148  0.1888845715500409  1.0000
  N   N1        1.0  0.6753600410399442  0.0269623858988624  0.38692833507496266  1.0000
  N   N2        1.0  0.9959026878823493  0.5797943484442173  0.3865281674435934  1.0000
  N   N3        1.0  0.42033099029482196  0.3991025422720114  0.38027417134810554  1.0000
  O   O1        1.0  0.17036117229269368  0.4595739005115931  0.554818322917221  1.0000
  O   O2        1.0  0.5298843509315246  0.6973850272505687  0.5517678865728826  1.0000
  O   O3        1.0  0.2971232493621229  0.8415124592700992  0.542339058962753  1.0000
  O   O4        1.0  0.14986352639324713  0.9655391534782183  0.9612501740213304  1.0000
  O   O5        1.0  0.9874266928941322  0.1913786632105428  0.9745312509266455  1.0000
  O   O6        1.0  0.7844853504328668  0.8098925862091804  0.9687029499565156  1.0000
  O   O7        1.0  0.1459636479612172  0.6526854077479172  0.5581747964482275  1.0000
  O   O8        1.0  0.3594657527529889  0.48327583563937543  0.5524748858791284  1.0000
  O   O9        1.0  0.5015805679963847  0.8565250411609285  0.5516353897479007  1.0000
  O   O10       1.0  0.1712009585801155  0.4693601845846232  0.4519400570788932  1.0000
  O   O11       1.0  0.5395937866011166  0.6854772151957532  0.456657666279753  1.0000
  O   O12       1.0  0.3212428791289099  0.8387930210945456  0.44613544793161003  1.0000
  O   O13       1.0  0.14869241187411572  0.6652438403826225  0.4564984326218351  1.0000
  O   O14       1.0  0.3529333955058007  0.4809070665023684  0.45572788953150933  1.0000
  O   O15       1.0  0.5205992081355221  0.848657901079463  0.4566976191510719  1.0000
  O   O16       1.0  0.3221791652094053  0.6550560796192996  0.5034230849302119  1.0000
  O   O17       1.0  0.14862025110286234  0.9571877901524815  0.0642019766552835  1.0000
  O   O18       1.0  0.9805451216371212  0.16775123974756667  0.0712733760139912  1.0000
  O   O19       1.0  0.7816166998743057  0.8045624430214747  0.0646817359114138  1.0000
  O   O20       1.0  0.15750180362448424  0.167656824025137  0.0670377967787559  1.0000
  O   O21       1.0  0.7812849114871553  0.9779346626055556  0.0629971470901793  1.0000
  O   O22       1.0  0.9690207768450706  0.7857477541991004  0.0639540934454814  1.0000
  O   O23       1.0  0.9879546679973357  0.9893586772449435  0.0161830838355286  1.0000
  O   O24       1.0  0.15378828770475653  0.17271500440342186  0.9631686449618043  1.0000
  O   O25       1.0  0.7981578765587826  0.9909066234254099  0.9672494966376063  1.0000
  O   O26       1.0  0.9717184083358745  0.7909674317462462  0.9673315329570683  1.0000
  O   O27       1.0  0.9928162647360208  0.4670243063953379  0.5009523328958778  1.0000
  O   O28       1.0  0.3197238732298899  0.1464667543401035  0.0148806137636939  1.0000
