data_image0
_chemical_formula_structural       Ga12H84C48
_chemical_formula_sum              "Ga12 H84 C48"
_cell_length_a       10.260041030808239
_cell_length_b       10.260059475228118
_cell_length_c       15.760404646110976
_cell_angle_alpha    76.87433005133892
_cell_angle_beta     76.87460213902098
_cell_angle_gamma    61.580062865476044

_space_group_name_H-M_alt    "P 1"
_space_group_IT_number       1

loop_
  _space_group_symop_operation_xyz
  'x, y, z'

loop_
  _atom_site_type_symbol
  _atom_site_label
  _atom_site_symmetry_multiplicity
  _atom_site_fract_x
  _atom_site_fract_y
  _atom_site_fract_z
  _atom_site_occupancy
  Ga  Ga1       1.0  0.9682149831493946  0.6862454099252632  0.6764125439172305  1.0000
  Ga  Ga2       1.0  0.3137540757767638  0.0317868779501396  0.8235880337176625  1.0000
  Ga  Ga3       1.0  0.03178725705473793  0.3137548399446999  0.3235886560246399  1.0000
  Ga  Ga4       1.0  0.6862446815772358  0.9682122486353036  0.17641255706724485  1.0000
  Ga  Ga5       1.0  0.880279463166744  0.632681038765078  0.8498274213571335  1.0000
  Ga  Ga6       1.0  0.3673187171633002  0.11971963735403074  0.6501721882715757  1.0000
  Ga  Ga7       1.0  0.1197197944366977  0.3673192154068586  0.15017230169269172  1.0000
  Ga  Ga8       1.0  0.6326800265682099  0.8802817258983848  0.3498287185534323  1.0000
  Ga  Ga9       1.0  0.7198211040798982  0.23701451047774202  0.8520033232288995  1.0000
  Ga  Ga10      1.0  0.7629854327596348  0.280178510587703  0.6479946637596045  1.0000
  Ga  Ga11      1.0  0.28017966159569596  0.7629846331797197  0.14799570834308182  1.0000
  Ga  Ga12      1.0  0.23701533291596624  0.7198206330697657  0.352004367812377  1.0000
  H   H1        1.0  0.625921542241599  0.8075101136653299  0.7116404901948529  1.0000
  H   H2        1.0  0.19248476690666644  0.374082158358391  0.7883584628708463  1.0000
  H   H3        1.0  0.3740817257063895  0.19248791804366758  0.288358342196645  1.0000
  H   H4        1.0  0.8075109942241525  0.6259192091959919  0.21164096706210236  1.0000
  H   H5        1.0  0.4693250896162979  0.252441436458696  0.7685665488769191  1.0000
  H   H6        1.0  0.7475578697981362  0.5306743577360962  0.7314304875787203  1.0000
  H   H7        1.0  0.5306766752398104  0.7475577107497741  0.23143233904050933  1.0000
  H   H8        1.0  0.2524399169386982  0.46932254358636516  0.26856802296492793  1.0000
  H   H9        1.0  0.9234603099935728  0.9263159988258917  0.793504382279707  1.0000
  H   H10       1.0  0.07368300318086089  0.07653989825465148  0.7064935014615444  1.0000
  H   H11       1.0  0.0765424490627709  0.07368314694859629  0.2064949979350743  1.0000
  H   H12       1.0  0.9263162517858703  0.9234558526733563  0.29350940521952407  1.0000
  H   H13       1.0  0.23456974853345972  0.6524593958658755  0.6121435664467683  1.0000
  H   H14       1.0  0.3475383441932606  0.7654339417375766  0.8878590369105552  1.0000
  H   H15       1.0  0.7654334945131113  0.34753861091813576  0.3878584457042679  1.0000
  H   H16       1.0  0.6524604231213117  0.23456519481786128  0.11214028197053955  1.0000
  H   H17       1.0  0.22265670664506126  0.6054409365865183  0.7283241339504017  1.0000
  H   H18       1.0  0.3945530425358683  0.7773435020265678  0.7716795639304763  1.0000
  H   H19       1.0  0.7773440464332635  0.39455369385702  0.27167935315664243  1.0000
  H   H20       1.0  0.6054452208673453  0.2226567535793507  0.22831966682199584  1.0000
  H   H21       1.0  0.14491478504455552  0.795682419527445  0.6806410982586115  1.0000
  H   H22       1.0  0.20431155988023877  0.8550898875205489  0.8193634290588535  1.0000
  H   H23       1.0  0.8550884517033807  0.20431333064961169  0.3193631416599558  1.0000
  H   H24       1.0  0.7956856993621741  0.14491035954936393  0.1806365813000781  1.0000
  H   H25       1.0  0.8880608506343391  0.7829926799809996  0.5228693181091942  1.0000
  H   H26       1.0  0.21700880818338666  0.11194210199203516  0.9771305293962699  1.0000
  H   H27       1.0  0.11194187487837584  0.21700868252045777  0.47713292195331297  1.0000
  H   H28       1.0  0.782989950488968  0.8880592762153796  0.022868469573019495  1.0000
  H   H29       1.0  0.7853680556192728  0.6857534528668195  0.5862976351301086  1.0000
  H   H30       1.0  0.3142489672667069  0.21463390325517645  0.9137015778601238  1.0000
  H   H31       1.0  0.21463368067349356  0.314247916053631  0.41370347668313917  1.0000
  H   H32       1.0  0.6857507955664489  0.7853674834882439  0.08629664150269892  1.0000
  H   H33       1.0  0.9754007231870221  0.5835019298064026  0.5410807952409301  1.0000
  H   H34       1.0  0.4165003364104294  0.024599997200610294  0.9589197257394774  1.0000
  H   H35       1.0  0.02460051417466503  0.416500563149519  0.45891959249178177  1.0000
  H   H36       1.0  0.583498916212726  0.9754002519863217  0.041080633262247  1.0000
  H   H37       1.0  0.9857497649761554  0.7005663703922592  0.9567165187892996  1.0000
  H   H38       1.0  0.2994311247007602  0.014249318952991499  0.543283478060765  1.0000
  H   H39       1.0  0.014248497108702931  0.29943163359170194  0.04328430377879041  1.0000
  H   H40       1.0  0.7005671200996701  0.985753168334902  0.4567167046837072  1.0000
  H   H41       1.0  0.11300087225290423  0.670301563022363  0.8573728620791458  1.0000
  H   H42       1.0  0.32969878324901475  0.8869975221801877  0.6426273624378355  1.0000
  H   H43       1.0  0.8869983753899717  0.32969868117957896  0.14262813287448498  1.0000
  H   H44       1.0  0.6703004693741406  0.11300272700675147  0.3573729965638961  1.0000
  H   H45       1.0  0.10626336093717008  0.5156227732367923  0.9329053931280099  1.0000
  H   H46       1.0  0.48437579522963836  0.8937376751282712  0.567094947539495  1.0000
  H   H47       1.0  0.8937358966662645  0.4843774809351443  0.06709432992180808  1.0000
  H   H48       1.0  0.5156224445905053  0.10626480717462529  0.43290587115688345  1.0000
  H   H49       1.0  0.7080426743655721  0.5449153978137602  0.9648550622282956  1.0000
  H   H50       1.0  0.45508317679931304  0.2919598901252201  0.5351459869640962  1.0000
  H   H51       1.0  0.2919515614086592  0.45509156355902985  0.035144419358871914  1.0000
  H   H52       1.0  0.5449155569716312  0.7080414631572011  0.4648561917647243  1.0000
  H   H53       1.0  0.6129523164970365  0.6559254641917744  0.873197626966956  1.0000
  H   H54       1.0  0.3440760439171555  0.3870451010668461  0.6268034051135629  1.0000
  H   H55       1.0  0.3870459346020284  0.34407927970308083  0.1268003280099848  1.0000
  H   H56       1.0  0.6559247018373143  0.6129540226506264  0.37319817026605046  1.0000
  H   H57       1.0  0.6342060712413229  0.7436560405952334  0.9511236981687149  1.0000
  H   H58       1.0  0.2563438822214152  0.3657963414179832  0.5488773721261708  1.0000
  H   H59       1.0  0.365791675946376  0.2563498223501027  0.04887416867959622  1.0000
  H   H60       1.0  0.7436558457497568  0.6342050104304491  0.4511252989000027  1.0000
  H   H61       1.0  0.5290287631382923  0.4640099206995457  0.9296731966363441  1.0000
  H   H62       1.0  0.5359876959505244  0.4709714173336436  0.5703256341481548  1.0000
  H   H63       1.0  0.4709764882298728  0.5359881031564838  0.07032725630176632  1.0000
  H   H64       1.0  0.4640145777972364  0.5290266158093502  0.42967270594599677  1.0000
  H   H65       1.0  0.4368644412954268  0.4009047131534729  0.8778109915930444  1.0000
  H   H66       1.0  0.5990968468506426  0.5631320575095982  0.6221871200592163  1.0000
  H   H67       1.0  0.5631377939284192  0.5990955317314925  0.12219084430073227  1.0000
  H   H68       1.0  0.4009054368576771  0.4368659856033829  0.3778099481311159  1.0000
  H   H69       1.0  0.5233163737108982  0.5124219114034287  0.8146473639459019  1.0000
  H   H70       1.0  0.4875829147897903  0.47667858642321886  0.6853510940960916  1.0000
  H   H71       1.0  0.4766838644702745  0.4875805780014843  0.1853531674413631  1.0000
  H   H72       1.0  0.5124193639382497  0.523319451704772  0.31464661004614664  1.0000
  H   H73       1.0  0.9328425690541804  0.21672909743056576  0.9211531422206747  1.0000
  H   H74       1.0  0.7832730095316194  0.06715380316574482  0.5788466467058201  1.0000
  H   H75       1.0  0.06715468022766659  0.7832711396693525  0.07884814004206933  1.0000
  H   H76       1.0  0.2167287553244893  0.9328453440427249  0.42115224121160827  1.0000
  H   H77       1.0  0.9678987064560476  0.034725364632237195  0.907056787725743  1.0000
  H   H78       1.0  0.9652773216223807  0.03209791573744519  0.5929438689171889  1.0000
  H   H79       1.0  0.032101045098187474  0.965273760519224  0.09294429535651724  1.0000
  H   H80       1.0  0.03472343907293401  0.9679012229350262  0.40705579860670593  1.0000
  H   H81       1.0  0.8344150753520625  0.12433236917218687  0.9948897012384137  1.0000
  H   H82       1.0  0.8756721129767084  0.1655794184861321  0.5051087376889571  1.0000
  H   H83       1.0  0.16558318307086484  0.8756678814487344  0.0051101654659647  1.0000
  H   H84       1.0  0.12433065970213172  0.8344174906213835  0.4948903264857308  1.0000
  C   C1        1.0  0.791503441415607  0.8476710621243414  0.750595942851291  1.0000
  C   C2        1.0  0.15232715382066428  0.20849759632916687  0.7494031172609966  1.0000
  C   C3        1.0  0.20849832710243288  0.1523258384471616  0.24940390092984896  1.0000
  C   C4        1.0  0.8476741121043647  0.7915026749147812  0.25059504657589576  1.0000
  C   C5        1.0  0.6465678590587343  0.8905103783498731  0.7318287717925501  1.0000
  C   C6        1.0  0.10948714282870511  0.35343687403288715  0.7681695539350886  1.0000
  C   C7        1.0  0.3534333982240908  0.1094921345460449  0.26816907213253677  1.0000
  C   C8        1.0  0.8905086133218276  0.6465644885364978  0.2318305119497737  1.0000
  C   C9        1.0  0.5280812076736581  0.03479939698144109  0.7370204812604726  1.0000
  C   C10       1.0  0.9652003082251286  0.4719173645356774  0.7629770716396393  1.0000
  C   C11       1.0  0.4719200682119437  0.9652008842325013  0.2629764106726  1.0000
  C   C12       1.0  0.03479695101727746  0.5280828825342354  0.2370229387192921  1.0000
  C   C13       1.0  0.5590117535156125  0.13886142915043106  0.7639681150004664  1.0000
  C   C14       1.0  0.8611310194458568  0.440995919977034  0.736031593114113  1.0000
  C   C15       1.0  0.44098850326833616  0.861138828572514  0.23603146439479167  1.0000
  C   C16       1.0  0.1388642414355274  0.5590043199908621  0.26396870455393173  1.0000
  C   C17       1.0  0.6984573211953348  0.10320449971960238  0.7860093530709095  1.0000
  C   C18       1.0  0.8967954113474264  0.30153960347489317  0.7139885717330616  1.0000
  C   C19       1.0  0.3015459480710092  0.8967957836113668  0.21398788750496323  1.0000
  C   C20       1.0  0.1032038672023674  0.6984539207561368  0.2860127470040936  1.0000
  C   C21       1.0  0.8131203229758626  0.956616779611096  0.7776496630441373  1.0000
  C   C22       1.0  0.043382728013284605  0.18688458637560496  0.722349150259987  1.0000
  C   C23       1.0  0.18687893594592708  0.04338572618280519  0.22234846819005583  1.0000
  C   C24       1.0  0.9566170371634469  0.8131123021088837  0.27765161678217254  1.0000
  C   C25       1.0  0.16259306443393484  0.6836860034860377  0.6745087296434065  1.0000
  C   C26       1.0  0.316310051459496  0.8374085183252473  0.825496153273818  1.0000
  C   C27       1.0  0.8374081653107551  0.3163119812409646  0.32549547767246173  1.0000
  C   C28       1.0  0.6836872077829098  0.16259172874466535  0.17450385708511362  1.0000
  C   C29       1.0  0.8956508196571064  0.6845254967580556  0.5709957976185863  1.0000
  C   C30       1.0  0.3154765288034866  0.10435111724229527  0.9290036558793207  1.0000
  C   C31       1.0  0.10435091663565996  0.315475872162395  0.42900531419466154  1.0000
  C   C32       1.0  0.6845222348491548  0.8956502659501097  0.0709947071380626  1.0000
  C   C33       1.0  0.037931173437655834  0.6305551181176765  0.9036356133493444  1.0000
  C   C34       1.0  0.36944367895258534  0.9620684003754432  0.596363972341166  1.0000
  C   C35       1.0  0.9620685880771446  0.3694440170037793  0.0963641978291037  1.0000
  C   C36       1.0  0.6305550697592109  0.0379329678619769  0.40363629853193583  1.0000
  C   C37       1.0  0.6883249238652238  0.645485140867187  0.9162561759592054  1.0000
  C   C38       1.0  0.35451481117934946  0.3116772670049103  0.5837451688839295  1.0000
  C   C39       1.0  0.3116698145020179  0.3545184498331579  0.0837449855722099  1.0000
  C   C40       1.0  0.6454864162217646  0.6883252159810168  0.4162564907525947  1.0000
  C   C41       1.0  0.5340854728797098  0.42296647479626864  0.8700356651916155  1.0000
  C   C42       1.0  0.577035187023746  0.465913750924841  0.629962163359842  1.0000
  C   C43       1.0  0.4659182704162959  0.5770326595742289  0.1299654792243317  1.0000
  C   C44       1.0  0.42296708306208325  0.53408652885512  0.37003522087058377  1.0000
  C   C45       1.0  0.8808326665678052  0.14287716533236508  0.9258431273967461  1.0000
  C   C46       1.0  0.8571270871478945  0.11916083694643473  0.574156166036552  1.0000
  C   C47       1.0  0.11916558189455634  0.8571230753185616  0.07415801121144484  1.0000
  C   C48       1.0  0.14287569051123247  0.8808360771460783  0.4258422621862223  1.0000
