data_image0
_chemical_formula_structural       Ag4H26C30N6O12
_chemical_formula_sum              "Ag4 H26 C30 N6 O12"
_cell_length_a       7.2149204698435785
_cell_length_b       7.945556334730808
_cell_length_c       14.12252919706898
_cell_angle_alpha    76.01672328005972
_cell_angle_beta     83.5463935938265
_cell_angle_gamma    86.52026513380974

_space_group_name_H-M_alt    "P 1"
_space_group_IT_number       1

loop_
  _space_group_symop_operation_xyz
  'x, y, z'

loop_
  _atom_site_type_symbol
  _atom_site_label
  _atom_site_symmetry_multiplicity
  _atom_site_fract_x
  _atom_site_fract_y
  _atom_site_fract_z
  _atom_site_occupancy
  Ag  Ag1       1.0  0.34017916625983696  0.2792964475921735  0.34323786968031555  1.0000
  Ag  Ag2       1.0  0.6598226033314346  0.7207046361787377  0.656762722690942  1.0000
  Ag  Ag3       1.0  0.7713526466376521  0.45459315848214027  0.5457831647825486  1.0000
  Ag  Ag4       1.0  0.2286449329224283  0.5454079185543395  0.45421625729557746  1.0000
  H   H1        1.0  0.9921327666163576  0.1394314644256696  0.47269625754488936  1.0000
  H   H2        1.0  0.007868960500353189  0.8605709165429758  0.5273062852816891  1.0000
  H   H3        1.0  0.643064803341261  0.14079249426962556  0.47171307102298937  1.0000
  H   H4        1.0  0.35693691228197366  0.8592098874793949  0.5282866400096324  1.0000
  H   H5        1.0  0.9879467204034144  0.6658831424859672  0.15819989300933202  1.0000
  H   H6        1.0  0.012050907377954402  0.334116636962591  0.8417989945104478  1.0000
  H   H7        1.0  0.17229358125091918  0.5912408737760444  0.23112535172803214  1.0000
  H   H8        1.0  0.8277068360534158  0.40875891042225726  0.7688733720558574  1.0000
  H   H9        1.0  0.7347295823366267  0.618040303025559  0.12610870619916886  1.0000
  H   H10       1.0  0.26527243410785667  0.3819542924155428  0.8738906292773476  1.0000
  H   H11       1.0  0.6260143093682943  0.4224603016961835  0.1288616626051322  1.0000
  H   H12       1.0  0.3739876106335983  0.5775368889207683  0.8711387419880765  1.0000
  H   H13       1.0  0.5202175958045315  0.5658006331883813  0.20037129308970242  1.0000
  H   H14       1.0  0.47978426448259626  0.43419785579686726  0.7996268142678956  1.0000
  H   H15       1.0  0.0733849601419223  0.4313567190229861  0.0651298710873647  1.0000
  H   H16       1.0  0.9266139602116041  0.5686456583664778  0.9348685877841729  1.0000
  H   H17       1.0  0.26904756729972945  0.5603288609323016  0.061612383467533505  1.0000
  H   H18       1.0  0.7309513559271678  0.4396735162620686  0.9383867833524986  1.0000
  H   H19       1.0  0.25295210602151025  0.3521540301161821  0.1421858279641341  1.0000
  H   H20       1.0  0.7470483595041343  0.6478444564941981  0.8578123612614091  1.0000
  H   H21       1.0  0.9423629749280945  0.8925741498037141  0.8943670274757806  1.0000
  H   H22       1.0  0.05763604761475701  0.10742563201971932  0.10563177817605407  1.0000
  H   H23       1.0  0.24149837837591548  0.8484538090941457  0.9732354685855782  1.0000
  H   H24       1.0  0.7584993969427103  0.151542077395554  0.0267625232076654  1.0000
  H   H25       1.0  0.9379140736719053  0.0666681530230946  0.7224385127884643  1.0000
  H   H26       1.0  0.06208475311240138  0.933336819347126  0.2775617231482528  1.0000
  C   C1        1.0  0.7521592952712126  0.41560325137446336  0.2593751107467455  1.0000
  C   C2        1.0  0.24784401661879224  0.5843939418124505  0.7406245040300233  1.0000
  C   C3        1.0  0.9226491669918103  0.22013495638292108  0.4122652647682158  1.0000
  C   C4        1.0  0.07735265369412757  0.7798648296049749  0.5877355009931903  1.0000
  C   C5        1.0  0.7300026502738035  0.2202243337995426  0.4115580362105503  1.0000
  C   C6        1.0  0.270000613394906  0.7797741569753001  0.5884421131245573  1.0000
  C   C7        1.0  0.9462749279626905  0.42514500525910387  0.2642311479942236  1.0000
  C   C8        1.0  0.053728284611359776  0.5748547832987542  0.7357688279507428  1.0000
  C   C9        1.0  0.06945787290195682  0.5491788612257549  0.1903811776736433  1.0000
  C   C10       1.0  0.9305411525142729  0.4508209204025846  0.8096183359266786  1.0000
  C   C11       1.0  0.6542012082301909  0.5120733171171777  0.1736787077829121  1.0000
  C   C12       1.0  0.34580076286636807  0.4879225757167518  0.8263218702004379  1.0000
  C   C13       1.0  0.1712447024269608  0.4689369105549233  0.10991941178147607  1.0000
  C   C14       1.0  0.8287543229892618  0.5310628710734163  0.8900801018188459  1.0000
  C   C15       1.0  0.0714690129869666  0.9420154879052305  0.8523533497242255  1.0000
  C   C16       1.0  0.9285300663972933  0.05798299574500021  0.1476470452147325  1.0000
  C   C17       1.0  0.5800725613712813  0.14372361705995468  0.6815544979358562  1.0000
  C   C18       1.0  0.4199249728408602  0.8562787573693598  0.31844616664909603  1.0000
  C   C19       1.0  0.4030987697166069  0.07808191568783229  0.7435932342057539  1.0000
  C   C20       1.0  0.5969015540185153  0.9219204634912188  0.2564072666433077  1.0000
  C   C21       1.0  0.23275426133834293  0.1088802185921907  0.7017519842340222  1.0000
  C   C22       1.0  0.7672432275258743  0.8911234532299587  0.29824992285777085  1.0000
  C   C23       1.0  0.23675544566833648  0.9148068765853521  0.8964439528033451  1.0000
  C   C24       1.0  0.7632422332076984  0.0851916050801904  0.1035551081065904  1.0000
  C   C25       1.0  0.39902851001528455  0.9852133131735812  0.841591826087125  1.0000
  C   C26       1.0  0.6009705182743089  0.0147864682596648  0.15840839546169153  1.0000
  C   C27       1.0  0.0686068577896108  0.041566056337884995  0.7561312813921786  1.0000
  C   C28       1.0  0.9313919689946886  0.9584389160323353  0.24386895454453852  1.0000
  C   C29       1.0  0.2320504350861938  0.21565153177497356  0.5977073995181071  1.0000
  C   C30       1.0  0.7679484456661427  0.7843521426171307  0.40229371775724587  1.0000
  N   N1        1.0  0.029723358243785497  0.3201669177966337  0.3387713555119518  1.0000
  N   N2        1.0  0.9702798572036357  0.6798328705661304  0.6612293283815018  1.0000
  N   N3        1.0  0.6468348555338963  0.3131895839402503  0.3339299603596401  1.0000
  N   N4        1.0  0.3531684592294794  0.6868076090515699  0.6660703623656161  1.0000
  N   N5        1.0  0.5661317637455596  0.9712398312839667  0.8920791120772404  1.0000
  N   N6        1.0  0.4338659662251416  0.0287573525985607  0.10792012222282919  1.0000
  O   O1        1.0  0.1283000455597971  0.3553926106275186  0.5863378324036218  1.0000
  O   O2        1.0  0.8717002270806516  0.6446110663345549  0.41366249505529146  1.0000
  O   O3        1.0  0.333090013677193  0.16322694111594427  0.53158416875862  1.0000
  O   O4        1.0  0.666908969264476  0.8367741377101368  0.468417295297023  1.0000
  O   O5        1.0  0.6764146558959111  0.0920536316384073  0.8656794846030919  1.0000
  O   O6        1.0  0.32358591756578636  0.9079422590157548  0.13432046729971603  1.0000
  O   O7        1.0  0.5885539272335407  0.8415048579128521  0.9604602360334126  1.0000
  O   O8        1.0  0.41144245619697273  0.1584910260068852  0.03953854557626359  1.0000
  O   O9        1.0  0.5860918268941118  0.3092263980502494  0.6593171833608764  1.0000
  O   O10       1.0  0.41390709920614904  0.690775978949027  0.34068269140764335  1.0000
  O   O11       1.0  0.6987388677360328  0.03754497667900131  0.6550402937217824  1.0000
  O   O12       1.0  0.30126011807899994  0.9624561019519788  0.34496187828234776  1.0000
