data_image0
_chemical_formula_structural       Zr6H30C62O58
_chemical_formula_sum              "Zr6 H30 C62 O58"
_cell_length_a       14.765397269192794
_cell_length_b       14.74058602487717
_cell_length_c       14.722557718237919
_cell_angle_alpha    60.40711346769376
_cell_angle_beta     59.93853425313155
_cell_angle_gamma    60.22596532792307

_space_group_name_H-M_alt    "P 1"
_space_group_IT_number       1

loop_
  _space_group_symop_operation_xyz
  'x, y, z'

loop_
  _atom_site_type_symbol
  _atom_site_label
  _atom_site_symmetry_multiplicity
  _atom_site_fract_x
  _atom_site_fract_y
  _atom_site_fract_z
  _atom_site_occupancy
  Zr  Zr1       1.0  0.8712768293268169  0.8844093100918045  0.6220799552379148  1.0000
  Zr  Zr2       1.0  0.11599295508002425  0.11887500083880553  0.3891028889702  1.0000
  Zr  Zr3       1.0  0.10939004176781707  0.8813788153796978  0.6277296426327156  1.0000
  Zr  Zr4       1.0  0.8767785941035771  0.12201870694622834  0.38431988758853214  1.0000
  Zr  Zr5       1.0  0.11567961028730199  0.8819141871046837  0.38522058601115106  1.0000
  Zr  Zr6       1.0  0.8725693338151927  0.12238513869391458  0.6266584134778554  1.0000
  H   H1        1.0  0.0867628002181247  0.7186337568414559  0.5969828188519415  1.0000
  H   H2        1.0  0.09583491050576501  0.09138021589741642  0.2224996150120973  1.0000
  H   H3        1.0  0.08542888205093387  0.09207942653129209  0.6065862739988431  1.0000
  H   H4        1.0  0.7112011394953583  0.10035736281317746  0.5943343022996004  1.0000
  H   H5        1.0  0.15523010210952048  0.5614366116010102  0.4156782969099951  1.0000
  H   H6        1.0  0.817287150402784  0.4747578318112175  0.5472071661946529  1.0000
  H   H7        1.0  0.5982723254258245  0.12669569514828555  0.9292125656992453  1.0000
  H   H8        1.0  0.3881458517824398  0.8759574553703329  0.08214371661953372  1.0000
  H   H9        1.0  0.8171297906550024  0.03388846562721433  0.17569575392523257  1.0000
  H   H10       1.0  0.1557217540900525  0.9268469404736376  0.8669916122377187  1.0000
  H   H11       1.0  0.5975018577948888  0.4283845582503643  0.3476869679791079  1.0000
  H   H12       1.0  0.4115041020750423  0.5987265041333102  0.6425103479851372  1.0000
  H   H13       1.0  0.5929932377922853  0.8595616717336723  0.6386680604571918  1.0000
  H   H14       1.0  0.3984308572916007  0.13659918605387128  0.36999721499051935  1.0000
  H   H15       1.0  0.20523202718614914  0.3523244665438127  0.5554423348015476  1.0000
  H   H16       1.0  0.6866910406872864  0.5879677621500077  0.6298161095690772  1.0000
  H   H17       1.0  0.42185941168925484  0.2688628476223655  0.0062624526691195245  1.0000
  H   H18       1.0  0.4002542133989523  0.959470290871586  0.8694285591693857  1.0000
  H   H19       1.0  0.6900248045523868  0.12923320534807906  0.1054003941335679  1.0000
  H   H20       1.0  0.1899800623014087  0.07630392507751782  0.9151190425582881  1.0000
  H   H21       1.0  0.34893375522062803  0.49728576467290253  0.3940300575901431  1.0000
  H   H22       1.0  0.5108062780160837  0.31954223727624503  0.7505336537547649  1.0000
  H   H23       1.0  0.4321529820774614  0.8353629079906782  0.7882699021006727  1.0000
  H   H24       1.0  0.4463618520293694  0.275634021153607  0.38749118685643685  1.0000
  H   H25       1.0  0.07023403755871975  0.40737998684178217  0.20867400010006779  1.0000
  H   H26       1.0  0.053341811545053276  0.7179013238621507  0.9094515315456632  1.0000
  H   H27       1.0  0.9783326743693834  0.20889115564442307  0.13191665632238872  1.0000
  H   H28       1.0  0.020568263913830324  0.1517485814907786  0.9386672268540934  1.0000
  H   H29       1.0  0.06721445941884945  0.29740930043514174  0.7085165512036155  1.0000
  H   H30       1.0  0.9815050272210828  0.6205572234771  0.6893745388028377  1.0000
  C   C1        1.0  0.9801351837592733  0.7141296092469885  0.4875972182826018  1.0000
  C   C2        1.0  0.30304136365413853  0.9993333212347363  0.207650343389261  1.0000
  C   C3        1.0  0.9960266233591855  0.30823776011900594  0.5003581250001331  1.0000
  C   C4        1.0  0.6860791364200337  0.00427986073228223  0.8055702279167107  1.0000
  C   C5        1.0  0.9942678247475387  0.6925704634630208  0.8049114704782739  1.0000
  C   C6        1.0  0.6912580934471961  0.007357757291657888  0.49600227414796894  1.0000
  C   C7        1.0  0.0015579189071246037  0.3048737718266352  0.1934433366219394  1.0000
  C   C8        1.0  0.29734755443104904  0.9919077542131942  0.5139833537887596  1.0000
  C   C9        1.0  0.3001709920097964  0.7009199874879781  0.5020967777888642  1.0000
  C   C10       1.0  0.9774363666283679  0.9916363429745089  0.8232635504129885  1.0000
  C   C11       1.0  0.6993508135342524  0.31585260300410306  0.4970780513816493  1.0000
  C   C12       1.0  0.9970573935015711  0.9908608475892531  0.2064650944403112  1.0000
  C   C13       1.0  0.9946311914661977  0.41563835693170864  0.48848052519710433  1.0000
  C   C14       1.0  0.978527456474595  0.6185163167357713  0.4777558713738869  1.0000
  C   C15       1.0  0.09152981496992396  0.44054320962737137  0.44733150793911847  1.0000
  C   C16       1.0  0.8813602838675937  0.5973874905055894  0.5108394319829658  1.0000
  C   C17       1.0  0.08149778552727589  0.5415455601910749  0.44393706056393256  1.0000
  C   C18       1.0  0.8909290736695329  0.4949972532662838  0.5188514461895368  1.0000
  C   C19       1.0  0.40373382939153424  0.999425285322317  0.10573918752649543  1.0000
  C   C20       1.0  0.5833462140031357  0.0034770384349515153  0.9055153768329163  1.0000
  C   C21       1.0  0.4622246787512765  0.07171118244274768  0.06307260632371478  1.0000
  C   C22       1.0  0.5238280648575466  0.9320433316921422  0.9477263490645669  1.0000
  C   C23       1.0  0.5498569690042885  0.07383143599025754  0.9626832175073687  1.0000
  C   C24       1.0  0.4348158280055258  0.9309048685997535  0.04786911599531847  1.0000
  C   C25       1.0  0.9777880855590126  0.9818383642345976  0.9295186178676998  1.0000
  C   C26       1.0  0.9943889743774007  0.9828985930102757  0.11072109218756744  1.0000
  C   C27       1.0  0.8812315801302831  0.009368238936645021  0.018053403530558416  1.0000
  C   C28       1.0  0.0911908245306706  0.9497415222393852  0.025098336887289432  1.0000
  C   C29       1.0  0.8905655470643978  0.011206065205577436  0.10670792585105451  1.0000
  C   C30       1.0  0.08148897522806946  0.9499429379905207  0.9352127514340367  1.0000
  C   C31       1.0  0.40592422658750854  0.6043780946940202  0.496855131669804  1.0000
  C   C32       1.0  0.5991736241683013  0.4179853586806744  0.4973572332485928  1.0000
  C   C33       1.0  0.45924986910135596  0.558305782688258  0.41131778471307706  1.0000
  C   C34       1.0  0.5472072827646246  0.4658726514761825  0.5814067112442131  1.0000
  C   C35       1.0  0.5551387167056492  0.4656379312793247  0.41278598493571644  1.0000
  C   C36       1.0  0.4513692275281473  0.5587624870193861  0.5800020277677119  1.0000
  C   C37       1.0  0.0146779666221305  0.5834742571506194  0.8928227827077393  1.0000
  C   C38       1.0  0.021879568030683836  0.48498808507738295  0.8881098398125573  1.0000
  C   C39       1.0  0.03244313861882382  0.5786542919073482  0.9801901235090825  1.0000
  C   C40       1.0  0.04266499443525607  0.47690026851499573  0.7862590462387473  1.0000
  C   C41       1.0  0.05952584765650934  0.3774779538853536  0.7820339180992874  1.0000
  C   C42       1.0  0.0196101712838797  0.39182102527515633  0.08343867699389307  1.0000
  C   C43       1.0  0.03772473335329364  0.48053314468794617  0.07566741858020253  1.0000
  C   C44       1.0  0.020438229361602105  0.38904171490490563  0.9864427662831899  1.0000
  C   C45       1.0  0.03526522489922702  0.2902258839709262  0.9784527119457067  1.0000
  C   C46       1.0  0.053824096603562986  0.28592761228457414  0.8786506629550104  1.0000
  C   C47       1.0  0.4008351177582269  0.9897863741115954  0.5117880975665655  1.0000
  C   C48       1.0  0.5914210332513363  0.004623929822017344  0.49612127019746316  1.0000
  C   C49       1.0  0.4564030672680844  0.9088039087521693  0.5885178184264604  1.0000
  C   C50       1.0  0.5380306859830668  0.08283786854634909  0.417641657821882  1.0000
  C   C51       1.0  0.5489211371710994  0.9199172555395735  0.5803551179109546  1.0000
  C   C52       1.0  0.44169964023912206  0.07597195621150388  0.428972440202358  1.0000
  C   C53       1.0  0.20929688017317025  0.36472445180687163  0.414736814558168  1.0000
  C   C54       1.0  0.7727617188655532  0.6899194658509769  0.5201206705293087  1.0000
  C   C55       1.0  0.44607276547615266  0.13383443529672692  0.12879558898630714  1.0000
  C   C56       1.0  0.5449369667272638  0.8598099259327298  0.8890873465661925  1.0000
  C   C57       1.0  0.7719766636938702  0.023371669233249372  0.022102245916691732  1.0000
  C   C58       1.0  0.20736772425430436  0.9228788683568464  0.0157474907681418  1.0000
  C   C59       1.0  0.4218823201427002  0.6062467558778691  0.31351671503118433  1.0000
  C   C60       1.0  0.5881328904515826  0.4234501718432925  0.6753899414824999  1.0000
  C   C61       1.0  0.42921369822153116  0.8051892549776054  0.6733843029458271  1.0000
  C   C62       1.0  0.5777179417215451  0.17373800835409978  0.31802378735844866  1.0000
  O   O1        1.0  0.9082089573917003  0.7441910612035941  0.5727697267614075  1.0000
  O   O2        1.0  0.2580289385749169  0.08127908381921864  0.24266123606304998  1.0000
  O   O3        1.0  0.07687495725962634  0.2617727622017014  0.4294155133888964  1.0000
  O   O4        1.0  0.7289948984437514  0.9270412350499267  0.765183247841371  1.0000
  O   O5        1.0  0.05949465372964372  0.7446313875780319  0.7733266648384857  1.0000
  O   O6        1.0  0.727924385728713  0.08730129443127052  0.42258783258426996  1.0000
  O   O7        1.0  0.9250377224199938  0.26396563478322577  0.2298246043706768  1.0000
  O   O8        1.0  0.2501922421539648  0.9223396545017761  0.5954976816757024  1.0000
  O   O9        1.0  0.25874458291753655  0.7360563997587589  0.4277564802596245  1.0000
  O   O10       1.0  0.9073274498580516  0.07564893485150755  0.7796811499050592  1.0000
  O   O11       1.0  0.7343866039478257  0.2741133644108872  0.5777828038303312  1.0000
  O   O12       1.0  0.08100599009483762  0.9241766869420115  0.23694257208867936  1.0000
  O   O13       1.0  0.055643615038100364  0.9170747335787934  0.7809781976832751  1.0000
  O   O14       1.0  0.7400025271903062  0.2770353136318561  0.4191558593315107  1.0000
  O   O15       1.0  0.9157754200986616  0.06417458465181616  0.24904107366711517  1.0000
  O   O16       1.0  0.2584414203192369  0.7392174145475108  0.5805327519078033  1.0000
  O   O17       1.0  0.9150744716887192  0.7314512122291673  0.769238760681347  1.0000
  O   O18       1.0  0.2607216000138735  0.06638047163487225  0.43494908671998184  1.0000
  O   O19       1.0  0.06044419542854478  0.2770615002804746  0.2497850743659598  1.0000
  O   O20       1.0  0.7311793372315949  0.931027075992041  0.5721150780781273  1.0000
  O   O21       1.0  0.7240325187287837  0.08222042559713583  0.7674485077736364  1.0000
  O   O22       1.0  0.05993008223897089  0.750588469810189  0.41612591681910527  1.0000
  O   O23       1.0  0.26580169536261883  0.9204537400457367  0.24971676323271894  1.0000
  O   O24       1.0  0.9176314111224074  0.2719150999143948  0.5786263744739985  1.0000
  O   O25       1.0  0.7915092730830225  0.07447362034543664  0.5686236987124006  1.0000
  O   O26       1.0  0.05725274891457123  0.0677743578509649  0.5785363777132561  1.0000
  O   O27       1.0  0.06379743911410428  0.0696737038454245  0.30303844960109677  1.0000
  O   O28       1.0  0.058679319987803416  0.7992522231595768  0.5717035481985064  1.0000
  O   O29       1.0  0.14289185489094097  0.9510855726951699  0.4582443870833187  1.0000
  O   O30       1.0  0.9447090398954431  0.9542627590150518  0.4540990074006927  1.0000
  O   O31       1.0  0.9457143245450368  0.15072223980369165  0.45658232120643316  1.0000
  O   O32       1.0  0.9398257428888288  0.9538497151984585  0.6540213725892271  1.0000
  O   O33       1.0  0.2610280666233677  0.3308445243373654  0.48846255385289794  1.0000
  O   O34       1.0  0.2618461990453085  0.33964012255967896  0.3312513351252662  1.0000
  O   O35       1.0  0.6786021612339752  0.667127578611975  0.5930535634148483  1.0000
  O   O36       1.0  0.7695023729311572  0.7844902163193621  0.4591275823024716  1.0000
  O   O37       1.0  0.424620637195254  0.24487849229431194  0.07992313838615668  1.0000
  O   O38       1.0  0.45829427752256185  0.08731016358812135  0.21857453943557914  1.0000
  O   O39       1.0  0.4681847186562821  0.9045925465728003  0.8374845853986201  1.0000
  O   O40       1.0  0.6167195586649898  0.7719045755556875  0.8855135297411536  1.0000
  O   O41       1.0  0.6807194249644227  0.09909438691591538  0.0649045138538753  1.0000
  O   O42       1.0  0.7657923268125162  0.9664545400199456  0.9884486107367676  1.0000
  O   O43       1.0  0.24764322768394456  0.01034872809093198  0.9442412743985429  1.0000
  O   O44       1.0  0.26685053096428424  0.8341095738327409  0.05656521524873883  1.0000
  O   O45       1.0  0.35915816810555184  0.556476340052441  0.3225770145907986  1.0000
  O   O46       1.0  0.4515172289224127  0.6775865506536148  0.22906245223602897  1.0000
  O   O47       1.0  0.5478291898297841  0.34529949260721765  0.7681171636577845  1.0000
  O   O48       1.0  0.6443370075040348  0.4609015027095181  0.6770013771123615  1.0000
  O   O49       1.0  0.4118830420291676  0.7859055261553252  0.7797468713102375  1.0000
  O   O50       1.0  0.42686181877986956  0.7388947965995313  0.6489463808228207  1.0000
  O   O51       1.0  0.5148495786023163  0.2771949467403373  0.3228468126877858  1.0000
  O   O52       1.0  0.6563926298629709  0.15976900868259492  0.23416330877402206  1.0000
  O   O53       1.0  0.055377124340097394  0.48356181482331095  0.1549903356338262  1.0000
  O   O54       1.0  0.042466866359433246  0.6620909655298134  0.984509134239744  1.0000
  O   O55       1.0  0.03832048142821526  0.19192410794099854  0.06366196304637839  1.0000
  O   O56       1.0  0.06993681646604703  0.18868407850931132  0.8697263828569818  1.0000
  O   O57       1.0  0.07993762110559287  0.3662467405302152  0.6850413367556172  1.0000
  O   O58       1.0  0.05473307626061094  0.5629394110627713  0.6868362538879677  1.0000
