data_image0
_chemical_formula_structural       Bi4H28C28S4Br12
_chemical_formula_sum              "Bi4 H28 C28 S4 Br12"
_cell_length_a       6.875192306141866
_cell_length_b       9.223769288641897
_cell_length_c       18.450365791388926
_cell_angle_alpha    92.87146374177595
_cell_angle_beta     90.0002316229009
_cell_angle_gamma    89.99927838831056

_space_group_name_H-M_alt    "P 1"
_space_group_IT_number       1

loop_
  _space_group_symop_operation_xyz
  'x, y, z'

loop_
  _atom_site_type_symbol
  _atom_site_label
  _atom_site_symmetry_multiplicity
  _atom_site_fract_x
  _atom_site_fract_y
  _atom_site_fract_z
  _atom_site_occupancy
  Bi  Bi1       1.0  0.7485473838887486  0.0752140453009886  0.5601255330479589  1.0000
  Bi  Bi2       1.0  0.7514434021219429  0.07518771081655017  0.06013134209980821  1.0000
  Bi  Bi3       1.0  0.25144206448546663  0.9248154525508098  0.43988172140697673  1.0000
  Bi  Bi4       1.0  0.24856204603538853  0.9248135863355385  0.9398739828032563  1.0000
  H   H1        1.0  0.7876190081549339  0.4512615342140265  0.48431378254685603  1.0000
  H   H2        1.0  0.7123715595040068  0.4512533247829822  0.9843139299035711  1.0000
  H   H3        1.0  0.21235589530336085  0.5487453729157821  0.5156824961731701  1.0000
  H   H4        1.0  0.2876309796611166  0.548742641679496  0.015686356980388907  1.0000
  H   H5        1.0  0.9991208288993291  0.3428218583159577  0.4663576366145179  1.0000
  H   H6        1.0  0.5008655760881167  0.3428231689476959  0.9663582947681846  1.0000
  H   H7        1.0  0.0008613470893835  0.6571860805660847  0.5336413831511707  1.0000
  H   H8        1.0  0.4991355085602932  0.6571749469801417  0.0336431406029405  1.0000
  H   H9        1.0  0.5073895145046378  0.3790806590275507  0.5902073103153853  1.0000
  H   H10       1.0  0.9926080411857253  0.37906740342057793  0.0902095363920381  1.0000
  H   H11       1.0  0.4925897524651217  0.6209273120757075  0.40979008435063957  1.0000
  H   H12       1.0  0.007413406550220698  0.6209264242327779  0.9097890603161293  1.0000
  H   H13       1.0  0.27862533595942546  0.5504166782647388  0.651475898675102  1.0000
  H   H14       1.0  0.2213819453159047  0.5504059653497109  0.1514745427812656  1.0000
  H   H15       1.0  0.7213713850533734  0.44959661272569923  0.34852707571821645  1.0000
  H   H16       1.0  0.7786293208564742  0.4495921827395294  0.8485252674981965  1.0000
  H   H17       1.0  0.4024562130129538  0.7549305512705828  0.7325888276308207  1.0000
  H   H18       1.0  0.09754411367596558  0.7549285358971713  0.2325891731715402  1.0000
  H   H19       1.0  0.5975521441319598  0.2450708210200219  0.2674127053789519  1.0000
  H   H20       1.0  0.9024526074791975  0.2450663451265598  0.767411081164127  1.0000
  H   H21       1.0  0.7577421837179228  0.7801286953346106  0.7547370836870969  1.0000
  H   H22       1.0  0.7422590795185897  0.7801188234201959  0.2547384943754523  1.0000
  H   H23       1.0  0.24225744637358554  0.2198738161410461  0.2452617733655984  1.0000
  H   H24       1.0  0.25774055073723895  0.21986520293695827  0.74526143451466  1.0000
  H   H25       1.0  0.98917539746445  0.6071759099483671  0.6943766903679817  1.0000
  H   H26       1.0  0.5108354220166686  0.6071670242194928  0.1943799522212473  1.0000
  H   H27       1.0  0.0108271416510917  0.3928223348044924  0.30561824461248943  1.0000
  H   H28       1.0  0.4891743898181104  0.39281157476450085  0.8056198139514238  1.0000
  C   C1        1.0  0.9381939654683008  0.4319145486622986  0.5011083174407744  1.0000
  C   C2        1.0  0.5617958657068269  0.4319139560791001  0.001108110105434399  1.0000
  C   C3        1.0  0.061782392522395896  0.5680901553222881  0.49888952128856096  1.0000
  C   C4        1.0  0.4382052188925839  0.5680885446539463  0.9988912886474424  1.0000
  C   C5        1.0  0.7634588077747181  0.48400224658301744  0.6371095773565258  1.0000
  C   C6        1.0  0.7365462050076417  0.4840001110301629  0.13710687527326834  1.0000
  C   C7        1.0  0.2365306407868317  0.5160013074606056  0.3628914790318519  1.0000
  C   C8        1.0  0.2634577887018494  0.5159915028283847  0.8628938231319412  1.0000
  C   C9        1.0  0.5630906737777082  0.46729057680751407  0.6257961346955625  1.0000
  C   C10       1.0  0.9369144981796538  0.4672746703429738  0.1257933197143331  1.0000
  C   C11       1.0  0.4369075017885606  0.5327172761136652  0.37420721867427187  1.0000
  C   C12       1.0  0.06309095003057759  0.5327137944726629  0.8742018640646166  1.0000
  C   C13       1.0  0.43427182178567847  0.5644207637947147  0.6604386855909326  1.0000
  C   C14       1.0  0.06573532033704771  0.5644168574273108  0.1604394688282085  1.0000
  C   C15       1.0  0.565721990225505  0.4355872287140345  0.3395576256853944  1.0000
  C   C16       1.0  0.934270127816255  0.4355812906885106  0.8395603414477009  1.0000
  C   C17       1.0  0.5035186286112534  0.6776162972189751  0.7064544342644439  1.0000
  C   C18       1.0  0.9964823931894244  0.677600899712502  0.20645334979291624  1.0000
  C   C19       1.0  0.49648972847928247  0.3223926411210201  0.293548951656355  1.0000
  C   C20       1.0  0.0035143279776903994  0.3223918318525136  0.7935457560546909  1.0000
  C   C21       1.0  0.7028249958322376  0.6923770663440222  0.7186573787175662  1.0000
  C   C22       1.0  0.7971846372827898  0.6923720984598561  0.2186601027090163  1.0000
  C   C23       1.0  0.29718481576188077  0.3076276589596744  0.2813393766336389  1.0000
  C   C24       1.0  0.20281062943482195  0.3076162268346535  0.7813421231545378  1.0000
  C   C25       1.0  0.8336525177835625  0.5955912593535402  0.6843389848915324  1.0000
  C   C26       1.0  0.6663511147817258  0.595577760642513  0.1843390891488852  1.0000
  C   C27       1.0  0.16634856685289628  0.4044090060330134  0.3156635989676531  1.0000
  C   C28       1.0  0.3336470609753092  0.40440519099192324  0.8156602654963054  1.0000
  S   S1        1.0  0.934787151979769  0.36466995836793364  0.5928038368453415  1.0000
  S   S2        1.0  0.5652048615905014  0.36467031275182654  0.0928090832163022  1.0000
  S   S3        1.0  0.06519211506572728  0.6353282650193038  0.4071921815194913  1.0000
  S   S4        1.0  0.43480204111342863  0.6353234612881167  0.9071922219794503  1.0000
  Br  Br1       1.0  0.6010277928259098  0.08750219288145898  0.6938250984566707  1.0000
  Br  Br2       1.0  0.8989875574659434  0.08748766479278199  0.19382497811748325  1.0000
  Br  Br3       1.0  0.3989543831796638  0.912509905350383  0.306183260375974  1.0000
  Br  Br4       1.0  0.10103243575926507  0.9125072375965786  0.8061741928338224  1.0000
  Br  Br5       1.0  0.591585362335813  0.7965716777459376  0.518399221329183  1.0000
  Br  Br6       1.0  0.9083998721752236  0.796571206775198  0.018397910505392204  1.0000
  Br  Br7       1.0  0.4084128133241194  0.20342320327115002  0.48160103300737234  1.0000
  Br  Br8       1.0  0.09162448458221208  0.20342047140615452  0.9815995377165053  1.0000
  Br  Br9       1.0  0.9079137992884794  0.059173606514512804  0.39988831544344094  1.0000
  Br  Br10      1.0  0.5920898070427895  0.05919463238542019  0.8998934954187519  1.0000
  Br  Br11      1.0  0.0920887395396619  0.9408519788550503  0.600097140868762  1.0000
  Br  Br12      1.0  0.4079418221896275  0.9408130271354268  0.100119608558856  1.0000
