data_image0
_chemical_formula_structural       Ag2H28C28N18O6
_chemical_formula_sum              "Ag2 H28 C28 N18 O6"
_cell_length_a       7.76102628328191
_cell_length_b       8.684475611385503
_cell_length_c       13.172980319448826
_cell_angle_alpha    73.54695149352632
_cell_angle_beta     77.2299914507748
_cell_angle_gamma    83.02175619531808

_space_group_name_H-M_alt    "P 1"
_space_group_IT_number       1

loop_
  _space_group_symop_operation_xyz
  'x, y, z'

loop_
  _atom_site_type_symbol
  _atom_site_label
  _atom_site_symmetry_multiplicity
  _atom_site_fract_x
  _atom_site_fract_y
  _atom_site_fract_z
  _atom_site_occupancy
  Ag  Ag1       1.0  0.11679687190063245  0.7482656265848533  0.23675615051757137  1.0000
  Ag  Ag2       1.0  0.883199217288123  0.25173756341231973  0.7632454906500923  1.0000
  H   H1        1.0  0.10553438854077508  0.0808466421418998  0.8876019907454303  1.0000
  H   H2        1.0  0.8944669823260797  0.9191565329299249  0.11239819711796165  1.0000
  H   H3        1.0  0.12112237765051503  0.4221970726835166  0.5811762022278087  1.0000
  H   H4        1.0  0.8788753921367417  0.5778001415483017  0.4188217554265418  1.0000
  H   H5        1.0  0.323932302364163  0.2490113395398622  0.8941299143640007  1.0000
  H   H6        1.0  0.6760702356975371  0.7509942359223629  0.10586968040296077  1.0000
  H   H7        1.0  0.5124850582133007  0.26486742913072453  0.044696623915591295  1.0000
  H   H8        1.0  0.4875194142828717  0.7351285242463419  0.9553037165878915  1.0000
  H   H9        1.0  0.3927194733881265  0.014939883421661195  0.22203564390905228  1.0000
  H   H10       1.0  0.6072863117139561  0.9850560792919866  0.7779630034004507  1.0000
  H   H11       1.0  0.19705200073460113  0.8888177499063517  0.7821184092915555  1.0000
  H   H12       1.0  0.8029455509360519  0.1111830509061988  0.2178811985091115  1.0000
  H   H13       1.0  0.23781439607627422  0.5537337678819796  0.8285672538445678  1.0000
  H   H14       1.0  0.7621818429884682  0.4462670235939896  0.1714340471500718  1.0000
  H   H15       1.0  0.1738340886874781  0.4595920313406694  0.050844498268411094  1.0000
  H   H16       1.0  0.8261672866442921  0.5404111362637636  0.9491564495194988  1.0000
  H   H17       1.0  0.2710907256985919  0.6114240330411888  0.628926042023046  1.0000
  H   H18       1.0  0.7288964080269266  0.3885744065682387  0.3710753722886152  1.0000
  H   H19       1.0  0.2942952666515169  0.9435632849562978  0.5596448797641639  1.0000
  H   H20       1.0  0.7056959133166529  0.05643392739689548  0.44035698431294873  1.0000
  H   H21       1.0  0.13865484679583062  0.032008064866587894  0.3812563262835836  1.0000
  H   H22       1.0  0.8613454933573976  0.9679903336957734  0.6187418347296613  1.0000
  H   H23       1.0  0.34027375961613154  0.22836048797859126  0.5193598273934227  1.0000
  H   H24       1.0  0.6597213077888425  0.7716379105743483  0.48064130677313677  1.0000
  H   H25       1.0  0.4880976878917096  0.1686299072802129  0.323045843429817  1.0000
  H   H26       1.0  0.5119050816813555  0.8313720591991327  0.6769543809643889  1.0000
  H   H27       1.0  0.33794033696838  0.41412238110071087  0.17752864666561405  1.0000
  H   H28       1.0  0.662070284648756  0.5858807547838224  0.8224703277832144  1.0000
  C   C1        1.0  0.09670826812079271  0.9964574960905491  0.9681849760369158  1.0000
  C   C2        1.0  0.9032878893085652  0.0035445058470955  0.03181535515745539  1.0000
  C   C3        1.0  0.09907701981035902  0.4983350133339569  0.502383746113068  1.0000
  C   C4        1.0  0.9009193646654482  0.5016633870881861  0.4976164547840296  1.0000
  C   C5        1.0  0.32331324468047035  0.17457948921520478  0.9756303286844668  1.0000
  C   C6        1.0  0.6766895975981272  0.8254212817372275  0.02436934566097189  1.0000
  C   C7        1.0  0.41405399251896563  0.18122798307290816  0.05345168274426728  1.0000
  C   C8        1.0  0.585947609859254  0.8187715830160227  0.9465491347463765  1.0000
  C   C9        1.0  0.3530658764990235  0.0551816849775122  0.14418072863646358  1.0000
  C   C10       1.0  0.6469370429500289  0.9448178829806224  0.8558191555847184  1.0000
  C   C11       1.0  0.186226624129695  0.7959251733910122  0.8578950296296451  1.0000
  C   C12       1.0  0.8137760638079855  0.20407800355001626  0.14210422496429226  1.0000
  C   C13       1.0  0.20772249418836708  0.629697584714684  0.8837556252267047  1.0000
  C   C14       1.0  0.7922776278482573  0.3703044004284095  0.11624418593285663  1.0000
  C   C15       1.0  0.17487379989455581  0.5806146998150081  0.9978732568511003  1.0000
  C   C16       1.0  0.8251263221420686  0.419387285328085  0.002126554308461006  1.0000
  C   C17       1.0  0.22868057880864973  0.7013662994990069  0.5616507739368186  1.0000
  C   C18       1.0  0.7713173542493548  0.2986284938094457  0.4383491233180689  1.0000
  C   C19       1.0  0.2395512750956925  0.8664059836272029  0.5245933155223026  1.0000
  C   C20       1.0  0.7604383607551951  0.13359482837229558  0.4754096121215452  1.0000
  C   C21       1.0  0.15910775525286877  0.9127249732147433  0.43342914102526425  1.0000
  C   C22       1.0  0.8408860588569596  0.08727224287685688  0.5665708565129319  1.0000
  C   C23       1.0  0.3219845684725087  0.2934208216869152  0.4386212437176978  1.0000
  C   C24       1.0  0.6780157850754875  0.7065775544732843  0.5613791970691078  1.0000
  C   C25       1.0  0.394209618919902  0.26607964329680556  0.3388988756251121  1.0000
  C   C26       1.0  0.6057917474820229  0.7339235392424044  0.6611005523137546  1.0000
  C   C27       1.0  0.31647232001644443  0.3895962489582486  0.26461131963043266  1.0000
  C   C28       1.0  0.6835305267270754  0.6104045145267988  0.7353891146395167  1.0000
  N   N1        1.0  0.21573759414967947  0.049765496818345405  0.02039071828883009  1.0000
  N   N2        1.0  0.7842625278869519  0.9502364883247553  0.9796090928707311  1.0000
  N   N3        1.0  0.2317394884955064  0.9763099454945702  0.12418781397861517  1.0000
  N   N4        1.0  0.7682619550768807  0.0236920340503417  0.8758118238360024  1.0000
  N   N5        1.0  0.14498897927356322  0.837039352304586  0.9535600967133528  1.0000
  N   N6        1.0  0.8550111472279909  0.16296262537112233  0.04644047437072625  1.0000
  N   N7        1.0  0.134913955353575  0.7064118460659188  0.04038232690411544  1.0000
  N   N8        1.0  0.8650874926837345  0.2935901260116083  0.9596180708350269  1.0000
  N   N9        1.0  0.14547276111839122  0.6578299461452063  0.4940437919878205  1.0000
  N   N10       1.0  0.8545263346695435  0.34216725502103873  0.5059547522461042  1.0000
  N   N11       1.0  0.10079712721899634  0.7861275404356998  0.41516009829204126  1.0000
  N   N12       1.0  0.8992019685689386  0.21386966073054475  0.5848384459418836  1.0000
  N   N13       1.0  0.20871976316448124  0.4264361753882469  0.4209805682132596  1.0000
  N   N14       1.0  0.7912804315776827  0.5735646142279336  0.579018692897527  1.0000
  N   N15       1.0  0.20264948702726576  0.4861660708429055  0.3146167362049396  1.0000
  N   N16       1.0  0.7973519520801988  0.5138359161693912  0.6853821416851599  1.0000
  N   N17       1.0  0.6519717624291133  0.7538430088658218  0.29351580750015654  1.0000
  N   N18       1.0  0.3480310753845615  0.24615776955398866  0.7064831069207569  1.0000
  O   O1        1.0  0.7940681952175054  0.6732456492343388  0.25996957938735915  1.0000
  O   O2        1.0  0.20593646931390455  0.3267672226059232  0.7400192903409957  1.0000
  O   O3        1.0  0.6655430609833604  0.8901677461460126  0.30812199904128307  1.0000
  O   O4        1.0  0.3344545812525083  0.10983182927008527  0.6918800984086884  1.0000
  O   O5        1.0  0.5048457557885087  0.696606629928695  0.31008807026965696  1.0000
  O   O6        1.0  0.4951616180800756  0.3033856584647977  0.6899171127183192  1.0000
