data_image0
_chemical_formula_structural       Cu2H32C40N12O8
_chemical_formula_sum              "Cu2 H32 C40 N12 O8"
_cell_length_a       7.9504283019108035
_cell_length_b       11.404147262633348
_cell_length_c       11.404215011799359
_cell_angle_alpha    87.41543901413202
_cell_angle_beta     70.6636549722358
_cell_angle_gamma    70.6663067331159

_space_group_name_H-M_alt    "P 1"
_space_group_IT_number       1

loop_
  _space_group_symop_operation_xyz
  'x, y, z'

loop_
  _atom_site_type_symbol
  _atom_site_label
  _atom_site_symmetry_multiplicity
  _atom_site_fract_x
  _atom_site_fract_y
  _atom_site_fract_z
  _atom_site_occupancy
  Cu  Cu1       1.0  0.4423740043988859  0.8882430231148887  0.14884987670623673  1.0000
  Cu  Cu2       1.0  0.9423773794289687  0.14884558368094503  0.8882484560804758  1.0000
  H   H1        1.0  0.4823912548836304  0.346720088896987  0.34287000511807986  1.0000
  H   H2        1.0  0.9823934178054544  0.3428741338504723  0.34672463434909423  1.0000
  H   H3        1.0  0.6877121841173804  0.26312061349457855  0.22132604961946373  1.0000
  H   H4        1.0  0.18771411424030765  0.22133344616110412  0.263119109359792  1.0000
  H   H5        1.0  0.6821549388692035  0.24941972992309044  0.38001398358017735  1.0000
  H   H6        1.0  0.18215629078630977  0.3800236042033091  0.24942165588645795  1.0000
  H   H7        1.0  0.32206806777067243  0.3180188843282181  0.5449460718810712  1.0000
  H   H8        1.0  0.8220779520710764  0.5449454654168521  0.31802303600705545  1.0000
  H   H9        1.0  0.3017952602013878  0.3641666967896242  0.7585991027470486  1.0000
  H   H10       1.0  0.8017983467446967  0.7586011701926128  0.36416580431865975  1.0000
  H   H11       1.0  0.4177236679742933  0.1899142537307839  0.8863492837672811  1.0000
  H   H12       1.0  0.9177221271844122  0.8863536479831564  0.1899056571527566  1.0000
  H   H13       1.0  0.5327219197732163  0.9716243075944676  0.8013882695206649  1.0000
  H   H14       1.0  0.03273570185763241  0.8013916004703386  0.9716158657378031  1.0000
  H   H15       1.0  0.5579825903571133  0.9248035389244437  0.5828032805977301  1.0000
  H   H16       1.0  0.05800025511964437  0.5828082211382792  0.9247896133011865  1.0000
  H   H17       1.0  0.6023692140259271  0.3875928015487915  0.9269978757246025  1.0000
  H   H18       1.0  0.10235899199864912  0.9270008379317219  0.38759690840787203  1.0000
  H   H19       1.0  0.36802439393846936  0.44438517002470956  0.9240116100234845  1.0000
  H   H20       1.0  0.8680084469187578  0.9240023288074183  0.4444045840384163  1.0000
  H   H21       1.0  0.41249500250685867  0.43383464678510103  0.06921797775400054  1.0000
  H   H22       1.0  0.9124785156594868  0.0692158582037976  0.4338451622596225  1.0000
  H   H23       1.0  0.6231057223042882  0.4353244843983289  0.7400759083085405  1.0000
  H   H24       1.0  0.12310987109679424  0.7400794331536957  0.4353163022213098  1.0000
  H   H25       1.0  0.6220891669225851  0.4002636204371227  0.5308392404592298  1.0000
  H   H26       1.0  0.12209227916800817  0.5308361105055894  0.40026649254231483  1.0000
  H   H27       1.0  0.49607915158441085  0.5806222221583112  0.4131455558141113  1.0000
  H   H28       1.0  0.996078179352324  0.4131431822060775  0.5806381280790022  1.0000
  H   H29       1.0  0.3869388707554153  0.7958440880942206  0.5068457916770016  1.0000
  H   H30       1.0  0.8869416289027754  0.5068501598714477  0.7958582921214942  1.0000
  H   H31       1.0  0.36572201093866846  0.8309673824691542  0.7272867273276307  1.0000
  H   H32       1.0  0.8657256106446668  0.7272894709301312  0.8309673916686722  1.0000
  C   C1        1.0  0.5794781414078116  0.08889134394193832  0.08641700300356094  1.0000
  C   C2        1.0  0.07948718030213799  0.08641585025485911  0.08888291009671433  1.0000
  C   C3        1.0  0.5316437714468095  0.08189608958450378  0.22372849058061922  1.0000
  C   C4        1.0  0.031647629366133946  0.22372270452540016  0.08189579824628619  1.0000
  C   C5        1.0  0.5359385771345161  0.1499097182856417  0.32000019813578723  1.0000
  C   C6        1.0  0.035947380303277  0.3200000964998608  0.1499070582768525  1.0000
  C   C7        1.0  0.600591302153532  0.25803320545435326  0.3170465302664241  1.0000
  C   C8        1.0  0.10059407860207159  0.31705420502822795  0.2580330525817658  1.0000
  C   C9        1.0  0.44667721452240283  0.1187540036362833  0.5504690059415865  1.0000
  C   C10       1.0  0.9466963342573607  0.5504665937588128  0.11874682332261706  1.0000
  C   C11       1.0  0.3727760140007348  0.24222039949221846  0.599438057703651  1.0000
  C   C12       1.0  0.8727907428401522  0.5994361444180641  0.24221421919241254  1.0000
  C   C13       1.0  0.36042402593341905  0.2675025447386048  0.7210602617632205  1.0000
  C   C14       1.0  0.8604284800678957  0.7210630300382519  0.26749847040598945  1.0000
  C   C15       1.0  0.4210928149403018  0.1707150520004745  0.7927482856621283  1.0000
  C   C16       1.0  0.9210935423429801  0.792752318634861  0.17070994554553223  1.0000
  C   C17       1.0  0.4891885739738769  0.04706672093089279  0.744095372527184  1.0000
  C   C18       1.0  0.9891857298675433  0.7440968514871784  0.04706047165713306  1.0000
  C   C19       1.0  0.5025544031220548  0.020515382939365202  0.6225281283748743  1.0000
  C   C20       1.0  0.0025687361717814847  0.6225290615195647  0.020506816474814088  1.0000
  C   C21       1.0  0.42214925562225164  0.6488469287132616  0.20092155179308693  1.0000
  C   C22       1.0  0.922152289948407  0.20092811719266723  0.6488500523272196  1.0000
  C   C23       1.0  0.45375197580089127  0.6601320888359224  0.06631124893197438  1.0000
  C   C24       1.0  0.9537609176388742  0.06631287504631442  0.6601349770691914  1.0000
  C   C25       1.0  0.4657059530582899  0.5845994272417416  0.9700454344981966  1.0000
  C   C26       1.0  0.9657124542120813  0.970045083761235  0.5846035472244325  1.0000
  C   C27       1.0  0.46116181755447627  0.45578212113517946  0.9719398506804428  1.0000
  C   C28       1.0  0.961153967702245  0.9719386737447664  0.45579202480354314  1.0000
  C   C29       1.0  0.48647266753184243  0.6355434598635269  0.7478006049648942  1.0000
  C   C30       1.0  0.9864744360109088  0.7478047253478761  0.63554302873618  1.0000
  C   C31       1.0  0.5605528199509209  0.5141784844796149  0.6931132107487132  1.0000
  C   C32       1.0  0.060551716145518214  0.6931179231850279  0.5141739101032954  1.0000
  C   C33       1.0  0.5633928699328693  0.4953176535233368  0.5724321398537102  1.0000
  C   C34       1.0  0.06339025977685954  0.5724331184636285  0.49531743777385645  1.0000
  C   C35       1.0  0.49899299467882946  0.5957212606562124  0.5059942075149666  1.0000
  C   C36       1.0  0.9989922205565593  0.5059944936678278  0.5957253463859546  1.0000
  C   C37       1.0  0.43317317084586915  0.7171426398692446  0.560058530624609  1.0000
  C   C38       1.0  0.9331672445346373  0.5600629796607705  0.7171462430827873  1.0000
  C   C39       1.0  0.4230826154511504  0.7376746956166543  0.6818635285866393  1.0000
  C   C40       1.0  0.9230805844522292  0.6818678189135455  0.7376771122642938  1.0000
  N   N1        1.0  0.463008139201449  0.9897620533905706  0.2748331756343206  1.0000
  N   N2        1.0  0.9630147498221293  0.2748281821370852  0.9897636367780436  1.0000
  N   N3        1.0  0.4232445128521365  0.9935859144397339  0.3955443333206788  1.0000
  N   N4        1.0  0.923256057561822  0.3955395021336798  0.9935849665801871  1.0000
  N   N5        1.0  0.4675609869623615  0.09168958565490472  0.4241769170747177  1.0000
  N   N6        1.0  0.9675712795598274  0.4241739982956786  0.09168650255249847  1.0000
  N   N7        1.0  0.46287928890081526  0.771036758257445  0.02094379532208285  1.0000
  N   N8        1.0  0.9628818208177635  0.0209427795673278  0.7710422388376661  1.0000
  N   N9        1.0  0.4790120082999819  0.7726281035262873  0.903451402995863  1.0000
  N   N10       1.0  0.9790149470545868  0.9034493784217974  0.7726303033654461  1.0000
  N   N11       1.0  0.47931146816021214  0.6589309561561193  0.871365523999245  1.0000
  N   N12       1.0  0.979319249892704  0.8713654103638786  0.6589317183093115  1.0000
  O   O1        1.0  0.5513607336231346  0.0032791552364343974  0.03237348364199726  1.0000
  O   O2        1.0  0.051363034979282  0.0323717868585334  0.003280043389160901  1.0000
  O   O3        1.0  0.6379065350187362  0.17337997344820621  0.033143615038319835  1.0000
  O   O4        1.0  0.13792389314851763  0.0331390000763037  0.17337452226176006  1.0000
  O   O5        1.0  0.3965143768642676  0.7522761762638907  0.26008554032758724  1.0000
  O   O6        1.0  0.8965234501713727  0.2600859061560925  0.7522832490361254  1.0000
  O   O7        1.0  0.41945394155519733  0.5492340082156346  0.24962852150172676  1.0000
  O   O8        1.0  0.9194594932399698  0.2496280689807833  0.5492437645758201  1.0000
