data_image0
_chemical_formula_structural       Zr6H62C72N2O32
_chemical_formula_sum              "Zr6 H62 C72 N2 O32"
_cell_length_a       14.929837449645214
_cell_length_b       14.870276197711268
_cell_length_c       14.883282313762958
_cell_angle_alpha    60.035777002161836
_cell_angle_beta     59.5940597586071
_cell_angle_gamma    59.88856166196541

_space_group_name_H-M_alt    "P 1"
_space_group_IT_number       1

loop_
  _space_group_symop_operation_xyz
  'x, y, z'

loop_
  _atom_site_type_symbol
  _atom_site_label
  _atom_site_symmetry_multiplicity
  _atom_site_fract_x
  _atom_site_fract_y
  _atom_site_fract_z
  _atom_site_occupancy
  Zr  Zr1       1.0  0.8883515062890983  0.3768073228511214  0.6149527377768819  1.0000
  Zr  Zr2       1.0  0.11651834142829637  0.6233956918992405  0.3770034589608144  1.0000
  Zr  Zr3       1.0  0.12226784505013925  0.3856514945359919  0.6133160812108471  1.0000
  Zr  Zr4       1.0  0.8830096085862283  0.6163885916814849  0.37778500379187113  1.0000
  Zr  Zr5       1.0  0.8796025906544648  0.6158892704606416  0.6178692613770523  1.0000
  Zr  Zr6       1.0  0.12388337827650292  0.3808736783058109  0.3770397089074677  1.0000
  H   H1        1.0  0.9100094425346373  0.4060574990861169  0.7772099663537306  1.0000
  H   H2        1.0  0.900800368654821  0.7808031865134665  0.4051608848445342  1.0000
  H   H3        1.0  0.2830438381452044  0.41278856985218226  0.4021830212549702  1.0000
  H   H4        1.0  0.9158732929910659  0.40144927487845183  0.4008489621243926  1.0000
  H   H5        1.0  0.5797047279608947  0.7256545471477696  0.8842601179979042  1.0000
  H   H6        1.0  0.654370560857139  0.6231658167489939  0.9752146987049031  1.0000
  H   H7        1.0  0.4788929072888239  0.6382148123611203  0.13722664712558708  1.0000
  H   H8        1.0  0.4018201429766109  0.7371226424158764  0.04777285891276516  1.0000
  H   H9        1.0  0.24041412294979378  0.04489861888800559  0.31311937574914595  1.0000
  H   H10       1.0  0.14499740345151227  0.1260057073346346  0.24140345702524973  1.0000
  H   H11       1.0  0.13952153973093584  0.9567576040245456  0.25020514558053025  1.0000
  H   H12       1.0  0.22929256803089973  0.8732166499265617  0.3287029254288926  1.0000
  H   H13       1.0  0.5210019010112958  0.8500826381577723  0.3602224709535235  1.0000
  H   H14       1.0  0.6051052013181178  0.9353612781272247  0.2655008644264853  1.0000
  H   H15       1.0  0.4337734539950946  0.10301045768130729  0.26675815532199465  1.0000
  H   H16       1.0  0.3511059209493581  0.018012513428615803  0.3676369559452298  1.0000
  H   H17       1.0  0.9055781196113275  0.7649306943081271  0.001396301909935066  1.0000
  H   H18       1.0  0.7900245831452894  0.7184351058041685  0.08124109877615392  1.0000
  H   H19       1.0  0.7904487370650772  0.7243657321833294  0.9081889829292817  1.0000
  H   H20       1.0  0.9101349496532978  0.7645646177724358  0.830145681618788  1.0000
  H   H21       1.0  0.8200640992623324  0.27310512252979147  0.9386411924596416  1.0000
  H   H22       1.0  0.6582323792341783  0.27622160375119614  0.10793075028748703  1.0000
  H   H23       1.0  0.8017545347513252  0.9286791372380777  0.25782062293171765  1.0000
  H   H24       1.0  0.6477165753907743  0.10148836192811925  0.26784823466925195  1.0000
  H   H25       1.0  0.5111344565883373  0.3705027629033921  0.7558227218000085  1.0000
  H   H26       1.0  0.59230188467145  0.2643356401470455  0.6952418357042873  1.0000
  H   H27       1.0  0.421726219799446  0.2770805320108493  0.6867203271411172  1.0000
  H   H28       1.0  0.3413562533747765  0.3803218794886901  0.7510443902394925  1.0000
  H   H29       1.0  0.3662143472271707  0.30315455634433164  0.10574308923787612  1.0000
  H   H30       1.0  0.40565063400669027  0.2800627121706825  0.21035124907749037  1.0000
  H   H31       1.0  0.5051673861233397  0.22733936542482522  0.1003475983055324  1.0000
  H   H32       1.0  0.6578872340770802  0.24672738313990553  0.9296080138419712  1.0000
  H   H33       1.0  0.6191983581383482  0.3517005040411334  0.8159940895865178  1.0000
  H   H34       1.0  0.5215884618158101  0.29070887283761226  0.9335596510376262  1.0000
  H   H35       1.0  0.7883879206105178  0.9152160091237461  0.7518626347539267  1.0000
  H   H36       1.0  0.8011362893512983  0.8590062510563712  0.6640399629717139  1.0000
  H   H37       1.0  0.7227597520595949  0.9998130853121623  0.6520650484676767  1.0000
  H   H38       1.0  0.7501139239725065  0.0778784674317875  0.7162473518852579  1.0000
  H   H39       1.0  0.783146025832821  0.20048288101018127  0.6304588415026587  1.0000
  H   H40       1.0  0.8508473307153256  0.10014263875853396  0.7252967194024151  1.0000
  H   H41       1.0  0.355998545904548  0.09305790502924075  0.7330716256045449  1.0000
  H   H42       1.0  0.41097170928392773  0.19038702536504803  0.6123276978332228  1.0000
  H   H43       1.0  0.49908871403163624  0.07074209776998677  0.6819310456196845  1.0000
  H   H44       1.0  0.6321980812123797  0.885224039450087  0.6950429845299909  1.0000
  H   H45       1.0  0.5785002484920129  0.7877556604873489  0.7261582442705432  1.0000
  H   H46       1.0  0.4894365660258234  0.9058609600623411  0.769063252111145  1.0000
  H   H47       1.0  0.19892329698030417  0.27653882199952307  0.8904194594810023  1.0000
  H   H48       1.0  0.06652397955093649  0.28770618763048367  0.9145695040386742  1.0000
  H   H49       1.0  0.11280205523916463  0.22511573351208367  0.027089985690572922  1.0000
  H   H50       1.0  0.21144897067005536  0.2508773850110728  0.05792451992603993  1.0000
  H   H51       1.0  0.13574296838834243  0.27699818800733306  0.18628439331559576  1.0000
  H   H52       1.0  0.22644483341630206  0.3478770120560526  0.08085904998465311  1.0000
  H   H53       1.0  0.4251260597986287  0.7626563574306005  0.31712219163407696  1.0000
  H   H54       1.0  0.3267346695087881  0.7099361147976283  0.3432344924878877  1.0000
  H   H55       1.0  0.4564891490050301  0.6868375818265734  0.23877252594324708  1.0000
  H   H56       1.0  0.6136022817510138  0.6514303479628795  0.22506721150114836  1.0000
  H   H57       1.0  0.7224781160214846  0.5856359344419532  0.2778931383959745  1.0000
  H   H58       1.0  0.6245398433643743  0.7122795017516665  0.29399802779076384  1.0000
  H   H59       1.0  0.20243338865589072  0.7630163784289722  0.07299258095491713  1.0000
  H   H60       1.0  0.26648400232980407  0.842419753715163  0.9483115988429062  1.0000
  H   H61       1.0  0.20125137446562055  0.07362507662572429  0.754141501608835  1.0000
  H   H62       1.0  0.23979110977018805  0.9343765563010179  0.7959159670463976  1.0000
  C   C1        1.0  0.6995094421740975  0.4931258673575982  0.7989693114907298  1.0000
  C   C2        1.0  0.9875382316990269  0.8060323655114556  0.5031747830621428  1.0000
  C   C3        1.0  0.3066600615471843  0.5006817228355658  0.19453380445078486  1.0000
  C   C4        1.0  0.009732746772193924  0.19250131261156164  0.49661843496647146  1.0000
  C   C5        1.0  0.0072931929436067505  0.19533786733737193  0.8009958387020647  1.0000
  C   C6        1.0  0.7024673630005721  0.4914905441908602  0.49842076125671037  1.0000
  C   C7        1.0  0.001815758696615443  0.8016577040532624  0.1896398211050609  1.0000
  C   C8        1.0  0.29691091599933384  0.516935552450647  0.49571116362994877  1.0000
  C   C9        1.0  0.9998653964112878  0.5033276442232334  0.7991505549024679  1.0000
  C   C10       1.0  0.304553118782252  0.1955560559080567  0.49885221219201265  1.0000
  C   C11       1.0  0.011471790591592413  0.503496376087476  0.18728398023463913  1.0000
  C   C12       1.0  0.6873762582978957  0.7894810490358565  0.5080397536910582  1.0000
  C   C13       1.0  0.603141774663911  0.48592627743683897  0.9027266644930806  1.0000
  C   C14       1.0  0.41303453465591417  0.4878319471905713  0.10126109176867008  1.0000
  C   C15       1.0  0.5608294150225177  0.5607968961701956  0.9564401111459304  1.0000
  C   C16       1.0  0.4643111789312331  0.4005568301974164  0.0576509883709377  1.0000
  C   C17       1.0  0.4663109387700005  0.564656827889678  0.04937106292115353  1.0000
  C   C18       1.0  0.5523479761704025  0.40441140975868706  0.9550799607690265  1.0000
  C   C19       1.0  0.5797549148939326  0.6515402871560241  0.9571387374012162  1.0000
  C   C20       1.0  0.46982357880224884  0.6588929601254988  0.05988437475232909  1.0000
  C   C21       1.0  0.9943558224996139  0.09938342773527609  0.4992268263154431  1.0000
  C   C22       1.0  0.9793380826169268  0.9098055536153636  0.5047091226385022  1.0000
  C   C23       1.0  0.06690452102183296  0.04881782523642644  0.4186016885849781  1.0000
  C   C24       1.0  0.8977788623591896  0.9653447503288248  0.5832477990431356  1.0000
  C   C25       1.0  0.06005807150990004  0.9570233676821758  0.4223756300418416  1.0000
  C   C26       1.0  0.9060094498242891  0.05761738617942309  0.5815850427821871  1.0000
  C   C27       1.0  0.1639175349603121  0.05344367612870117  0.3113743553598738  1.0000
  C   C28       1.0  0.1578368647661038  0.947584975432065  0.31775574526578515  1.0000
  C   C29       1.0  0.5829551830139936  0.8855823208641949  0.515972190076539  1.0000
  C   C30       1.0  0.40075907854185305  0.09143064833527598  0.5058322782928784  1.0000
  C   C31       1.0  0.5330660403437408  0.9367439977705984  0.436820013543951  1.0000
  C   C32       1.0  0.4521658675383264  0.04248318239309154  0.5859047443420026  1.0000
  C   C33       1.0  0.4421710619190408  0.033085540716264454  0.4352399977045565  1.0000
  C   C34       1.0  0.5334554668046962  0.9361445026946811  0.5975422086284681  1.0000
  C   C35       1.0  0.5332880139195881  0.9255431077698262  0.3409246701948163  1.0000
  C   C36       1.0  0.42736651694717415  0.031873378691678125  0.34243381105154214  1.0000
  C   C37       1.0  0.013872793416567223  0.5004315545981157  0.08733494971598792  1.0000
  C   C38       1.0  0.001511567781371063  0.497754337091756  0.9012514651006356  1.0000
  C   C39       1.0  0.9467946238146471  0.5898130306273544  0.027597893966039243  1.0000
  C   C40       1.0  0.0649763410034723  0.4022167799532212  0.9651838666600199  1.0000
  C   C41       1.0  0.9443146623584938  0.5899927873909974  0.9352103645569656  1.0000
  C   C42       1.0  0.07850972485998406  0.4071505946308847  0.05031834165062325  1.0000
  C   C43       1.0  0.8702817267461712  0.7079761045764456  0.014794325819593775  1.0000
  C   C44       1.0  0.8705890894343331  0.709297349540435  0.9077461802781029  1.0000
  C   C45       1.0  0.006630937601997238  0.09800715629699397  0.904659453775814  1.0000
  C   C46       1.0  0.9090212452229525  0.09949163960961728  0.0006474566845824295  1.0000
  C   C47       1.0  0.10141655500826384  0.005792434939330177  0.9060152989404172  1.0000
  C   C48       1.0  0.8176724074206734  0.19739580137434828  0.008760586055039722  1.0000
  C   C49       1.0  0.726037140674592  0.19912249365709297  0.10346839017999812  1.0000
  C   C50       1.0  0.002097103175671606  0.904273804357679  0.0918031563899788  1.0000
  C   C51       1.0  0.10025585824089238  0.9084989330656085  0.002611482916130069  1.0000
  C   C52       1.0  0.9051927289320147  0.0003030155561632046  0.09380013050782313  1.0000
  C   C53       1.0  0.8077355433837711  0.004001047530309094  0.1881471777787738  1.0000
  C   C54       1.0  0.7205212907572048  0.10108548414481068  0.19338061295158582  1.0000
  C   C55       1.0  0.6035370132985494  0.49604361050945284  0.4915241421349209  1.0000
  C   C56       1.0  0.39798793491589657  0.5187995493577944  0.4924883394408184  1.0000
  C   C57       1.0  0.5383791316572728  0.43175206955876183  0.577976680190723  1.0000
  C   C58       1.0  0.45927311838281804  0.5902874869158198  0.4066055674291605  1.0000
  C   C59       1.0  0.4420619482926754  0.44008300469103995  0.5760610913126955  1.0000
  C   C60       1.0  0.5648200836869394  0.5720450303472475  0.40106308597076185  1.0000
  C   C61       1.0  0.5260068071149463  0.34428609139512645  0.6911756510345556  1.0000
  C   C62       1.0  0.4186170999345292  0.3519377003061592  0.68754257412035  1.0000
  C   C63       1.0  0.4335073261230634  0.29752809271835184  0.12164830206556587  1.0000
  C   C64       1.0  0.5892319991386473  0.31907893775078827  0.9058026427258812  1.0000
  C   C65       1.0  0.7974908531357843  0.9320931691212235  0.6675130670623519  1.0000
  C   C66       1.0  0.8175381284831292  0.11133048466106742  0.6679684924294448  1.0000
  C   C67       1.0  0.42801076106937347  0.10216168040301432  0.6573645292177446  1.0000
  C   C68       1.0  0.560038272050683  0.8760068017370346  0.702410512729962  1.0000
  C   C69       1.0  0.11360533878256975  0.29247935041888695  0.9482914450457754  1.0000
  C   C70       1.0  0.16694008626339513  0.31450770508574516  0.09659831394900917  1.0000
  C   C71       1.0  0.41375714896945964  0.692435004729319  0.32220014945934145  1.0000
  C   C72       1.0  0.6348197960603132  0.633564721131698  0.2942243054499799  1.0000
  N   N1        1.0  0.19776850360211295  0.8205392951728783  0.9984558070540359  1.0000
  N   N2        1.0  0.20163015338395956  0.0022681411423234456  0.8191574606720664  1.0000
  O   O1        1.0  0.7436037181427582  0.4197795287117926  0.7540003298675019  1.0000
  O   O2        1.0  0.06529505592571659  0.7713401279170072  0.4233880956715764  1.0000
  O   O3        1.0  0.26759787905209026  0.581576432767953  0.22836554910232826  1.0000
  O   O4        1.0  0.9438639532261279  0.23061071570972302  0.5765976173057723  1.0000
  O   O5        1.0  0.08527025856137985  0.23464296649838448  0.7568454916875497  1.0000
  O   O6        1.0  0.7417312345552606  0.5696214803257362  0.42796618381671436  1.0000
  O   O7        1.0  0.9250068937011022  0.7628020156765274  0.23080763058421633  1.0000
  O   O8        1.0  0.26313527923785074  0.4361312717765954  0.5707255686722448  1.0000
  O   O9        1.0  0.9201569874340407  0.5776452650894583  0.7645281388526756  1.0000
  O   O10       1.0  0.2695243625785224  0.23445944810038094  0.4195254776017592  1.0000
  O   O11       1.0  0.08637632800790129  0.4301784848408091  0.22913442193102906  1.0000
  O   O12       1.0  0.7324177865742247  0.7506136350454399  0.5794589966953154  1.0000
  O   O13       1.0  0.26143594708855034  0.23880137312536925  0.5736036162899794  1.0000
  O   O14       1.0  0.9309722929931896  0.5786313328720071  0.22788004901159567  1.0000
  O   O15       1.0  0.7287922377747336  0.7558290071212354  0.4265903316533012  1.0000
  O   O16       1.0  0.08030857810572913  0.43395093197161566  0.7510630542209428  1.0000
  O   O17       1.0  0.9316463009630597  0.23224216050258653  0.762471161947218  1.0000
  O   O18       1.0  0.25228230742541785  0.5911784327527413  0.4226854553365698  1.0000
  O   O19       1.0  0.08055419531358143  0.7586830701841621  0.22737541916286838  1.0000
  O   O20       1.0  0.7407005709229326  0.4126554507133448  0.5746701137040304  1.0000
  O   O21       1.0  0.08642075344806698  0.22998505633553623  0.4158685768182764  1.0000
  O   O22       1.0  0.734259478877199  0.5724387708245117  0.7617922414123585  1.0000
  O   O23       1.0  0.9187756646596844  0.75648545495671  0.580660840392177  1.0000
  O   O24       1.0  0.2593198491614503  0.4309546822022767  0.23360840253106122  1.0000
  O   O25       1.0  0.9400955634512089  0.42914649646640146  0.42850712180823786  1.0000
  O   O26       1.0  0.20327577187529042  0.43756564676461807  0.4282823926207301  1.0000
  O   O27       1.0  0.9300615274081493  0.7010305160851972  0.4297682255848798  1.0000
  O   O28       1.0  0.9369971180132316  0.4317909803118666  0.6972684128634725  1.0000
  O   O29       1.0  0.048273850354547655  0.5526089212977894  0.5450294161676015  1.0000
  O   O30       1.0  0.8551178715436336  0.5449688816834808  0.5462402194850355  1.0000
  O   O31       1.0  0.05091962610939769  0.5495340630124872  0.34961522631788716  1.0000
  O   O32       1.0  0.0555631939616886  0.3522826717173331  0.5447128339831764  1.0000
