data_image0
_chemical_formula_structural       Y2H24C18O18
_chemical_formula_sum              "Y2 H24 C18 O18"
_cell_length_a       8.975163726431227
_cell_length_b       9.53402115532177
_cell_length_c       9.440954745944904
_cell_angle_alpha    74.95459036040768
_cell_angle_beta     64.87429896931351
_cell_angle_gamma    89.58310705809902

_space_group_name_H-M_alt    "P 1"
_space_group_IT_number       1

loop_
  _space_group_symop_operation_xyz
  'x, y, z'

loop_
  _atom_site_type_symbol
  _atom_site_label
  _atom_site_symmetry_multiplicity
  _atom_site_fract_x
  _atom_site_fract_y
  _atom_site_fract_z
  _atom_site_occupancy
  Y   Y1        1.0  0.5584803632735743  0.6171914709677182  0.13655788812371122  1.0000
  Y   Y2        1.0  0.4415208303418011  0.382808191102569  0.8634367719326265  1.0000
  H   H1        1.0  0.36886105196988694  0.1804036720540196  0.6147803427921161  1.0000
  H   H2        1.0  0.6311353791994349  0.8195970212746599  0.3852191919903164  1.0000
  H   H3        1.0  0.6009536956650408  0.08264442355271479  0.31502002687260955  1.0000
  H   H4        1.0  0.3990423580558371  0.917352987071069  0.6849815741867006  1.0000
  H   H5        1.0  0.9390829037810419  0.3705596828572766  0.34904628659639053  1.0000
  H   H6        1.0  0.060924259937529264  0.6294389658504398  0.6509408774303651  1.0000
  H   H7        1.0  0.18650995769585418  0.5593437381056885  0.3921242141287565  1.0000
  H   H8        1.0  0.8134922084111197  0.44065375093142467  0.6078706083502752  1.0000
  H   H9        1.0  0.20949655172224618  0.8637217632933059  0.5199755232354164  1.0000
  H   H10       1.0  0.7905039981468532  0.13627131676854276  0.4800327612804552  1.0000
  H   H11       1.0  0.024013451996779598  0.014037629671150898  0.32241982888743337  1.0000
  H   H12       1.0  0.9759969172574542  0.9859752078876621  0.6775866965511244  1.0000
  H   H13       1.0  0.40973292262741257  0.8359199461563376  0.0051821495400119705  1.0000
  H   H14       1.0  0.5902657133907779  0.16407858834639907  0.9948170356740107  1.0000
  H   H15       1.0  0.45739360002451696  0.7354385898281989  0.8819581981293041  1.0000
  H   H16       1.0  0.5426015864374562  0.2645620911375345  0.11804079398802267  1.0000
  H   H17       1.0  0.7246392731903839  0.9367879085081086  0.9838091520499643  1.0000
  H   H18       1.0  0.27536090445101996  0.06321282006508969  0.016193065383958958  1.0000
  H   H19       1.0  0.8218890747522066  0.8288933864918774  0.06387102452643506  1.0000
  H   H20       1.0  0.1781097529491618  0.17110623240959197  0.9361330967616793  1.0000
  H   H21       1.0  0.6911966724783198  0.5804191757980417  0.3903411026701846  1.0000
  H   H22       1.0  0.30880048366699947  0.4195771554127744  0.6096603236049205  1.0000
  H   H23       1.0  0.8304640620089571  0.5409480480947194  0.23470177780521337  1.0000
  H   H24       1.0  0.1695369211410167  0.45904941935798843  0.7652977752897031  1.0000
  C   C1        1.0  0.4885506940216118  0.3350082400021464  0.3698570951700049  1.0000
  C   C2        1.0  0.5114443501574613  0.6649913491876871  0.6301411794980253  1.0000
  C   C3        1.0  0.4514967527608675  0.189645426561718  0.4875227121804926  1.0000
  C   C4        1.0  0.5484960989193938  0.8103563196097596  0.5124769667121426  1.0000
  C   C5        1.0  0.5174416434199998  0.07117839567646199  0.44286745478002837  1.0000
  C   C6        1.0  0.4825557602409204  0.9288201246190435  0.557132242425091  1.0000
  C   C7        1.0  0.1946979548722609  0.4322833495209294  0.16436073242003602  1.0000
  C   C8        1.0  0.8053133080667009  0.5677186208247915  0.8356249386689356  1.0000
  C   C9        1.0  0.05521261958931229  0.4325085800411087  0.3198689115023896  1.0000
  C   C10       1.0  0.9447982224188465  0.5674890010694609  0.6801265456637324  1.0000
  C   C11       1.0  0.06800403520394839  0.5005281209209469  0.423921601088125  1.0000
  C   C12       1.0  0.9319989734618018  0.49946610146280057  0.5760737210204853  1.0000
  C   C13       1.0  0.2809329867094874  0.8496736646591927  0.27241401013172617  1.0000
  C   C14       1.0  0.7190643611189955  0.15032375095034917  0.7275923522174708  1.0000
  C   C15       1.0  0.17959200658357588  0.9000925277068178  0.41660332016086  1.0000
  C   C16       1.0  0.8204097250311051  0.09991039309254998  0.5834029841491599  1.0000
  C   C17       1.0  0.051776299801453256  0.9795749204155796  0.4276574892576477  1.0000
  C   C18       1.0  0.948229957882326  0.020434597349513698  0.5723494744624986  1.0000
  O   O1        1.0  0.5950494815038567  0.3582357285356465  0.22032825030623823  1.0000
  O   O2        1.0  0.40494446025078185  0.6417649400671548  0.7796701991459969  1.0000
  O   O3        1.0  0.41405659921854016  0.4418019966621499  0.4166222587234572  1.0000
  O   O4        1.0  0.5859346056058143  0.5581964581300767  0.5833768344685595  1.0000
  O   O5        1.0  0.34232932234164076  0.48718769569545356  0.12435874986933734  1.0000
  O   O6        1.0  0.6576841637141654  0.5128110000726024  0.8756395647324808  1.0000
  O   O7        1.0  0.1668186254665329  0.37362705854062017  0.06951067440854794  1.0000
  O   O8        1.0  0.8331879120765748  0.6263759375306106  0.9304830353751044  1.0000
  O   O9        1.0  0.37048852221294476  0.748053978767757  0.2940042256715357  1.0000
  O   O10       1.0  0.6295073210425244  0.25194123723844797  0.706002268426353  1.0000
  O   O11       1.0  0.2721509225447676  0.9025311089853213  0.1379837904280949  1.0000
  O   O12       1.0  0.7278454651421812  0.09746847781310208  0.8620234641546034  1.0000
  O   O13       1.0  0.5012374561295303  0.7829996502668163  0.9409879098211321  1.0000
  O   O14       1.0  0.49875500575223  0.2169988150440574  0.059012780692185615  1.0000
  O   O15       1.0  0.7114975769757662  0.8525938361615528  0.07904679838332396  1.0000
  O   O16       1.0  0.288502303749766  0.14740471070412303  0.9209529294957973  1.0000
  O   O17       1.0  0.7437628533737239  0.6038853278250398  0.26716083983858147  1.0000
  O   O18       1.0  0.2562369903016091  0.39611322457351855  0.732835724071947  1.0000
