data_image0
_chemical_formula_structural       Co2H28C28N16O8
_chemical_formula_sum              "Co2 H28 C28 N16 O8"
_cell_length_a       7.744065188296468
_cell_length_b       8.86128403969247
_cell_length_c       12.999509899512677
_cell_angle_alpha    90.00103457755154
_cell_angle_beta     89.99945835785768
_cell_angle_gamma    97.70289993325595

_space_group_name_H-M_alt    "P 1"
_space_group_IT_number       1

loop_
  _space_group_symop_operation_xyz
  'x, y, z'

loop_
  _atom_site_type_symbol
  _atom_site_label
  _atom_site_symmetry_multiplicity
  _atom_site_fract_x
  _atom_site_fract_y
  _atom_site_fract_z
  _atom_site_occupancy
  Co  Co1       1.0  0.9999987298813764  0.999998246656425  7.294798365000023e-07  1.0000
  Co  Co2       1.0  1.5943933603892821e-06  0.5000005112253803  0.4999977477609291  1.0000
  H   H1        1.0  0.6519860763497718  0.9355349264594678  0.9588403546851578  1.0000
  H   H2        1.0  0.3480291760517744  0.5644714511157433  0.45884195009267603  1.0000
  H   H3        1.0  0.34801552535734  0.06446371362135038  0.0411596133001524  1.0000
  H   H4        1.0  0.6519717625040042  0.43553172864941564  0.5411580179261577  1.0000
  H   H5        1.0  0.668342506689761  0.054392819004988324  0.053603072763891584  1.0000
  H   H6        1.0  0.33164529415851257  0.4455892506492276  0.5536024197184091  1.0000
  H   H7        1.0  0.33165246989509  0.9456046072009062  0.9463976644888986  1.0000
  H   H8        1.0  0.6683527422032611  0.5544116216809273  0.4463983175510932  1.0000
  H   H9        1.0  0.5222791760006018  0.7723177028358281  0.5049601067272818  1.0000
  H   H10       1.0  0.4777388364607731  0.7276881868670488  0.0049572059995668  1.0000
  H   H11       1.0  0.47772677898337423  0.22768439841769353  0.4950406305314558  1.0000
  H   H12       1.0  0.5222598630636381  0.272308145762601  0.995041992716878  1.0000
  H   H13       1.0  0.26022752104382346  0.841021296716683  0.5698429085491412  1.0000
  H   H14       1.0  0.7397689397045255  0.6589584325299072  0.0698469887908288  1.0000
  H   H15       1.0  0.7397747110288719  0.15898189807267474  0.4301555209470889  1.0000
  H   H16       1.0  0.26022733038593765  0.3410390087163578  0.9301537484588989  1.0000
  H   H17       1.0  0.23007086471717028  0.8803327659225746  0.7597558030197645  1.0000
  H   H18       1.0  0.7699228957838355  0.6196702813172692  0.2597568753771852  1.0000
  H   H19       1.0  0.7699302642298846  0.11966245810663173  0.24024339568293837  1.0000
  H   H20       1.0  0.23007514057793085  0.38033059101288563  0.7402438618923171  1.0000
  H   H21       1.0  0.7580573724381093  0.7784785453913232  0.7955212955877186  1.0000
  H   H22       1.0  0.24192087856111033  0.7215103000213078  0.2955140791586074  1.0000
  H   H23       1.0  0.24194568035186143  0.22152124842719456  0.20448021092168026  1.0000
  H   H24       1.0  0.7580758643007145  0.2784905572603975  0.7044858888541935  1.0000
  H   H25       1.0  0.7703991371473294  0.7476420209700335  0.603240722756162  1.0000
  H   H26       1.0  0.2296018162623241  0.7523464258367555  0.10323553863895538  1.0000
  H   H27       1.0  0.22960325249130878  0.2523623125328244  0.3967607837867674  1.0000
  H   H28       1.0  0.7703955897564824  0.2476498917525305  0.8967636600805517  1.0000
  C   C1        1.0  0.0006385378722839853  0.5548214221415293  0.7467589727714381  1.0000
  C   C2        1.0  0.9994129912729831  0.9451774738730593  0.2467388785399365  1.0000
  C   C3        1.0  0.9993604768462274  0.4451771878262251  0.2532379181809218  1.0000
  C   C4        1.0  0.0005886104228167984  0.054821166223924  0.7532626279649149  1.0000
  C   C5        1.0  0.9975637703662271  0.6704945810773353  0.9041832772102436  1.0000
  C   C6        1.0  0.00246525363961329  0.8295017038225154  0.4041664440776599  1.0000
  C   C7        1.0  0.0024392824576721928  0.3295052126926947  0.09581361374053897  1.0000
  C   C8        1.0  0.9975340434137437  0.1705082779812983  0.5958366010320759  1.0000
  C   C9        1.0  0.3669153916360344  0.8334063355503574  0.6233923047001892  1.0000
  C   C10       1.0  0.6330868413344816  0.6665939215567533  0.12339239948309458  1.0000
  C   C11       1.0  0.6330860524824969  0.1665911658492831  0.3766076632775111  1.0000
  C   C12       1.0  0.36690927116740096  0.3334023810083338  0.8766083377590161  1.0000
  C   C13       1.0  0.3511864529948667  0.8518188482635127  0.7275817851883986  1.0000
  C   C14       1.0  0.648809737183427  0.6481789983218178  0.22758692893211213  1.0000
  C   C15       1.0  0.6488151487122379  0.14817979181729868  0.2724181827969119  1.0000
  C   C16       1.0  0.3511865329070287  0.35181844292444714  0.7724138083176154  1.0000
  C   C17       1.0  0.49150076906540346  0.8307607126357867  0.7947030545940803  1.0000
  C   C18       1.0  0.5084898906133545  0.6692430388293006  0.2947022587731282  1.0000
  C   C19       1.0  0.5084980880362693  0.16923675869119853  0.2052976826495153  1.0000
  C   C20       1.0  0.49150653706001896  0.3307555411062141  0.70529924774398  1.0000
  C   C21       1.0  0.6464964502215976  0.7931353880259381  0.7475852494051693  1.0000
  C   C22       1.0  0.3534947774003498  0.706857140336652  0.24758881904892144  1.0000
  C   C23       1.0  0.35350628739123374  0.20686212843022395  0.2524162570890097  1.0000
  C   C24       1.0  0.6465011775186298  0.2931380235391714  0.7524111489258016  1.0000
  C   C25       1.0  0.6559977346924625  0.7780791917736353  0.6427488602968408  1.0000
  C   C26       1.0  0.3440009635703943  0.721925981590836  0.1427419185362524  1.0000
  C   C27       1.0  0.3440043397690359  0.22192286436687433  0.3572526462308545  1.0000
  C   C28       1.0  0.6559951489371513  0.27807032096617235  0.8572580494460877  1.0000
  N   N1        1.0  0.9885658874829844  0.5383798670658636  0.6569922826229017  1.0000
  N   N2        1.0  0.011488852538086307  0.9616308069302735  0.15697418503177113  1.0000
  N   N3        1.0  0.011433442418322722  0.4616210202561677  0.3430038390849147  1.0000
  N   N4        1.0  0.9885011075789759  0.038367697843831594  0.8430311677995163  1.0000
  N   N5        1.0  0.9786396813067739  0.7678372589156552  0.9635954781696865  1.0000
  N   N6        1.0  0.021343859725746487  0.7321552081353246  0.46356487621901715  1.0000
  N   N7        1.0  0.021364507422852293  0.2321614112297254  0.0364029512899577  1.0000
  N   N8        1.0  0.978663040783992  0.2678537252133353  0.5364366303451787  1.0000
  N   N9        1.0  0.018968133480434794  0.5562304300338213  0.8459511388408101  1.0000
  N   N10       1.0  0.9810904862542599  0.9437763338626514  0.34592803765353597  1.0000
  N   N11       1.0  0.9810297453153891  0.4437693035828261  0.15404652138199984  1.0000
  N   N12       1.0  0.018913827221645394  0.0562325694376113  0.654076545955867  1.0000
  N   N13       1.0  0.5179368173131634  0.7986702093008307  0.582487840718393  1.0000
  N   N14       1.0  0.48207052789270216  0.701333788220623  0.0824945487558466  1.0000
  N   N15       1.0  0.4820652571539909  0.201331846831593  0.4175128965495317  1.0000
  N   N16       1.0  0.517927193291932  0.29866480674717616  0.9175061884984286  1.0000
  O   O1        1.0  0.7344549312858317  0.9885594259902676  0.0101493748052519  1.0000
  O   O2        1.0  0.2655341734687012  0.5114155424668994  0.5101344824408541  1.0000
  O   O3        1.0  0.26554600730387523  0.0114437537263967  0.9898459776549584  1.0000
  O   O4        1.0  0.7344648412441616  0.4885830675089409  0.4898631777712764  1.0000
  O   O5        1.0  0.4785394437005905  0.8454503410529526  0.8938500043449833  1.0000
  O   O6        1.0  0.5214487142962552  0.6545759448889327  0.3938512464972489  1.0000
  O   O7        1.0  0.5214573319526251  0.15454142182778702  0.10615073286360398  1.0000
  O   O8        1.0  0.4785486589085294  0.3454294671336414  0.6061502600655473  1.0000
