data_image0
_chemical_formula_structural       Co2P2H14C16N6Cl2O6
_chemical_formula_sum              "Co2 P2 H14 C16 N6 Cl2 O6"
_cell_length_a       7.522467153382261
_cell_length_b       7.609401107371979
_cell_length_c       10.45205043549767
_cell_angle_alpha    95.5203087835055
_cell_angle_beta     108.70958264202761
_cell_angle_gamma    84.16413664842098

_space_group_name_H-M_alt    "P 1"
_space_group_IT_number       1

loop_
  _space_group_symop_operation_xyz
  'x, y, z'

loop_
  _atom_site_type_symbol
  _atom_site_label
  _atom_site_symmetry_multiplicity
  _atom_site_fract_x
  _atom_site_fract_y
  _atom_site_fract_z
  _atom_site_occupancy
  Co  Co1       1.0  3.59308987899973e-06  0.49999962110786106  0.4999994884233629  1.0000
  Co  Co2       1.0  0.49999940035117874  0.4999904309753446  0.49999348896322005  1.0000
  P   P1        1.0  0.7595753106531477  0.8407129343799868  0.5814279066202345  1.0000
  P   P2        1.0  0.24041918578951993  0.1592768362758861  0.41857136445797494  1.0000
  H   H1        1.0  0.6224843963600792  0.10965904160689628  0.5204164042595281  1.0000
  H   H2        1.0  0.3775157236858888  0.8903301338418714  0.47958890848292407  1.0000
  H   H3        1.0  0.1373802084499118  0.8173957016225516  0.7722908771292936  1.0000
  H   H4        1.0  0.4281606003852829  0.1885526791184091  0.2137970898466363  1.0000
  H   H5        1.0  0.8626193797147579  0.18266881243687294  0.22771959967717237  1.0000
  H   H6        1.0  0.5718400727859249  0.8113619477337437  0.7861868644370419  1.0000
  H   H7        1.0  0.26356080099013474  0.7561518301528879  0.013207397540597302  1.0000
  H   H8        1.0  0.3042450753104546  0.25248639753254315  0.9731185145241953  1.0000
  H   H9        1.0  0.7364413002254652  0.243953007321295  0.9868161367723759  1.0000
  H   H10       1.0  0.6957526629359593  0.7474439731093768  0.026872004395670453  1.0000
  H   H11       1.0  0.8078216102196691  0.666913517574713  0.22799822960466534  1.0000
  H   H12       1.0  0.6343881817936821  0.35116192981611494  0.792994265718832  1.0000
  H   H13       1.0  0.19218646772607434  0.33314211337031463  0.7720219944798927  1.0000
  H   H14       1.0  0.365609327695907  0.6488033210680941  0.2069880464505758  1.0000
  C   C1        1.0  0.8459188498989719  0.8225429714537497  0.7632676677331105  1.0000
  C   C2        1.0  0.15407846959490712  0.1774452512062581  0.2367330712374596  1.0000
  C   C3        1.0  0.04058004609026261  0.8083386033234773  0.8294716813848523  1.0000
  C   C4        1.0  0.2766291376060224  0.19453552293062873  0.1627774569366522  1.0000
  C   C5        1.0  0.9594154484378524  0.1917076085385502  0.1705380053732242  1.0000
  C   C6        1.0  0.723369767477607  0.8054275271275985  0.8372212452566784  1.0000
  C   C7        1.0  0.11181230157868073  0.7706333893486104  0.9650582038320863  1.0000
  C   C8        1.0  0.20658489853573772  0.23320968343955428  0.02725243956087548  1.0000
  C   C9        1.0  0.8881859578728283  0.22942079404208474  0.03494810330764866  1.0000
  C   C10       1.0  0.7934153440085583  0.7667640225873028  0.9727437640189934  1.0000
  C   C11       1.0  0.9881397234423162  0.7457465354872357  0.03602390864863746  1.0000
  C   C12       1.0  0.011861601563310802  0.254271730850853  0.9639815944078974  1.0000
  C   C13       1.0  0.9588570099662025  0.6498624396999517  0.2501240023649133  1.0000
  C   C14       1.0  0.7559160477205468  0.36051483036286674  0.7607675198767438  1.0000
  C   C15       1.0  0.04114714183955931  0.3501544180565049  0.7498801107496078  1.0000
  C   C16       1.0  0.2440827223572342  0.6394698989432968  0.23922173534035104  1.0000
  N   N1        1.0  0.0739032170721003  0.5792536861446538  0.3596800467635219  1.0000
  N   N2        1.0  0.7457472754403227  0.42606907879224565  0.6463894090824311  1.0000
  N   N3        1.0  0.926102487821595  0.42074346529341977  0.6403187152182426  1.0000
  N   N4        1.0  0.25425433768850786  0.5739115087905946  0.3536001133704119  1.0000
  N   N5        1.0  0.06055237733636431  0.688613634397342  0.17009793778289153  1.0000
  N   N6        1.0  0.9394504045069141  0.31139803367388197  0.8299053595895742  1.0000
  Cl  Cl1       1.0  0.6668749335463033  0.4428929036140233  0.33494325189553104  1.0000
  Cl  Cl2       1.0  0.33312239844401154  0.5570957837601257  0.6650479609604716  1.0000
  O   O1        1.0  0.9060911346404552  0.7445074634320435  0.5234878845274693  1.0000
  O   O2        1.0  0.4396255328912702  0.22491735784906558  0.4722127228163515  1.0000
  O   O3        1.0  0.09390752481338183  0.2554915081394284  0.47650845060672253  1.0000
  O   O4        1.0  0.560373210938451  0.7750697328274825  0.5277824961146393  1.0000
  O   O5        1.0  0.7522150643076843  0.04256198435518852  0.5588312762978873  1.0000
  O   O6        1.0  0.2477808108505216  0.9574299640157378  0.4411761833688673  1.0000
