data_image0
_chemical_formula_structural       Al2H14C30Cl2O10F2
_chemical_formula_sum              "Al2 H14 C30 Cl2 O10 F2"
_cell_length_a       6.644525641318746
_cell_length_b       15.377777193170418
_cell_length_c       17.759602624492043
_cell_angle_alpha    84.94716651555392
_cell_angle_beta     79.67684299401935
_cell_angle_gamma    77.65622440928206

_space_group_name_H-M_alt    "P 1"
_space_group_IT_number       1

loop_
  _space_group_symop_operation_xyz
  'x, y, z'

loop_
  _atom_site_type_symbol
  _atom_site_label
  _atom_site_symmetry_multiplicity
  _atom_site_fract_x
  _atom_site_fract_y
  _atom_site_fract_z
  _atom_site_occupancy
  Al  Al1       1.0  0.49766237955892484  0.5003013659518984  0.4992551695291852  1.0000
  Al  Al2       1.0  0.9984671190879766  0.4995890750146755  0.4990849572664047  1.0000
  H   H1        1.0  0.2411129432073693  0.4336050196735001  0.5856093517293033  1.0000
  H   H2        1.0  0.7334447942802315  0.5944747743044871  0.4329482553089434  1.0000
  H   H3        1.0  0.6344455749221822  0.549371312137566  0.26920935097542303  1.0000
  H   H4        1.0  0.7114123848244561  0.5510629761098897  0.12599309154371247  1.0000
  H   H5        1.0  0.09570474261716563  0.43650104231845427  0.2677409786704388  1.0000
  H   H6        1.0  0.9030233540384532  0.5654835430150199  0.7283739343746163  1.0000
  H   H7        1.0  0.37507036553019907  0.442713943929938  0.7346490213550325  1.0000
  H   H8        1.0  0.31337695730245235  0.43948227081918384  0.8777720195260558  1.0000
  H   H9        1.0  0.8123494005747744  0.7709486558856682  0.47616251916828395  1.0000
  H   H10       1.0  0.1701103610509165  0.2307087334683544  0.5302272151229488  1.0000
  H   H11       1.0  0.5924334465996636  0.2290431352504356  0.45361762680872897  1.0000
  H   H12       1.0  0.6778362204289862  0.0663899263672008  0.45701458363741654  1.0000
  H   H13       1.0  0.4089021895077425  0.7726391363170675  0.5376198504882979  1.0000
  H   H14       1.0  0.3249889438032271  0.935160878954882  0.5333868010705984  1.0000
  C   C1        1.0  0.8204976643465403  0.34081077709060986  0.4930749447960565  1.0000
  C   C2        1.0  0.6883614047615654  0.5018992166293685  0.6377231955412412  1.0000
  C   C3        1.0  0.17336266459013666  0.6605069460352765  0.5046381198769012  1.0000
  C   C4        1.0  0.3087288769295498  0.49672527888561996  0.3618756116074806  1.0000
  C   C5        1.0  0.35943144323728415  0.49391075743515955  0.2767670026908604  1.0000
  C   C6        1.0  0.5346337439419742  0.5251637065233935  0.23693338307275266  1.0000
  C   C7        1.0  0.5777521354083248  0.5257549639221891  0.1576175663769632  1.0000
  C   C8        1.0  0.4504924971813153  0.4930206742510563  0.11563632624765319  1.0000
  C   C9        1.0  0.2777855554776423  0.4593034455831955  0.15707750318428282  1.0000
  C   C10       1.0  0.23098958934708244  0.46094800222864757  0.2365070227257604  1.0000
  C   C11       1.0  0.4942968374795883  0.49511023020285444  0.034970581924639504  1.0000
  C   C12       1.0  0.5326091692870348  0.4992580088894414  0.9650792492685625  1.0000
  C   C13       1.0  0.5702377977106821  0.5018789432327962  0.8843672502112055  1.0000
  C   C14       1.0  0.7358024004579846  0.5385819530552708  0.8408018554714402  1.0000
  C   C15       1.0  0.7736621583966894  0.5383010167755343  0.7612751553586535  1.0000
  C   C16       1.0  0.6437800209892474  0.5034886167491379  0.7229943486136535  1.0000
  C   C17       1.0  0.47587176607471077  0.4689600157988564  0.7650282709024623  1.0000
  C   C18       1.0  0.44130679675043166  0.46727455621063996  0.8444209096476456  1.0000
  C   C19       1.0  0.11891433300868937  0.7595223275136219  0.5063914808832948  1.0000
  C   C20       1.0  0.8739630046003342  0.24181926296211737  0.4917654050590201  1.0000
  C   C21       1.0  0.9269412824409146  0.8062288372148528  0.4889248665784081  1.0000
  C   C22       1.0  0.8815516091333963  0.898425225956707  0.4868405704317312  1.0000
  C   C23       1.0  0.0601708050247751  0.19518742093561767  0.5141213263361024  1.0000
  C   C24       1.0  0.10410610803099019  0.1029524913540172  0.517466869910173  1.0000
  C   C25       1.0  0.7381772566657503  0.1933955646683003  0.47117657041378896  1.0000
  C   C26       1.0  0.7877642056493032  0.10089821881690848  0.4735250535848223  1.0000
  C   C27       1.0  0.259484354653111  0.8081573229758944  0.5230422430635998  1.0000
  C   C28       1.0  0.21011081116434122  0.9006416273587305  0.5207867040311099  1.0000
  C   C29       1.0  0.019097320752479212  0.9512909780605266  0.5017456891886027  1.0000
  C   C30       1.0  0.9723537787426794  0.05021545070348309  0.49776729901298467  1.0000
  Cl  Cl1       1.0  0.12199256616693788  0.4162540112770968  0.10804264072784521  1.0000
  Cl  Cl2       1.0  0.8935204858041317  0.5839394731168068  0.887128190566486  1.0000
  O   O1        1.0  0.6384881537050903  0.37941982361196114  0.48132461209735317  1.0000
  O   O2        1.0  0.8667760538741192  0.5152788040688207  0.6047402081276374  1.0000
  O   O3        1.0  0.03408265947715709  0.621592326756314  0.49012904368505167  1.0000
  O   O4        1.0  0.44680726768866197  0.5150032066765818  0.39591244584140384  1.0000
  O   O5        1.0  0.35652159598588207  0.6224830805420182  0.5159391433438856  1.0000
  O   O6        1.0  0.13116738506916192  0.48225961668832423  0.3944635715091351  1.0000
  O   O7        1.0  0.9596952328923224  0.3793542198021739  0.50793675389383  1.0000
  O   O8        1.0  0.5465392956041556  0.48577452231526047  0.6042503523716505  1.0000
  O   O9        1.0  0.2513768559394904  0.45994676659270073  0.5338436206547499  1.0000
  O   O10       1.0  0.7440972724744341  0.5406916364016965  0.4658687618913149  1.0000
  F   F1        1.0  0.6888790883700223  0.9361685312521145  0.4686101356193292  1.0000
  F   F2        1.0  0.2878460146132937  0.06512570521648799  0.5427809192243558  1.0000
