data_image0
_chemical_formula_structural       Zn6H20C20N16O16
_chemical_formula_sum              "Zn6 H20 C20 N16 O16"
_cell_length_a       10.387384717794061
_cell_length_b       10.386558444087816
_cell_length_c       10.985328747926376
_cell_angle_alpha    116.79376709914087
_cell_angle_beta     117.19564648316887
_cell_angle_gamma    92.29665288110091

_space_group_name_H-M_alt    "P 1"
_space_group_IT_number       1

loop_
  _space_group_symop_operation_xyz
  'x, y, z'

loop_
  _atom_site_type_symbol
  _atom_site_label
  _atom_site_symmetry_multiplicity
  _atom_site_fract_x
  _atom_site_fract_y
  _atom_site_fract_z
  _atom_site_occupancy
  Zn  Zn1       1.0  0.6543187913910984  0.7975608766630344  0.28854064875741886  1.0000
  Zn  Zn2       1.0  0.009146199699500798  0.3658845088066087  0.21144677143360013  1.0000
  Zn  Zn3       1.0  0.3456824563300671  0.2024393043387391  0.7114620833158372  1.0000
  Zn  Zn4       1.0  0.9908547299199099  0.6341179633866288  0.7885540666403587  1.0000
  Zn  Zn5       1.0  0.9548389323226517  0.7049323201120998  0.25027232929907256  1.0000
  Zn  Zn6       1.0  0.04516271598350129  0.2950690091489179  0.7497283383341015  1.0000
  H   H1        1.0  0.11252016285634175  0.6793523500114916  0.5776284196209148  1.0000
  H   H2        1.0  0.6018737263641539  0.5352262848729126  0.9228690610925059  1.0000
  H   H3        1.0  0.8874811113014545  0.32064784021900994  0.4223725073232957  1.0000
  H   H4        1.0  0.39812429255164966  0.4647705145268758  0.07712989303036019  1.0000
  H   H5        1.0  0.8987817898208802  0.024422391931523204  0.09030694784659232  1.0000
  H   H6        1.0  0.4342641887730494  0.8085191322466727  0.40973636578026884  1.0000
  H   H7        1.0  0.10121515265147714  0.9755778277488646  0.9096929904113227  1.0000
  H   H8        1.0  0.5657395658934021  0.1914821615247675  0.5902688577363977  1.0000
  H   H9        1.0  0.025406508832126893  0.015024990472248598  0.2607856479635089  1.0000
  H   H10       1.0  0.25430310645555926  0.7646603363676903  0.2392923537689171  1.0000
  H   H11       1.0  0.9745907913969276  0.98497295185976  0.7392134766001351  1.0000
  H   H12       1.0  0.7457079302548948  0.2353466145903838  0.7607130346915696  1.0000
  H   H13       1.0  0.5524492503566593  0.6275389124037289  0.44850666128154165  1.0000
  H   H14       1.0  0.6790573664847415  0.10401526225415839  0.051581644864349144  1.0000
  H   H15       1.0  0.44754987778588884  0.3724612994732581  0.5514924174727371  1.0000
  H   H16       1.0  0.3209395728142752  0.895981545661698  0.948416836445809  1.0000
  H   H17       1.0  0.6748820565086219  0.6100707741749859  0.6060224063525013  1.0000
  H   H18       1.0  0.5041441019131696  0.0689192258645903  0.8939572291246665  1.0000
  H   H19       1.0  0.32511849896243916  0.38993055898773576  0.3939786910324942  1.0000
  H   H20       1.0  0.4958564799945222  0.9310821165268522  0.10604206313128381  1.0000
  C   C1        1.0  0.7770184840593471  0.6695016039793555  0.5125103654067759  1.0000
  C   C2        1.0  0.6571299885952016  0.2646615391717048  0.9876926680949583  1.0000
  C   C3        1.0  0.22298280331676784  0.3304985908655027  0.487489658972912  1.0000
  C   C4        1.0  0.3428701927274957  0.7353386549605005  0.012308688601066783  1.0000
  C   C5        1.0  0.9961898935682784  0.681010785237312  0.537076889029905  1.0000
  C   C6        1.0  0.6440795158640287  0.4594073774363779  0.9633709307091893  1.0000
  C   C7        1.0  0.0038113906345032082  0.3189859978430079  0.4629216784020187  1.0000
  C   C8        1.0  0.35591922491185096  0.5405916907957291  0.036629309920648744  1.0000
  C   C9        1.0  0.9444295539876962  0.8128564349941598  0.03766399237684249  1.0000
  C   C10       1.0  0.2755211787838689  0.906976103964766  0.4625253953300189  1.0000
  C   C11       1.0  0.05556810717140339  0.18714264175400788  0.9623357754402948  1.0000
  C   C12       1.0  0.724483324179289  0.0930274678677137  0.5374793095645815  1.0000
  C   C13       1.0  0.9184398310059266  0.953137975253647  0.14158731251742343  1.0000
  C   C14       1.0  0.3117179498289602  0.7769743070673912  0.35853687951203045  1.0000
  C   C15       1.0  0.08155638960635507  0.04685997559443679  0.85841133923352  1.0000
  C   C16       1.0  0.6882862054224786  0.22302813496329318  0.6414662795645614  1.0000
  C   C17       1.0  0.7942076989148605  0.9275335846227437  0.17275652834317898  1.0000
  C   C18       1.0  0.25493979067982053  0.6216503792667892  0.32749934942201275  1.0000
  C   C19       1.0  0.20578924355749706  0.07246663505765129  0.8272434099147362  1.0000
  C   C20       1.0  0.7450611622028873  0.3783486903906308  0.6724982265751366  1.0000
  N   N1        1.0  0.916547990805185  0.7088268828252284  0.4233094762659423  1.0000
  N   N2        1.0  0.7856500296544482  0.4935379519103337  0.07716965581136057  1.0000
  N   N3        1.0  0.0834529224225733  0.29117217298911413  0.5766908074247823  1.0000
  N   N4        1.0  0.2143479924346821  0.5064622592539934  0.9228307552592557  1.0000
  N   N5        1.0  0.7746878821824835  0.7020662822964568  0.40555689652379817  1.0000
  N   N6        1.0  0.7966406324426603  0.3693219000566046  0.09472545787332393  1.0000
  N   N7        1.0  0.2253133919753196  0.29793390793404473  0.5944440304204123  1.0000
  N   N8        1.0  0.2033585221365257  0.6306783210491034  0.9052718157519167  1.0000
  N   N9        1.0  0.9158996970894934  0.655396874365188  0.5974177756783594  1.0000
  N   N10       1.0  0.5581108781377181  0.3186854341883603  0.9028361938515915  1.0000
  N   N11       1.0  0.08409869597466721  0.3446010640651238  0.40258091913346317  1.0000
  N   N12       1.0  0.44188787585648026  0.6813136386581106  0.09716314421372374  1.0000
  N   N13       1.0  0.6633580065627953  0.6562142719247035  0.5378540379205036  1.0000
  N   N14       1.0  0.6184606332140489  0.12561180110052558  0.9622511897304094  1.0000
  N   N15       1.0  0.336642558953244  0.34378365408783645  0.4621446999522122  1.0000
  N   N16       1.0  0.3815395613269672  0.8743883976460368  0.03774926440109998  1.0000
  O   O1        1.0  0.9722406143579149  0.7122145009501607  0.07193636686549366  1.0000
  O   O2        1.0  0.140596510355941  0.9007118810043409  0.4281728730278902  1.0000
  O   O3        1.0  0.027757778706245507  0.2877834374801509  0.9280623279463358  1.0000
  O   O4        1.0  0.8594054988802496  0.09929058267282899  0.5718284378587769  1.0000
  O   O5        1.0  0.9412477546677422  0.8063296611604472  0.9170688793437028  1.0000
  O   O6        1.0  0.38965814230589757  0.0243296628794099  0.5832433321152524  1.0000
  O   O7        1.0  0.0587466676410102  0.193669441135917  0.08292947003532454  1.0000
  O   O8        1.0  0.6103456387971845  0.975671640120751  0.41676008627237593  1.0000
  O   O9        1.0  0.7891021999961296  0.8261508427329574  0.2105521761533852  1.0000
  O   O10       1.0  0.11579665157734098  0.5788445050033744  0.28984265135238735  1.0000
  O   O11       1.0  0.21089692814642547  0.1738493691440226  0.7894469026008935  1.0000
  O   O12       1.0  0.8842043044787073  0.42115797641858427  0.7101563815925263  1.0000
  O   O13       1.0  0.7053958203202838  0.005245604302082502  0.16541144401333005  1.0000
  O   O14       1.0  0.3398874724124354  0.5400778698375746  0.3347576259278783  1.0000
  O   O15       1.0  0.2946007480037167  0.9947534763477892  0.834588753555629  1.0000
  O   O16       1.0  0.6601112979734153  0.4599246193877918  0.6652422665206716  1.0000
