data_image0
_chemical_formula_structural       Cd2H36C42N12O14
_chemical_formula_sum              "Cd2 H36 C42 N12 O14"
_cell_length_a       10.267871421274558
_cell_length_b       10.867284988933923
_cell_length_c       11.423058639659091
_cell_angle_alpha    78.12912782649458
_cell_angle_beta     85.80221903532424
_cell_angle_gamma    69.66333899107647

_space_group_name_H-M_alt    "P 1"
_space_group_IT_number       1

loop_
  _space_group_symop_operation_xyz
  'x, y, z'

loop_
  _atom_site_type_symbol
  _atom_site_label
  _atom_site_symmetry_multiplicity
  _atom_site_fract_x
  _atom_site_fract_y
  _atom_site_fract_z
  _atom_site_occupancy
  Cd  Cd1       1.0  0.35828345333582934  0.8606740879357769  0.8750427638905193  1.0000
  Cd  Cd2       1.0  0.6417176732001052  0.13932575347961765  0.124957314190759  1.0000
  H   H1        1.0  0.20014880016564968  0.4749953719664147  0.8503432163892838  1.0000
  H   H2        1.0  0.7998516180363067  0.5250064818372664  0.14965736830472304  1.0000
  H   H3        1.0  0.03126840747268026  0.593651219215175  0.5888355165943435  1.0000
  H   H4        1.0  0.9687336968431027  0.40634861863642857  0.411164500962485  1.0000
  H   H5        1.0  0.8906316604419542  0.863201220693696  0.8393896825415934  1.0000
  H   H6        1.0  0.10937071331970566  0.13680062598238146  0.16061078110352864  1.0000
  H   H7        1.0  0.7658324592161914  0.5261728458540631  0.8330335958457976  1.0000
  H   H8        1.0  0.2341679015077958  0.47383197989307746  0.16696463115301435  1.0000
  H   H9        1.0  0.6252367973962618  0.6617306436707935  0.29824349550949586  1.0000
  H   H10       1.0  0.3747640519100343  0.3382672012273104  0.7017570099377363  1.0000
  H   H11       1.0  0.5052216723920677  0.07656666641105397  0.697238098484476  1.0000
  H   H12       1.0  0.49477922361673854  0.9234311046439174  0.30275716623729204  1.0000
  H   H13       1.0  0.5886634998925047  0.433835780165488  0.36560864910951807  1.0000
  H   H14       1.0  0.41133866968500843  0.5661610734354524  0.6343928526882647  1.0000
  H   H15       1.0  0.49555306518182346  0.38693162586127267  0.2679881365078174  1.0000
  H   H16       1.0  0.5044461057944005  0.6130682226817183  0.7320120626223454  1.0000
  H   H17       1.0  0.371631935392891  0.5729530898588847  0.07664294623596388  1.0000
  H   H18       1.0  0.6283692797560148  0.4270437303842981  0.9233559957235398  1.0000
  H   H19       1.0  0.09763542864484259  0.7749510326104597  0.45603717178614983  1.0000
  H   H20       1.0  0.9023663253958317  0.22504980528168514  0.5439626623499264  1.0000
  H   H21       1.0  0.3075683617004826  0.7175473174661419  0.3287222623571963  1.0000
  H   H22       1.0  0.6924343701200398  0.2824535168622048  0.6712775112544378  1.0000
  H   H23       1.0  0.43087513010414813  0.23731265951362696  0.37745548395954387  1.0000
  H   H24       1.0  0.5691234289348372  0.7626861679382414  0.6225432122073327  1.0000
  H   H25       1.0  0.5229912074679247  0.23863581802628184  0.5025128129852375  1.0000
  H   H26       1.0  0.4770067318500677  0.7613620006416468  0.49748525367260027  1.0000
  H   H27       1.0  0.1764660460283095  0.35736971248830685  0.5947857005095115  1.0000
  H   H28       1.0  0.8235337524526614  0.6426311325314342  0.4052142546754495  1.0000
  H   H29       1.0  0.1529410581732407  0.004583728932559001  0.6079287609016788  1.0000
  H   H30       1.0  0.8470541052868368  0.9954191673450338  0.39207368990228986  1.0000
  H   H31       1.0  0.9665327892239758  0.1911382337415333  0.87574136235623  1.0000
  H   H32       1.0  0.033468606757835896  0.8088636164983497  0.12425916181333456  1.0000
  H   H33       1.0  0.23135039278749756  0.12073196150534926  0.911595928604143  1.0000
  H   H34       1.0  0.7686487859724803  0.8792678747304518  0.08840339707177237  1.0000
  H   H35       1.0  0.3078863650059915  0.052136638943345304  0.03600043576906838  1.0000
  H   H36       1.0  0.6921144765165577  0.9478612182619484  0.9640009431324045  1.0000
  C   C1        1.0  0.16921642888370747  0.733082847335389  0.8510543266424333  1.0000
  C   C2        1.0  0.8307841198416949  0.2669130379669795  0.14894922653348164  1.0000
  C   C3        1.0  0.05700700979882352  0.6754007390021924  0.8439377975847008  1.0000
  C   C4        1.0  0.9429937664619953  0.3246001024537507  0.15606209707581797  1.0000
  C   C5        1.0  0.09169115419696536  0.5391209962128583  0.8446241591250327  1.0000
  C   C6        1.0  0.908309264004991  0.46088085759081565  0.15537642556897416  1.0000
  C   C7        1.0  0.12466433505277039  0.5692531684761305  0.5339854934352103  1.0000
  C   C8        1.0  0.8753371261907642  0.4307456975130962  0.46601651497530827  1.0000
  C   C9        1.0  0.9171301313236736  0.7572148676480308  0.8389975280025507  1.0000
  C   C10       1.0  0.08287092216677647  0.24278797032521027  0.16100193929201365  1.0000
  C   C11       1.0  0.6612670676984248  0.7895494518760202  0.8332101189893634  1.0000
  C   C12       1.0  0.33873435941838875  0.21045234913510308  0.16678691136322496  1.0000
  C   C13       1.0  0.8477986883507852  0.5669696765204292  0.8365008544356554  1.0000
  C   C14       1.0  0.15220201486455665  0.43303416149335294  0.1634984294381496  1.0000
  C   C15       1.0  0.9872717283613283  0.4846088799510467  0.8402788244761435  1.0000
  C   C16       1.0  0.012728362916774878  0.5153939369716055  0.15971895643437506  1.0000
  C   C17       1.0  0.8120783425550328  0.703554147395124  0.8357686791154676  1.0000
  C   C18       1.0  0.18792334622391846  0.29644967474767  0.1642296707796547  1.0000
  C   C19       1.0  0.5580058454248583  0.672149292415007  0.2254138547211824  1.0000
  C   C20       1.0  0.4419953385890454  0.3278475770569287  0.7745885810552905  1.0000
  C   C21       1.0  0.41524452266398965  0.08057546175007249  0.6500238059454233  1.0000
  C   C22       1.0  0.5847517305401763  0.9194243728699405  0.34997482784959294  1.0000
  C   C23       1.0  0.029063438513055883  0.3401991949713262  0.8398656376122345  1.0000
  C   C24       1.0  0.9709412985613991  0.6597986725931476  0.1601372460999498  1.0000
  C   C25       1.0  0.4928653263836153  0.4679788744284323  0.3126670616735367  1.0000
  C   C26       1.0  0.5071355151389267  0.5320189827768617  0.6873343172279431  1.0000
  C   C27       1.0  0.42866931044976975  0.6235586058997171  0.11333092721066144  1.0000
  C   C28       1.0  0.5713328746952369  0.3764382230868577  0.8866688276786333  1.0000
  C   C29       1.0  0.3645465481325159  0.5043877371662759  0.3908977934121935  1.0000
  C   C30       1.0  0.6354496242424187  0.49561510631876615  0.6091011030503493  1.0000
  C   C31       1.0  0.16195856314577378  0.6705337983128032  0.459725081447999  1.0000
  C   C32       1.0  0.838040607830443  0.32946605023019515  0.540275117682171  1.0000
  C   C33       1.0  0.32707141507373894  0.40181592950979445  0.4667566865570122  1.0000
  C   C34       1.0  0.6729283989747256  0.5981848908955669  0.5332415217194678  1.0000
  C   C35       1.0  0.28099022798547674  0.6376816742954431  0.3886272556406991  1.0000
  C   C36       1.0  0.7190082502242773  0.3623201620214544  0.6113717031937113  1.0000
  C   C37       1.0  0.41853394207040384  0.25770454718144714  0.46897434339641814  1.0000
  C   C38       1.0  0.5814636469724729  0.7422942715270294  0.5310235398406604  1.0000
  C   C39       1.0  0.20712701877538112  0.435765625195934  0.5369456320165682  1.0000
  C   C40       1.0  0.7928731377644452  0.564234207476069  0.46305363313490483  1.0000
  C   C41       1.0  0.2363058655405083  0.045502569944545684  0.6021869629278029  1.0000
  C   C42       1.0  0.7636909996008967  0.9544982857665824  0.3978131738304995  1.0000
  N   N1        1.0  0.4971875075174735  0.5799007554489604  0.2194936895068978  1.0000
  N   N2        1.0  0.5028113862291191  0.42009709657673955  0.7805069369892264  1.0000
  N   N3        1.0  0.4461744070569863  0.7366668897703192  0.05939314726067116  1.0000
  N   N4        1.0  0.5538300839228398  0.2633289320481039  0.940606670000491  1.0000
  N   N5        1.0  0.2516984779270927  0.13803922946916458  0.511459579725475  1.0000
  N   N6        1.0  0.7482960735957461  0.8619626457172983  0.4885413681152071  1.0000
  N   N7        1.0  0.33485119375866645  0.006969511511698599  0.6889454972061841  1.0000
  N   N8        1.0  0.665147357496558  0.9930293282473596  0.31105407241494015  1.0000
  N   N9        1.0  0.36634363614634663  0.1594612228207666  0.5439504685961721  1.0000
  N   N10       1.0  0.6336539451127834  0.8405376081948999  0.4560482880951539  1.0000
  N   N11       1.0  0.5288294082293132  0.7681548376288204  0.1296117537116928  1.0000
  N   N12       1.0  0.4711731271908091  0.23184099131719896  0.8703881845983544  1.0000
  O   O1        1.0  0.2919645581997656  0.653255903489878  0.8757946460783257  1.0000
  O   O2        1.0  0.7080351013587672  0.3467369642040764  0.12420783150025728  1.0000
  O   O3        1.0  0.1353710678322812  0.8605051099575788  0.8324523787309841  1.0000
  O   O4        1.0  0.8646343075223866  0.1394908559833112  0.1675578594566645  1.0000
  O   O5        1.0  0.6244037559863002  0.90595469698367  0.8559657342181737  1.0000
  O   O6        1.0  0.37559538086320277  0.09404808658122477  0.14402948685406608  1.0000
  O   O7        1.0  0.5752236061585233  0.7368395938483729  0.8081147335750245  1.0000
  O   O8        1.0  0.42477814788215085  0.2631612440437721  0.19188510056105196  1.0000
  O   O9        1.0  0.14651665208103273  0.27204827036182166  0.8121316111893717  1.0000
  O   O10       1.0  0.8534797508210229  0.7279566434836368  0.18787209863268117  1.0000
  O   O11       1.0  0.9272866274711473  0.28787736555042187  0.873619300897907  1.0000
  O   O12       1.0  0.07271282073470789  0.7121244795098605  0.12638047086630164  1.0000
  O   O13       1.0  0.25602075196161417  0.03729881555329939  0.9720923804123911  1.0000
  O   O14       1.0  0.7439797392858194  0.9627000416925353  0.027908815068329273  1.0000
