data_image0
_chemical_formula_structural       K4H16C24N4Cl4O10
_chemical_formula_sum              "K4 H16 C24 N4 Cl4 O10"
_cell_length_a       3.8461680934185973
_cell_length_b       12.907273323003567
_cell_length_c       15.718706102659462
_cell_angle_alpha    101.7692939687247
_cell_angle_beta     97.03679152159926
_cell_angle_gamma    89.98223967034959

_space_group_name_H-M_alt    "P 1"
_space_group_IT_number       1

loop_
  _space_group_symop_operation_xyz
  'x, y, z'

loop_
  _atom_site_type_symbol
  _atom_site_label
  _atom_site_symmetry_multiplicity
  _atom_site_fract_x
  _atom_site_fract_y
  _atom_site_fract_z
  _atom_site_occupancy
  K   K1        1.0  0.2592239171293754  0.5869506542519716  0.9137719912258574  1.0000
  K   K2        1.0  0.34454223897409975  0.9128481768004023  0.0862232630170681  1.0000
  K   K3        1.0  0.7407799546836171  0.4130490580675711  0.08623020371020826  1.0000
  K   K4        1.0  0.6554356793800621  0.08715394321396992  0.9137741009400173  1.0000
  H   H1        1.0  0.03348163321650329  0.9601972255848352  0.7567736332955164  1.0000
  H   H2        1.0  0.2767793490208774  0.5398065507048102  0.24344712166119817  1.0000
  H   H3        1.0  0.9665144065190602  0.039802507676000694  0.24322514581328386  1.0000
  H   H4        1.0  0.7232247552358331  0.46019555569012743  0.7565523095825667  1.0000
  H   H5        1.0  0.3562348715715372  0.6158838316751343  0.648498918948789  1.0000
  H   H6        1.0  0.7064494706740019  0.8840425086914009  0.3515707394931766  1.0000
  H   H7        1.0  0.643766191209302  0.3841135178110875  0.3515008770414099  1.0000
  H   H8        1.0  0.29355184997825745  0.115957995864413  0.6484315135130743  1.0000
  H   H9        1.0  0.38201429359331474  0.7454523393112285  0.5529222398679039  1.0000
  H   H10       1.0  0.8283733736102618  0.7545312998915816  0.447210274836003  1.0000
  H   H11       1.0  0.6179893888547454  0.2545450095792177  0.4470776357763598  1.0000
  H   H12       1.0  0.1716304350810844  0.2454676246182572  0.5527911470027932  1.0000
  H   H13       1.0  0.8774827754884524  0.7291830201895807  0.04615170561662298  1.0000
  H   H14       1.0  0.8314986914954404  0.7706577323892463  0.9539234328071515  1.0000
  H   H15       1.0  0.1225160786641126  0.27081907973535374  0.9538488370650312  1.0000
  H   H16       1.0  0.16850271381785825  0.2293435752994171  0.04607705180431759  1.0000
  C   C1        1.0  0.691298580336145  0.7086404597086612  0.759485135380551  1.0000
  C   C2        1.0  0.9310853305875496  0.7913234025607493  0.2406517228493711  1.0000
  C   C3        1.0  0.30870517600325803  0.2913576846530503  0.2405142426149567  1.0000
  C   C4        1.0  0.06891089851293938  0.20867869412918344  0.7593493755512313  1.0000
  C   C5        1.0  0.873245970446298  0.8125938641457895  0.790381032280834  1.0000
  C   C6        1.0  0.08276108844093236  0.687431545505845  0.20980989782714934  1.0000
  C   C7        1.0  0.12675014318060107  0.1874066645863195  0.2096172491792174  1.0000
  C   C8        1.0  0.9172378342181203  0.31257134605958475  0.7901907825787617  1.0000
  C   C9        1.0  0.8887773156026737  0.8850397600911324  0.7331753377027468  1.0000
  C   C10       1.0  0.1556396793099069  0.6149784857974439  0.2670314615538416  1.0000
  C   C11       1.0  0.11121859788959654  0.11495839755030353  0.2668218952115282  1.0000
  C   C12       1.0  0.8443694533769274  0.3850212406536784  0.7329683511983021  1.0000
  C   C13       1.0  0.7176169154682838  0.8589962398657395  0.649991209335873  1.0000
  C   C14       1.0  0.0674093148749222  0.6410264297659153  0.35019586801296737  1.0000
  C   C15       1.0  0.28238436360172153  0.1410034922035237  0.3500077290810637  1.0000
  C   C16       1.0  0.9325920165470335  0.35897408245147494  0.6498051142472648  1.0000
  C   C17       1.0  0.5208000571570324  0.7617084805934838  0.6191796717186122  1.0000
  C   C18       1.0  0.9010931388127831  0.7382895284398429  0.3809658880208742  1.0000
  C   C19       1.0  0.479195766289358  0.23828887008431818  0.3808199649634574  1.0000
  C   C20       1.0  0.098908113332989  0.2617101844754899  0.6190362272611196  1.0000
  C   C21       1.0  0.5058750998812086  0.6900444042904326  0.6717078040836739  1.0000
  C   C22       1.0  0.8333308427095004  0.8099280897348397  0.328411108757706  1.0000
  C   C23       1.0  0.49412872496468907  0.3099545317117745  0.3282917116360835  1.0000
  C   C24       1.0  0.16667310837967617  0.19007242188676088  0.671589953156591  1.0000
  N   N1        1.0  0.008352772162759018  0.8350500123811103  0.876120955966961  1.0000
  N   N2        1.0  0.13209399804214428  0.6649851829790947  0.12407369747765529  1.0000
  N   N3        1.0  0.991648570028886  0.1649505074978492  0.1238787555472385  1.0000
  N   N4        1.0  0.8679127782337301  0.3350177029681874  0.8759278572634628  1.0000
  Cl  Cl1       1.0  0.7303241538909615  0.9436283992470536  0.5774951410798579  1.0000
  Cl  Cl2       1.0  0.15247885001709693  0.556376405382565  0.4227054958059852  1.0000
  Cl  Cl3       1.0  0.26966637248418124  0.056368168643409385  0.4225029278237997  1.0000
  Cl  Cl4       1.0  0.8475169210773429  0.44362016514710945  0.577292097032796  1.0000
  O   O1        1.0  0.6947759896317648  0.6387863770616138  0.8057042106443076  1.0000
  O   O2        1.0  0.8879254651601511  0.8611469170143238  0.19440386391757158  1.0000
  O   O3        1.0  0.3052330637788785  0.3612125500874442  0.1942967351296119  1.0000
  O   O4        1.0  0.11206289955381979  0.1388551776321876  0.8055976308938426  1.0000
  O   O5        1.0  0.1672287441848752  0.925199630602826  0.9075272701710729  1.0000
  O   O6        1.0  0.25972262056495043  0.5748404201483269  0.09265849951675877  1.0000
  O   O7        1.0  0.8327648867877853  0.0748024820060493  0.09247120708342038  1.0000
  O   O8        1.0  0.7402841610957721  0.4251624696297398  0.9073424198513464  1.0000
  O   O9        1.0  0.704373126648491  0.7498850136821532  0.9999990385590961  1.0000
  O   O10       1.0  0.2956284156777897  0.2501178772874866  1.7215008795989066e-06  1.0000
