data_image0
_chemical_formula_structural       Yb2P2H22C18S2N2O18
_chemical_formula_sum              "Yb2 P2 H22 C18 S2 N2 O18"
_cell_length_a       6.687008236057168
_cell_length_b       7.456830894870624
_cell_length_c       13.2806406928806
_cell_angle_alpha    90.64951379539784
_cell_angle_beta     93.31410000595493
_cell_angle_gamma    101.99379852055776

_space_group_name_H-M_alt    "P 1"
_space_group_IT_number       1

loop_
  _space_group_symop_operation_xyz
  'x, y, z'

loop_
  _atom_site_type_symbol
  _atom_site_label
  _atom_site_symmetry_multiplicity
  _atom_site_fract_x
  _atom_site_fract_y
  _atom_site_fract_z
  _atom_site_occupancy
  Yb  Yb1       1.0  0.2837973849252933  0.7687204874532083  0.4558022781569875  1.0000
  Yb  Yb2       1.0  0.716200738521195  0.2312790643547373  0.5441969459822786  1.0000
  P   P1        1.0  0.2536680335303457  0.38544783761143003  0.6187472419524979  1.0000
  P   P2        1.0  0.7463331721693437  0.6145517339566452  0.3812527363959433  1.0000
  H   H1        1.0  0.16730452537640872  0.10316250454143015  0.773064265074261  1.0000
  H   H2        1.0  0.8326937862376698  0.8968371096652774  0.22693646796953706  1.0000
  H   H3        1.0  0.1661904198792428  0.12227585987596255  0.9608598366946381  1.0000
  H   H4        1.0  0.8338069516371575  0.8777264708626402  0.03914014376780269  1.0000
  H   H5        1.0  0.21413017083750668  0.3180351841750521  0.12047822193658667  1.0000
  H   H6        1.0  0.7858702829320949  0.6819671663236804  0.879522512735029  1.0000
  H   H7        1.0  0.27223004434345205  0.6287646737933414  0.199822115251358  1.0000
  H   H8        1.0  0.7277705452939713  0.3712389853124591  0.8001771113904039  1.0000
  H   H9        1.0  0.3278602975048699  0.9032898467939318  0.0960920943589585  1.0000
  H   H10       1.0  0.6721413680980461  0.09671240438704129  0.903906376834307  1.0000
  H   H11       1.0  0.3341453008232946  0.8750441707508256  0.9072151438897292  1.0000
  H   H12       1.0  0.665857858864328  0.12495807471051278  0.09278332718199778  1.0000
  H   H13       1.0  0.3129908623778803  0.6804224796137034  0.765372898060505  1.0000
  H   H14       1.0  0.687010573273426  0.3195784317608171  0.23462632671035513  1.0000
  H   H15       1.0  0.2309883627382092  0.39447997721736516  0.3455883709483345  1.0000
  H   H16       1.0  0.769009854792074  0.6055196057899649  0.6544116076432045  1.0000
  H   H17       1.0  0.022734832825399585  0.4193873997290324  0.3881307747569238  1.0000
  H   H18       1.0  0.9772648787895902  0.5806121775586703  0.6118692037130629  1.0000
  H   H19       1.0  0.23445155715319993  0.9213731061480316  0.6444045446227946  1.0000
  H   H20       1.0  0.7655481544617828  0.07862647113967107  0.35559543384719217  1.0000
  H   H21       1.0  0.1099268378523135  0.036860769675321585  0.5745526712116414  1.0000
  H   H22       1.0  0.8900713796779697  0.9631388133320014  0.42544730737989056  1.0000
  C   C1        1.0  0.24058953252939827  0.3959739880999392  0.7568681049743944  1.0000
  C   C2        1.0  0.7594116731702912  0.6040255834681358  0.24313187337405398  1.0000
  C   C3        1.0  0.1975170821921139  0.23471322623350221  0.8129894409805088  1.0000
  C   C4        1.0  0.8024842175913705  0.7652863765339575  0.18701129182019824  1.0000
  C   C5        1.0  0.19682678562327277  0.24635354049058114  0.9165507082280726  1.0000
  C   C6        1.0  0.8031717559424223  0.7536474135225788  0.08344927123814469  1.0000
  C   C7        1.0  0.23464081663045988  0.4185800045504279  0.9675545274115933  1.0000
  C   C8        1.0  0.7653604831530247  0.5814195982170317  0.03244620538911389  1.0000
  C   C9        1.0  0.23705468379007746  0.43929722078337347  0.0738268278338836  1.0000
  C   C10       1.0  0.7629445999302362  0.560706506440816  0.9261739078339488  1.0000
  C   C11       1.0  0.2711497950111053  0.6116869836453489  0.1182908140430357  1.0000
  C   C12       1.0  0.7288511186617299  0.38831804646627416  0.8817084134734043  1.0000
  C   C13       1.0  0.3035601997029289  0.7693662967369264  0.05824261983632079  1.0000
  C   C14       1.0  0.6964413300321725  0.23063464583697874  0.9417573593867984  1.0000
  C   C15       1.0  0.3054303508789218  0.7551958021577152  0.9545250392746211  1.0000
  C   C16       1.0  0.6945724847732822  0.24480507229780094  0.045473430922427796  1.0000
  C   C17       1.0  0.2715037484489358  0.5790338939943496  0.9083391960022452  1.0000
  C   C18       1.0  0.7285005395039618  0.42096569733386235  0.091661536555371  1.0000
  S   S1        1.0  0.3904870260644203  0.07711650921967109  0.3107590212806031  1.0000
  S   S2        1.0  0.6095127796343648  0.9228830992674161  0.6892417116416567  1.0000
  N   N1        1.0  0.27390176805108263  0.5585450740379726  0.8055452842279536  1.0000
  N   N2        1.0  0.7260994376486067  0.4414544975301096  0.1944546941204877  1.0000
  O   O1        1.0  0.2541548607457074  0.5814658356930876  0.585743205932168  1.0000
  O   O2        1.0  0.7458449449530774  0.41853377279399934  0.4142575269900846  1.0000
  O   O3        1.0  0.44673851454894736  0.3162258204989215  0.6023929450991048  1.0000
  O   O4        1.0  0.5532622730315352  0.6837723488639467  0.3976062779223993  1.0000
  O   O5        1.0  0.05806852449453709  0.24955770879972045  0.5819601603794382  1.0000
  O   O6        1.0  0.9419295989519443  0.7504418430082253  0.418039063759835  1.0000
  O   O7        1.0  0.2608251874927276  0.8914039460550426  0.29010342176486853  1.0000
  O   O8        1.0  0.739174618206057  0.1085956624320445  0.7098973111573841  1.0000
  O   O9        1.0  0.4297971052203451  0.08393334068779269  0.424731264228562  1.0000
  O   O10       1.0  0.5702041945631393  0.9160662620796668  0.5752694685721521  1.0000
  O   O11       1.0  0.2900631689582127  0.22411726192324716  0.2758952047742511  1.0000
  O   O12       1.0  0.7099347245366587  0.7758809500782533  0.72410477294261  1.0000
  O   O13       1.0  0.5904267071425408  0.0943066040844869  0.2621965757821556  1.0000
  O   O14       1.0  0.4095715103877423  0.9056929789228432  0.7378034028093836  1.0000
  O   O15       1.0  0.15885907467826138  0.48760892269208955  0.3716305489313924  1.0000
  O   O16       1.0  0.8411406369367286  0.5123906545956131  0.6283694295385941  1.0000
  O   O17       1.0  0.14383634692589448  0.9134005755730925  0.5818287400843117  1.0000
  O   O18       1.0  0.8561618706043889  0.08659900743423778  0.4181712385072273  1.0000
