data_image0
_chemical_formula_structural       Zn4H52C76N20O16
_chemical_formula_sum              "Zn4 H52 C76 N20 O16"
_cell_length_a       15.909335119306093
_cell_length_b       24.470829426237362
_cell_length_c       24.344152858747503
_cell_angle_alpha    89.98002298525788
_cell_angle_beta     86.90716232423799
_cell_angle_gamma    90.18492546997349

_space_group_name_H-M_alt    "P 1"
_space_group_IT_number       1

loop_
  _space_group_symop_operation_xyz
  'x, y, z'

loop_
  _atom_site_type_symbol
  _atom_site_label
  _atom_site_symmetry_multiplicity
  _atom_site_fract_x
  _atom_site_fract_y
  _atom_site_fract_z
  _atom_site_occupancy
  Zn  Zn1       1.0  0.5877874598955372  0.9999275809469166  0.5014529595376302  1.0000
  Zn  Zn2       1.0  0.412228059959638  0.9996413788772568  0.4985894550742956  1.0000
  Zn  Zn3       1.0  0.5877927780379293  0.49992428253824517  0.0015713403052260036  1.0000
  Zn  Zn4       1.0  0.41211244700296124  0.4994503413425446  0.9984899372230559  1.0000
  H   H1        1.0  0.620565198340948  0.13699872297035395  0.6090423476852109  1.0000
  H   H2        1.0  0.3845867895999858  0.784721254540379  0.32308429259303045  1.0000
  H   H3        1.0  0.39314602039979724  0.1708048840579579  0.27868455876507886  1.0000
  H   H4        1.0  0.6068440447782281  0.8289506580496774  0.7215758416119655  1.0000
  H   H5        1.0  0.606818383106031  0.6712733474473253  0.221528165953977  1.0000
  H   H6        1.0  0.39369341473495467  0.32889641011822573  0.7780968646190516  1.0000
  H   H7        1.0  0.3844750534972832  0.7148156460323773  0.8235972765919328  1.0000
  H   H8        1.0  0.6150511695784926  0.28523485440364726  0.17668678673103244  1.0000
  H   H9        1.0  0.6547536855005945  0.791137419328066  0.3163009732423916  1.0000
  H   H10       1.0  0.3455172539998729  0.20877460228592065  0.6835053033440986  1.0000
  H   H11       1.0  0.3419264823365396  0.808434676459825  0.7019223289883243  1.0000
  H   H12       1.0  0.379520864719936  0.8626973413967601  0.39072758918769784  1.0000
  H   H13       1.0  0.6580727085102396  0.19136788505076643  0.2982502543946026  1.0000
  H   H14       1.0  0.6583683290423821  0.30880324220272115  0.7982244779873754  1.0000
  H   H15       1.0  0.3421323669408806  0.691126231851719  0.20131430302846104  1.0000
  H   H16       1.0  0.34486032254727655  0.29043242350498827  0.1839625792340698  1.0000
  H   H17       1.0  0.6546402571221108  0.708851843427226  0.8162444548696615  1.0000
  H   H18       1.0  0.6492756089448762  0.8694971856474892  0.3840314570393702  1.0000
  H   H19       1.0  0.35080817218471344  0.13025114392096526  0.6159714590440757  1.0000
  H   H20       1.0  0.3492345484266863  0.8774108443793833  0.6245066581609608  1.0000
  H   H21       1.0  0.6508917644622515  0.1223089097117054  0.3755847641892487  1.0000
  H   H22       1.0  0.6511423584363597  0.3776681932540596  0.8756489427834708  1.0000
  H   H23       1.0  0.3861509036597041  0.1025012562598917  0.3562269826887174  1.0000
  H   H24       1.0  0.3494592313819282  0.6220063564539869  0.1240868823567141  1.0000
  H   H25       1.0  0.3499682600301881  0.3687553646812276  0.11613756425396823  1.0000
  H   H26       1.0  0.6490419968909862  0.6303110214770342  0.8838275399258181  1.0000
  H   H27       1.0  0.7353045105723409  0.9978520670725285  0.4215210715460316  1.0000
  H   H28       1.0  0.2646615316101304  0.0018446546988570998  0.5784407073414215  1.0000
  H   H29       1.0  0.7353456107428471  0.49642002255873047  0.922021476534617  1.0000
  H   H30       1.0  0.2646084656073527  0.4977034616229332  0.07824241011950053  1.0000
  H   H31       1.0  0.8941512733556677  0.9979892552416414  0.4250622482596711  1.0000
  H   H32       1.0  0.10583173085359479  0.0019150851489370998  0.5748627628362257  1.0000
  H   H33       1.0  0.8941702746071483  0.49823185075720017  0.9254784882189426  1.0000
  H   H34       1.0  0.6139555495912601  0.897131424277724  0.6439230561992276  1.0000
  H   H35       1.0  0.10580641726147627  0.4996859758366768  0.07478598975072262  1.0000
  H   H36       1.0  0.2964138798515706  0.9971044292506404  0.4087196174513679  1.0000
  H   H37       1.0  0.7036363604141371  0.0025417076232158993  0.5912511947968611  1.0000
  H   H38       1.0  0.29632389293971767  0.5039136072840406  0.9085740003954897  1.0000
  H   H39       1.0  0.7036510204971407  0.5063320040940836  0.0915055116435113  1.0000
  H   H40       1.0  0.17042921533577982  0.991466840062408  0.35277981273495135  1.0000
  H   H41       1.0  0.0692124429063554  0.9940553435921443  0.3842142729962034  1.0000
  H   H42       1.0  0.8296856969320743  0.0085790337186822  0.6471422908946778  1.0000
  H   H43       1.0  0.9308764367270898  0.006106159498308701  0.6156557125297867  1.0000
  H   H44       1.0  0.17054490509506337  0.5081631636810399  0.8523940833369112  1.0000
  H   H45       1.0  0.6139483717950255  0.6029902232175032  0.14404198567953594  1.0000
  H   H46       1.0  0.06908232456071768  0.5085017543994325  0.8840164816382342  1.0000
  H   H47       1.0  0.8295934868307453  0.508858863907612  0.14766955715336394  1.0000
  H   H48       1.0  0.9309441956741652  0.5093566605795627  0.11605454208896761  1.0000
  H   H49       1.0  0.38666067223792305  0.39697527903729934  0.8557785618682701  1.0000
  H   H50       1.0  0.37930030376111284  0.6366729033433456  0.8911016803851481  1.0000
  H   H51       1.0  0.6197613824855067  0.3632238881566536  0.1090204798530579  1.0000
  H   H52       1.0  0.6157058186896053  0.21510623560102718  0.6765092951908898  1.0000
  C   C1        1.0  0.5126153256532289  0.06873889335650318  0.4171389502769004  1.0000
  C   C2        1.0  0.8900752793106576  0.0005005233557753002  0.5136963192782957  1.0000
  C   C3        1.0  0.10988243403275529  0.5034726338748925  0.986203762895272  1.0000
  C   C4        1.0  0.8901214700027039  0.5038200854989794  0.013965659996721105  1.0000
  C   C5        1.0  0.163780248137293  0.9979895109963048  0.4374792496584377  1.0000
  C   C6        1.0  0.8362631234456899  0.0019022232226219996  0.5624576592930453  1.0000
  C   C7        1.0  0.16371412855158235  0.504859996522839  0.9374239951929371  1.0000
  C   C8        1.0  0.8362974549963481  0.5062393195382099  0.06268368032351651  1.0000
  C   C9        1.0  0.25149277518058  0.9980915843818108  0.44425382154015136  1.0000
  C   C10       1.0  0.7485538742550162  0.0016244288540932  0.5557113503660746  1.0000
  C   C11       1.0  0.25142736909694463  0.5031505361719792  0.9441249306759618  1.0000
  C   C12       1.0  0.48749187406829  0.9308594766463331  0.5829211091161  1.0000
  C   C13       1.0  0.7485716118495559  0.5046529989445714  0.05599732931936792  1.0000
  C   C14       1.0  0.5140347316755154  0.8709631671816991  0.39050911259988663  1.0000
  C   C15       1.0  0.4860480505666729  0.1287680209214912  0.6093591060927963  1.0000
  C   C16       1.0  0.4821120137301945  0.8909419152790503  0.6297643836380261  1.0000
  C   C17       1.0  0.5180222804017162  0.10868998868080126  0.37031979762145545  1.0000
  C   C18       1.0  0.518384732135388  0.3909839783184878  0.8701838419905814  1.0000
  C   C19       1.0  0.48220161049770377  0.6087518306107781  0.12968230053771632  1.0000
  C   C20       1.0  0.4852229270321898  0.3708483767136599  0.1094069853619146  1.0000
  C   C21       1.0  0.5137876094872451  0.6286429952246877  0.8906221134708829  1.0000
  C   C22       1.0  0.4392777468297737  0.8467682099702998  0.3737044834119062  1.0000
  C   C23       1.0  0.4901776571147636  0.08157957749263288  0.5699528572799082  1.0000
  C   C24       1.0  0.5608393581022353  0.15299449994922296  0.6260499993575905  1.0000
  C   C25       1.0  0.5547746224548291  0.8774736572287621  0.6572765222068426  1.0000
  C   C26       1.0  0.44532308183596575  0.12217209316758469  0.34285984803065617  1.0000
  C   C27       1.0  0.4457738238900504  0.3774241808772273  0.8425302285195144  1.0000
  C   C28       1.0  0.5547929488315121  0.6224901973166864  0.15727822271962574  1.0000
  C   C29       1.0  0.5600663211018428  0.34699801196941854  0.1261109553202004  1.0000
  C   C30       1.0  0.4390944561799656  0.6527493194291549  0.8740061896579762  1.0000
  C   C31       1.0  0.4418712438622875  0.8038068734545404  0.3365720551836588  1.0000
  C   C32       1.0  0.5583614747388382  0.19603934047808014  0.6630839678344387  1.0000
  C   C33       1.0  0.5511275826098725  0.8398544439441832  0.6999279354283844  1.0000
  C   C34       1.0  0.509776231008864  0.9180533791380652  0.4300253703715314  1.0000
  C   C35       1.0  0.4489008774225454  0.15984352994865247  0.300269130994252  1.0000
  C   C36       1.0  0.4493763461221576  0.33987824791255145  0.799856977261186  1.0000
  C   C37       1.0  0.5511431889856053  0.6601640091377377  0.19982573048636001  1.0000
  C   C38       1.0  0.5576765786231305  0.30403264845224237  0.16328029013318715  1.0000
  C   C39       1.0  0.4417359520520988  0.6958068775133054  0.8369469165118916  1.0000
  C   C40       1.0  0.5203019570772369  0.7843266451975166  0.3153993314645902  1.0000
  C   C41       1.0  0.47998372340332196  0.21558541204465337  0.684289368082169  1.0000
  C   C42       1.0  0.47384476023479744  0.8145177101734544  0.715474204348702  1.0000
  C   C43       1.0  0.5261542192671627  0.18521742044796946  0.2847181157708293  1.0000
  C   C44       1.0  0.526558826249989  0.3146705235892711  0.7844522827980712  1.0000
  C   C45       1.0  0.5093895115556037  0.5814933880285479  0.9301137994183081  1.0000
  C   C46       1.0  0.4739034004679255  0.685309567212883  0.2151753041386258  1.0000
  C   C47       1.0  0.47934446930042185  0.2842065069984726  0.1846374874818792  1.0000
  C   C48       1.0  0.520185918514258  0.7154741727201566  0.8156263718527514  1.0000
  C   C49       1.0  0.595066095026958  0.8075648226667762  0.33300860001253346  1.0000
  C   C50       1.0  0.4051702157375912  0.192318152739709  0.6667701153613309  1.0000
  C   C51       1.0  0.4008690081969917  0.8285514868313153  0.6887268914763143  1.0000
  C   C52       1.0  0.5991622032693796  0.1711930850793806  0.31141749270920377  1.0000
  C   C53       1.0  0.5994926660027886  0.3288020903211047  0.8113199901178022  1.0000
  C   C54       1.0  0.401008946567856  0.6710807813825351  0.18831981895975503  1.0000
  C   C55       1.0  0.4044722037511477  0.3071113601758384  0.16713407526573584  1.0000
  C   C56       1.0  0.4893056963267597  0.4179580191632013  0.06986409635567269  1.0000
  C   C57       1.0  0.5949141987087004  0.6922978379684535  0.8330419369250565  1.0000
  C   C58       1.0  0.5919385801618304  0.8507335849425243  0.3702057273386927  1.0000
  C   C59       1.0  0.40819530036052504  0.14905895205384917  0.629679212333322  1.0000
  C   C60       1.0  0.40500454470286223  0.8664846461515692  0.6461153512943981  1.0000
  C   C61       1.0  0.5950883089899789  0.1332105505179513  0.3539932435717646  1.0000
  C   C62       1.0  0.5954057951992765  0.3666838372918376  0.8539440713482522  1.0000
  C   C63       1.0  0.4051588285401663  0.6330695408460655  0.14580286624430983  1.0000
  C   C64       1.0  0.40740709822555493  0.35026611531816326  0.1298642607903275  1.0000
  C   C65       1.0  0.5917275539272849  0.6490271912220533  0.8701741718776077  1.0000
  C   C66       1.0  0.23299738203535716  0.0009382198205045998  0.5398875328230446  1.0000
  C   C67       1.0  0.48774006308329376  0.5687289483323923  0.08296266144957092  1.0000
  C   C68       1.0  0.7669933160421607  0.9987965336318111  0.4600680532911738  1.0000
  C   C69       1.0  0.23293532251633312  0.49957010889807657  0.0397457293763637  1.0000
  C   C70       1.0  0.7670293465691954  0.4992965989212549  0.9604725715079994  1.0000
  C   C71       1.0  0.14656875712567796  0.0009838688208319  0.5375414281595283  1.0000
  C   C72       1.0  0.8534248546962572  0.9988894241944661  0.46239061865447445  1.0000
  C   C73       1.0  0.14652663402218744  0.500857657277585  0.0374595109877518  1.0000
  C   C74       1.0  0.8534583892015275  0.5003788360655717  0.9627556088611231  1.0000
  C   C75       1.0  0.5130557882854206  0.4308574901402408  0.9170598102840871  1.0000
  C   C76       1.0  0.10993739499228637  0.9994357238174485  0.4862252035835155  1.0000
  N   N1        1.0  0.5308414529406703  0.7424468638887729  0.27578456113803906  1.0000
  N   N2        1.0  0.7160875393473985  0.0001251799826463002  0.5065417552372794  1.0000
  N   N3        1.0  0.2838447481396713  0.5006069614815586  0.9932575023593132  1.0000
  N   N4        1.0  0.7161006611113407  0.5013626171138126  0.006907496626801893  1.0000
  N   N5        1.0  0.024038071561605496  0.9985446554133474  0.4781020219840002  1.0000
  N   N6        1.0  0.9759804293922301  0.0014455419165955  0.5218069679351772  1.0000
  N   N7        1.0  0.023993754816622494  0.50440291913538  0.9781525939734124  1.0000
  N   N8        1.0  0.9760338935067168  0.504357694945206  0.022031769003284303  1.0000
  N   N9        1.0  0.13231611610903118  0.9974543646317926  0.3867835703863562  1.0000
  N   N10       1.0  0.867769049115317  0.002528544856794199  0.6131420297383771  1.0000
  N   N11       1.0  0.13229665735640586  0.5077918648128871  0.8868719134814428  1.0000
  N   N12       1.0  0.46952055744854704  0.25750900444914737  0.7238772762428028  1.0000
  N   N13       1.0  0.8677324628182036  0.5105802316181638  0.11316853060635172  1.0000
  N   N14       1.0  0.46303041898931946  0.7738267197335206  0.7564089378027462  1.0000
  N   N15       1.0  0.5368458678158701  0.22594056163267595  0.24379826552520004  1.0000
  N   N16       1.0  0.5372905157443172  0.27400648968681907  0.7435589347632144  1.0000
  N   N17       1.0  0.4630981857578576  0.725987832190789  0.2560317372329166  1.0000
  N   N18       1.0  0.46899004215947565  0.2423049766245881  0.22432556542834456  1.0000
  N   N19       1.0  0.5307833110328845  0.7574376557091823  0.776004298625729  1.0000
  N   N20       1.0  0.283930569219592  0.9995143833175886  0.4934355005392633  1.0000
  O   O1        1.0  0.5816129274406163  0.05416511827699819  0.4369098173918431  1.0000
  O   O2        1.0  0.5608571088324865  0.9468092224224163  0.5662757220559698  1.0000
  O   O3        1.0  0.5631957840689665  0.06342827620122898  0.5559039949524802  1.0000
  O   O4        1.0  0.4367434942442045  0.9360321891072089  0.4442234662594445  1.0000
  O   O5        1.0  0.4363453319040005  0.5629152229551619  0.9438391173898283  1.0000
  O   O6        1.0  0.5623353972744242  0.43607779673681063  0.0553535421913907  1.0000
  O   O7        1.0  0.5611299278554186  0.5527973873245954  0.0667107946999081  1.0000
  O   O8        1.0  0.43967464705589515  0.44626098580893353  0.9338898469610585  1.0000
  O   O9        1.0  0.4184879558199981  0.9454941208311921  0.5632272629066862  1.0000
  O   O10       1.0  0.42072759572900503  0.06327145510346809  0.5536683643352447  1.0000
  O   O11       1.0  0.5792335797481271  0.9364518315774076  0.44624756969991364  1.0000
  O   O12       1.0  0.5787100914560311  0.5636533194479724  0.9468060871243653  1.0000
  O   O13       1.0  0.4197686609315454  0.43625746118526354  0.053928407472092516  1.0000
  O   O14       1.0  0.4188925917930603  0.5540010573226437  0.0629586266534545  1.0000
  O   O15       1.0  0.5821112204365944  0.44598289710980754  0.9365505623701937  1.0000
  O   O16       1.0  0.43926704358237595  0.0527098990820534  0.43371558120507103  1.0000
