data_image0
_chemical_formula_structural       Zn2H18C62N4Cl14O22
_chemical_formula_sum              "Zn2 H18 C62 N4 Cl14 O22"
_cell_length_a       14.557569441642501
_cell_length_b       15.198634994935874
_cell_length_c       27.770954586914332
_cell_angle_alpha    92.37866269201147
_cell_angle_beta     89.83412776417846
_cell_angle_gamma    89.63031507473534

_space_group_name_H-M_alt    "P 1"
_space_group_IT_number       1

loop_
  _space_group_symop_operation_xyz
  'x, y, z'

loop_
  _atom_site_type_symbol
  _atom_site_label
  _atom_site_symmetry_multiplicity
  _atom_site_fract_x
  _atom_site_fract_y
  _atom_site_fract_z
  _atom_site_occupancy
  Zn  Zn1       1.0  0.3978256820952595  0.5009548576534613  0.4998026414201745  1.0000
  Zn  Zn2       1.0  0.6075647281557864  0.5027170259439872  0.4993792164010387  1.0000
  H   H1        1.0  0.609060132859362  0.44246837990659327  0.7390519523578973  1.0000
  H   H2        1.0  0.6021217164990204  0.5496009736365793  0.25782214257684183  1.0000
  H   H3        1.0  0.26973697246504  0.46406242734951064  0.03303213051836449  1.0000
  H   H4        1.0  0.7288719338189934  0.5130309675620311  0.9670093998981955  1.0000
  H   H5        1.0  0.4773202977183714  0.0753470210938403  0.5745681983038295  1.0000
  H   H6        1.0  0.5603237166780203  0.9501960282791801  0.5784963636955922  1.0000
  H   H7        1.0  0.4820518734414563  0.9322686945289931  0.4282247436295279  1.0000
  H   H8        1.0  0.5731089736247484  0.050574289663437404  0.42696061917170164  1.0000
  H   H9        1.0  0.0111496327614162  0.4382789723814043  0.42216389794064907  1.0000
  H   H10       1.0  0.9925847353747914  0.6474732721222338  0.4806130318924815  1.0000
  H   H11       1.0  0.010434383214459298  0.5637167195005831  0.5760198509301944  1.0000
  H   H12       1.0  0.9945871344552158  0.355038422738602  0.5173062341864919  1.0000
  H   H13       1.0  0.35340135633344977  0.30199240098510677  0.2795160725446734  1.0000
  H   H14       1.0  0.3305157293362129  0.6656315442323475  0.7268065182759216  1.0000
  H   H15       1.0  0.2031909099450573  0.44218353984503284  0.10100558679607018  1.0000
  H   H16       1.0  0.7931595219355216  0.5497341327300306  0.9019610091605441  1.0000
  H   H17       1.0  0.6126968327181929  0.4370650838376022  0.612248998472701  1.0000
  H   H18       1.0  0.6054571941509151  0.5711655236578251  0.3846655924082824  1.0000
  C   C1        1.0  0.5331835345172138  0.3350961544390146  0.4953054305159981  1.0000
  C   C2        1.0  0.5250548431956616  0.6687089267943237  0.5060527211483503  1.0000
  C   C3        1.0  0.47725305880647545  0.4948742179229342  0.40757197175830123  1.0000
  C   C4        1.0  0.47632614617440067  0.5033090347828094  0.5921521329494864  1.0000
  C   C5        1.0  0.4153086189697746  0.46215418750956877  0.18026561338499644  1.0000
  C   C6        1.0  0.5791207113932373  0.5543739579087303  0.8221608361330155  1.0000
  C   C7        1.0  0.5819068264263549  0.4187951533127361  0.1787052893620285  1.0000
  C   C8        1.0  0.4138315173312749  0.510106270040076  0.8215080370156825  1.0000
  C   C9        1.0  0.5546391104362272  0.5100654321963206  0.2780449168448982  1.0000
  C   C10       1.0  0.5561946244471159  0.47898788446432405  0.7206027752286628  1.0000
  C   C11       1.0  0.5515569754774888  0.5211513146604149  0.3282087802855713  1.0000
  C   C12       1.0  0.5539454894601119  0.47408972470927324  0.6702744455056546  1.0000
  C   C13       1.0  0.4320513695655421  0.41090035890118765  0.33005293631030946  1.0000
  C   C14       1.0  0.42127194518260314  0.5714328893037219  0.6726308747842467  1.0000
  C   C15       1.0  0.4400846671477722  0.3945588631172043  0.2801715416508159  1.0000
  C   C16       1.0  0.42764795092130475  0.5819686201640691  0.7228562385509533  1.0000
  C   C17       1.0  0.4991466459191258  0.44845670118322545  0.2543986997592569  1.0000
  C   C18       1.0  0.49367047370215295  0.531498840767114  0.7465479983070367  1.0000
  C   C19       1.0  0.5001068202682717  0.45180444541570364  0.10113880337065949  1.0000
  C   C20       1.0  0.498346664647194  0.5201220558448583  0.8995773395691273  1.0000
  C   C21       1.0  0.415952692278438  0.4543044732089143  0.12741078743483308  1.0000
  C   C22       1.0  0.5811453274782677  0.5344045765535484  0.8738052478003197  1.0000
  C   C23       1.0  0.33361294641940026  0.45365238684038206  0.1015346579464804  1.0000
  C   C24       1.0  0.663261649801754  0.5348465415465  0.9000519667293503  1.0000
  C   C25       1.0  0.5830198039447652  0.43060119721000245  0.1255422344462502  1.0000
  C   C26       1.0  0.41353090087073946  0.5240508867082243  0.8746126555751059  1.0000
  C   C27       1.0  0.48593397835950475  0.47440665731738824  0.3549437437448262  1.0000
  C   C28       1.0  0.48265620496714223  0.5172761478809136  0.645335253043946  1.0000
  C   C29       1.0  0.4132477220232147  0.5061740556308933  0.9761804783739831  1.0000
  C   C30       1.0  0.5855016408012971  0.46439689449963595  0.024102327031044996  1.0000
  C   C31       1.0  0.5838371465314652  0.49124496147412344  0.9738164196448905  1.0000
  C   C32       1.0  0.4153731344213867  0.4829180389961537  0.026767497231752195  1.0000
  C   C33       1.0  0.4977224565295373  0.5035479028828292  0.9498925930755674  1.0000
  C   C34       1.0  0.501220143626888  0.4684594936469963  0.0506991848447171  1.0000
  C   C35       1.0  0.3342895226803861  0.5359482994560097  0.9519653708152092  1.0000
  C   C36       1.0  0.6630870934490575  0.4304784378349639  0.0475516733876944  1.0000
  C   C37       1.0  0.3327278631450383  0.5378123075049857  0.9009792092004644  1.0000
  C   C38       1.0  0.6629850104845829  0.4164915380592974  0.09794649603482948  1.0000
  C   C39       1.0  0.33503042221776985  0.4660317954461279  0.05184684080439441  1.0000
  C   C40       1.0  0.6629979756809091  0.5124145440181708  0.9487275936069395  1.0000
  C   C41       1.0  0.5007057500258938  0.10414817370580212  0.5414715865535982  1.0000
  C   C42       1.0  0.5421865558781961  0.9118679168273546  0.5459530437071578  1.0000
  C   C43       1.0  0.5004471369023306  0.9018400889618549  0.4616943211184577  1.0000
  C   C44       1.0  0.5523164907200169  0.09037829558484842  0.45868104045504765  1.0000
  C   C45       1.0  0.5041392666053781  0.19542563932999  0.5392659610107486  1.0000
  C   C46       1.0  0.541514546540789  0.8203007696810118  0.5469187282446839  1.0000
  C   C47       1.0  0.5004947962246504  0.8104382679420538  0.4633362771848367  1.0000
  C   C48       1.0  0.555038973906143  0.1818033112362727  0.4571067686526645  1.0000
  C   C49       1.0  0.5315890589302583  0.23636558417589984  0.49725732829512026  1.0000
  C   C50       1.0  0.522005211472532  0.7676250088560154  0.5056526824521086  1.0000
  C   C51       1.0  0.5250272688735507  0.050554566191323105  0.5010646286922551  1.0000
  C   C52       1.0  0.5223193164566026  0.9535814837740092  0.5030189118812416  1.0000
  C   C53       1.0  0.9025815375030676  0.4673541680501714  0.4589081403373072  1.0000
  C   C54       1.0  0.1015860632309682  0.5784883386366105  0.4891337825303737  1.0000
  C   C55       1.0  0.9022034175980451  0.5376900766342773  0.5390411224568084  1.0000
  C   C56       1.0  0.10259137907570448  0.4242022730886178  0.5085750260618482  1.0000
  C   C57       1.0  0.8058811584544614  0.4697606158468943  0.4604784705588827  1.0000
  C   C58       1.0  0.19824628062610827  0.574909812439195  0.4885584368893276  1.0000
  C   C59       1.0  0.8055255622235437  0.5381842170597083  0.5371335109953463  1.0000
  C   C60       1.0  0.19920694557469426  0.42784663696518516  0.5088091403972825  1.0000
  C   C61       1.0  0.9513102159796248  0.5018227315633794  0.49904767756495255  1.0000
  C   C62       1.0  0.0531642797752738  0.5013804147762428  0.49898820976241604  1.0000
  N   N1        1.0  0.4990906052000171  0.44135706819103143  0.20270326893456309  1.0000
  N   N2        1.0  0.49513363013225126  0.5345892507330915  0.7981638261998254  1.0000
  N   N3        1.0  0.7601079961845728  0.5045604255821489  0.49874546622073973  1.0000
  N   N4        1.0  0.2444035898765762  0.5014575670360416  0.4987929482498998  1.0000
  Cl  Cl1       1.0  0.35555044442978095  0.34420647121081777  0.3594110712083562  1.0000
  Cl  Cl2       1.0  0.33687641769170545  0.6343918995687331  0.6461207007953361  1.0000
  Cl  Cl3       1.0  0.47371725463369074  0.2590416734865499  0.5900646135525703  1.0000
  Cl  Cl4       1.0  0.565122829922167  0.7707314927437708  0.6006157046923588  1.0000
  Cl  Cl5       1.0  0.4742800537471084  0.7487249238635415  0.4114000105548072  1.0000
  Cl  Cl6       1.0  0.5869608681979274  0.2284781174512602  0.4037599690493677  1.0000
  Cl  Cl7       1.0  0.7467642632727731  0.4283495827077389  0.4119137803243191  1.0000
  Cl  Cl8       1.0  0.257228594746671  0.666331125727858  0.4738199205815191  1.0000
  Cl  Cl9       1.0  0.7459863879628587  0.5822275930339205  0.5852912791187137  1.0000
  Cl  Cl10      1.0  0.25988874679053  0.3361181940671046  0.5223937444639901  1.0000
  Cl  Cl11      1.0  0.23193929836105556  0.5626802282746012  0.8727598459549029  1.0000
  Cl  Cl12      1.0  0.7635124390609391  0.3812667674110274  0.12280061390511317  1.0000
  Cl  Cl13      1.0  0.2381095182528412  0.578136045733075  0.9816906634585861  1.0000
  Cl  Cl14      1.0  0.7607306776320469  0.3958222182537342  0.0163851578814018  1.0000
  O   O1        1.0  0.4562606093070372  0.3731877148428496  0.49333759606533784  1.0000
  O   O2        1.0  0.6050741008230602  0.6341423159767388  0.5044528455306363  1.0000
  O   O3        1.0  0.4491654374849007  0.6294880562359779  0.507540410962946  1.0000
  O   O4        1.0  0.6121461010011728  0.3710342850307953  0.495879911413418  1.0000
  O   O5        1.0  0.398596758664631  0.49322481753467434  0.427389785528554  1.0000
  O   O6        1.0  0.5528712866771172  0.4893577893081372  0.5697309691635297  1.0000
  O   O7        1.0  0.3979645146089795  0.5033108370189511  0.5721347680327894  1.0000
  O   O8        1.0  0.5519697396482711  0.5160452096771307  0.4296734504778499  1.0000
  O   O9        1.0  0.3490650479275743  0.4885723707365274  0.20428610980543738  1.0000
  O   O10       1.0  0.6445141829691752  0.5830486255133424  0.799883679466788  1.0000
  O   O11       1.0  0.34959597217947186  0.47688653351963245  0.7990130184619985  1.0000
  O   O12       1.0  0.6480245309320124  0.39409245299501094  0.20205040468116656  1.0000
  O   O13       1.0  0.9445091250778361  0.4324514385223139  0.4189266942412502  1.0000
  O   O14       1.0  0.05923949222188439  0.6553995174120999  0.4798036891588637  1.0000
  O   O15       1.0  0.9438479982273053  0.5715980619974135  0.5790756550667311  1.0000
  O   O16       1.0  0.06135204160080579  0.3471559111223996  0.5178392756573231  1.0000
  O   O17       1.0  0.39315916801626843  0.3296491643884778  0.25598916957842727  1.0000
  O   O18       1.0  0.37308803266937923  0.638693441051629  0.7493179933618845  1.0000
  O   O19       1.0  0.25287222770199946  0.4408142033919519  0.12444734498517818  1.0000
  O   O20       1.0  0.7436765374815976  0.5550686342938462  0.8786268328231299  1.0000
  O   O21       1.0  0.619694946097205  0.4249441875716827  0.647075448477615  1.0000
  O   O22       1.0  0.6103245408336732  0.5797584462334557  0.34941714607137436  1.0000
