data_image0
_chemical_formula_structural       H52Pb2C28O8
_chemical_formula_sum              "H52 Pb2 C28 O8"
_cell_length_a       4.780648241461306
_cell_length_b       7.470176471555542
_cell_length_c       22.911628793742988
_cell_angle_alpha    86.20781181107557
_cell_angle_beta     98.25883361661468
_cell_angle_gamma    99.12188174897909

_space_group_name_H-M_alt    "P 1"
_space_group_IT_number       1

loop_
  _space_group_symop_operation_xyz
  'x, y, z'

loop_
  _atom_site_type_symbol
  _atom_site_label
  _atom_site_symmetry_multiplicity
  _atom_site_fract_x
  _atom_site_fract_y
  _atom_site_fract_z
  _atom_site_occupancy
  H   H1        1.0  0.588733315522525  0.9044556098440639  0.1295983139748955  1.0000
  H   H2        1.0  0.411234755616711  0.09552860652157591  0.8704039118843241  1.0000
  H   H3        1.0  0.5910490327438324  0.6653565685254961  0.129827406015707  1.0000
  H   H4        1.0  0.4089340195383855  0.3346297650216385  0.8701730126984728  1.0000
  H   H5        1.0  0.08315928087338881  0.8430073643460647  0.1533482477273012  1.0000
  H   H6        1.0  0.9167899986131189  0.15696557510461423  0.8466526955936118  1.0000
  H   H7        1.0  0.09948802067179945  0.6074277836077047  0.1587228916354491  1.0000
  H   H8        1.0  0.9005186086813168  0.39254353971090694  0.8412856855786686  1.0000
  H   H9        1.0  0.4893352933397566  0.8914862809021855  0.23601649557609508  1.0000
  H   H10       1.0  0.510637429624957  0.1085316044522529  0.7639764253374822  1.0000
  H   H11       1.0  0.48559249082259015  0.6550905323397844  0.24507121631418022  1.0000
  H   H12       1.0  0.5144290111273406  0.34493730056502875  0.7549312114083335  1.0000
  H   H13       1.0  0.9682556683147396  0.8458848691759115  0.2503321686469491  1.0000
  H   H14       1.0  0.0317375012392702  0.15411099873600162  0.7496701917818315  1.0000
  H   H15       1.0  0.9785934184173118  0.6136858298172854  0.265185797532709  1.0000
  H   H16       1.0  0.021419600281625217  0.3863127585679465  0.7348218693571765  1.0000
  H   H17       1.0  0.34671090718551784  0.6826080778017527  0.35317578640076874  1.0000
  H   H18       1.0  0.6533236518021255  0.31743488685805243  0.6468277444730006  1.0000
  H   H19       1.0  0.3558497457836012  0.9161892209130684  0.33632874732230533  1.0000
  H   H20       1.0  0.6441440203862427  0.08383973266937522  0.6636677012745622  1.0000
  H   H21       1.0  0.8355450912822349  0.8888344144482759  0.35108862530998414  1.0000
  H   H22       1.0  0.1644656340327444  0.11119155102925055  0.6489148442450698  1.0000
  H   H23       1.0  0.050089363610212004  0.8188017719979115  0.4156357938032613  1.0000
  H   H24       1.0  0.9499496154842079  0.18124279664588266  0.5843669672729561  1.0000
  H   H25       1.0  0.8306602180823007  0.6553152809564793  0.3697354592730733  1.0000
  H   H26       1.0  0.1693805940974187  0.3447091327804301  0.6302779864200971  1.0000
  H   H27       1.0  0.675574638462031  0.41260819760996265  0.20605292482649423  1.0000
  H   H28       1.0  0.32445072401458214  0.5874052801806754  0.7939470903622733  1.0000
  H   H29       1.0  0.5344871528689766  0.18315264283846494  0.2089142379954652  1.0000
  H   H30       1.0  0.46552737527198224  0.8168320214955784  0.791087019348204  1.0000
  H   H31       1.0  0.15374024683376317  0.34117960167977657  0.2580020829747767  1.0000
  H   H32       1.0  0.846282275660002  0.6588046526849922  0.7419941444939795  1.0000
  H   H33       1.0  0.011509662735917902  0.11136911854036669  0.26279597409808286  1.0000
  H   H34       1.0  0.9885156127753802  0.888632851999496  0.7371993191312143  1.0000
  H   H35       1.0  0.6784109423410528  0.17028057722978926  0.3304681807827592  1.0000
  H   H36       1.0  0.321622406553793  0.829705433374251  0.6695278807872  1.0000
  H   H37       1.0  0.776530766924445  0.40566113431464856  0.32052002619242614  1.0000
  H   H38       1.0  0.223486883349274  0.5943323918092532  0.6794760039490768  1.0000
  H   H39       1.0  0.28664945166246986  0.37482395018251685  0.3614675148664758  1.0000
  H   H40       1.0  0.7133570359125728  0.6252036757106653  0.6385323358473016  1.0000
  H   H41       1.0  0.18659593508134983  0.14022980293162854  0.37220966572922987  1.0000
  H   H42       1.0  0.8134723846366965  0.8597914781322159  0.6277835543281256  1.0000
  H   H43       1.0  0.8508082876625878  0.20438489759524714  0.442973167873923  1.0000
  H   H44       1.0  0.14919764918283113  0.7955781073046779  0.5570162299888963  1.0000
  H   H45       1.0  0.9884650420553243  0.4365289930290502  0.43538323026641734  1.0000
  H   H46       1.0  0.011494408687205731  0.5634434945474355  0.5646136144239549  1.0000
  H   H47       1.0  0.3326038810562792  0.13053030350889833  0.4841260076116852  1.0000
  H   H48       1.0  0.6673921661814006  0.8694595989484526  0.5158712302611548  1.0000
  H   H49       1.0  0.2584611429470911  0.30765505150964156  0.5246706045568246  1.0000
  H   H50       1.0  0.7415104526720455  0.6923272620907496  0.47532648529129057  1.0000
  H   H51       1.0  0.4910988098423771  0.3576635906969301  0.4702249779854312  1.0000
  H   H52       1.0  0.508885461383116  0.6423310350108907  0.5297740999177947  1.0000
  Pb  Pb1       1.0  0.16530856634609853  0.2610826333354411  0.0476531244406786  1.0000
  Pb  Pb2       1.0  0.8346706501290625  0.7389235078654437  0.9523387441802811  1.0000
  C   C1        1.0  0.3015718754843705  0.7681120123414048  0.060377386969698  1.0000
  C   C2        1.0  0.6983961419214494  0.2318587866035884  0.9396245010838272  1.0000
  C   C3        1.0  0.4542399484211046  0.7719456230500086  0.1228492175097884  1.0000
  C   C4        1.0  0.5457318960286771  0.2280361346102923  0.8771522520070434  1.0000
  C   C5        1.0  0.2284609835233553  0.7422029080054531  0.1653328494939998  1.0000
  C   C6        1.0  0.7715111262913013  0.25778009269660634  0.8346694914715229  1.0000
  C   C7        1.0  0.3493072776906915  0.7598340306606345  0.23032110980835094  1.0000
  C   C8        1.0  0.6506837189273895  0.24017540776486612  0.7696797812480086  1.0000
  C   C9        1.0  0.11109310391228892  0.7480774743360429  0.2687086532184182  1.0000
  C   C10       1.0  0.88890996731476  0.25192657371086824  0.7312956534100225  1.0000
  C   C11       1.0  0.21392187587262163  0.7845331420070281  0.3335566125307921  1.0000
  C   C12       1.0  0.7860843298033231  0.2154914418625467  0.6664458749543202  1.0000
  C   C13       1.0  0.9703764354116373  0.7871571134190846  0.369512204625039  1.0000
  C   C14       1.0  0.029643519897085496  0.21287302509812633  0.630492786617971  1.0000
  C   C15       1.0  0.8466617227600821  0.2542859645539579  0.1503718062434771  1.0000
  C   C16       1.0  0.1533170045660768  0.7457139258176823  0.8496266498207846  1.0000
  C   C17       1.0  0.7375613476672029  0.2761656998788951  0.2082077289387243  1.0000
  C   C18       1.0  0.2624350933179613  0.7238386962588235  0.7917920320891128  1.0000
  C   C19       1.0  0.9539763082572321  0.2481757434209442  0.26250090960261463  1.0000
  C   C20       1.0  0.046037809187751605  0.7518215400440625  0.7374963103630777  1.0000
  C   C21       1.0  0.8590677754012791  0.2755083673821588  0.3218013468412835  1.0000
  C   C22       1.0  0.14095657141469084  0.724486498444776  0.6781965966145194  1.0000
  C   C23       1.0  0.10724832190764741  0.27099137976343  0.37181313356248324  1.0000
  C   C24       1.0  0.8927798519522839  0.7290144447788054  0.6281843913566334  1.0000
  C   C25       1.0  0.042137593066478005  0.2989907068566994  0.43359718160031946  1.0000
  C   C26       1.0  0.9578594535484439  0.7009926049228878  0.5663992580746893  1.0000
  C   C27       1.0  0.2940580220376532  0.27254153926931934  0.4808561198283313  1.0000
  C   C28       1.0  0.70593360509325  0.7274467592040352  0.5191418878420607  1.0000
  O   O1        1.0  0.2107138624531615  0.9111072383280076  0.0361598035205333  1.0000
  O   O2        1.0  0.7893624520319591  0.08888472097337548  0.9638334091049217  1.0000
  O   O3        1.0  0.2506572780123548  0.6192219735519373  0.0335213013022013  1.0000
  O   O4        1.0  0.7492156612171996  0.3807307336007852  0.9664900230399097  1.0000
  O   O5        1.0  0.7165400693637451  0.31294073852834703  0.10179249364606592  1.0000
  O   O6        1.0  0.28343410087336457  0.6870695554561622  0.8982075124733626  1.0000
  O   O7        1.0  0.0716744433583614  0.1810899212611901  0.1514710452944854  1.0000
  O   O8        1.0  0.9282900119541041  0.8189000738034408  0.8485271103014113  1.0000
