data_image0
_chemical_formula_structural       Li2H48C46N8O2F18
_chemical_formula_sum              "Li2 H48 C46 N8 O2 F18"
_cell_length_a       8.656440491
_cell_length_b       9.396358183274545
_cell_length_c       16.647
_cell_angle_alpha    90.0
_cell_angle_beta     90.0
_cell_angle_gamma    114.44417880983373

_space_group_name_H-M_alt    "P 1"
_space_group_IT_number       1

loop_
  _space_group_symop_operation_xyz
  'x, y, z'

loop_
  _atom_site_type_symbol
  _atom_site_label
  _atom_site_symmetry_multiplicity
  _atom_site_fract_x
  _atom_site_fract_y
  _atom_site_fract_z
  _atom_site_occupancy
  Li  Li1       1.0  0.9763461062386013  0.2289529847276981  0.7858178650807943  1.0000
  Li  Li2       1.0  0.023652933181573098  0.7710465129409272  0.2858184657896317  1.0000
  H   H1        1.0  0.11721473695487815  0.9378563018281838  0.9175046554934809  1.0000
  H   H2        1.0  0.8827865078756431  0.06214553389664701  0.4175040547846436  1.0000
  H   H3        1.0  0.9624392083035005  0.8899109522852342  0.8406794016939969  1.0000
  H   H4        1.0  0.0375608813177877  0.1100908834395966  0.340679401693997  1.0000
  H   H5        1.0  0.26431065268577203  0.9771660407824427  0.7904919805370341  1.0000
  H   H6        1.0  0.7356900670441957  0.0228346259142782  0.2904919805370341  1.0000
  H   H7        1.0  0.31277660585195116  0.1640578967353932  0.8322977112993328  1.0000
  H   H8        1.0  0.6872246389785701  0.8359439389894305  0.3322977112993328  1.0000
  H   H9        1.0  0.24649804967918237  0.27634772203465024  0.9269411906049143  1.0000
  H   H10       1.0  0.7535037202518993  0.7236552827182763  0.4269417913137518  1.0000
  H   H11       1.0  0.1450210410467179  0.1489622368556454  0.0087379107346663  1.0000
  H   H12       1.0  0.854981253984917  0.8510419369253839  0.5087385114435039  1.0000
  H   H13       1.0  0.0721766291219623  0.2920325720777512  0.9760401273502737  1.0000
  H   H14       1.0  0.927825140809119  0.7079704326751752  0.4760401273502738  1.0000
  H   H15       1.0  0.7934711559279961  0.0997192661195996  0.9611245269417878  1.0000
  H   H16       1.0  0.20653061400308553  0.900283738633334  0.4611239262329576  1.0000
  H   H17       1.0  0.8526341040664036  0.9465527018781685  0.9911443503333928  1.0000
  H   H18       1.0  0.14736829597335793  0.0534491338466623  0.4911437496245554  1.0000
  H   H19       1.0  0.7487583720474689  0.9352458620766555  0.8971502372799876  1.0000
  H   H20       1.0  0.2512417175738193  0.0647559736481753  0.3971496365711573  1.0000
  H   H21       1.0  0.9977758464280414  0.021664428784284  0.6320778518651977  1.0000
  H   H22       1.0  0.002224348201366422  0.9783350688843413  0.13207785186519774  1.0000
  H   H23       1.0  0.937359965661713  0.8973751967158208  0.7169153601249505  1.0000
  H   H24       1.0  0.06264075406825502  0.10262546998090732  0.21691536012495055  1.0000
  H   H25       1.0  0.12150214958276706  0.9177069334639469  0.6612266474439821  1.0000
  H   H26       1.0  0.8784968898374073  0.0822925642046783  0.1612260467351447  1.0000
  H   H27       1.0  0.3736238823642992  0.3197338619802181  0.7237640415690549  1.0000
  H   H28       1.0  0.6263786226835819  0.6802656356884073  0.22376404156905497  1.0000
  H   H29       1.0  0.2470364202005371  0.263048858347517  0.6352051420676403  1.0000
  H   H30       1.0  0.752966084847344  0.7369506393211083  0.1352057427764777  1.0000
  H   H31       1.0  0.3727636660456568  0.1608699571015322  0.6644999098936779  1.0000
  H   H32       1.0  0.627237683792991  0.8391295405670932  0.16449990989367796  1.0000
  H   H33       1.0  0.0011373385552104908  0.5819304988414515  0.8364203760437334  1.0000
  H   H34       1.0  0.9988628560742043  0.4180689988271737  0.3364197753348961  1.0000
  H   H35       1.0  0.03484749604930218  0.513666271859492  0.9322154141887398  1.0000
  H   H36       1.0  0.9651503881616391  0.4863332258091262  0.4322148134799093  1.0000
  H   H37       1.0  0.8258961882549656  0.5930140542754998  0.9844356340481754  1.0000
  H   H38       1.0  0.17410400637444917  0.4069854433931255  0.4844350333393379  1.0000
  H   H39       1.0  0.7820794202776611  0.638765138071193  0.8863963476902725  1.0000
  H   H40       1.0  0.2179196191425135  0.3612343595974252  0.386395146272605  1.0000
  H   H41       1.0  0.6133830960791186  0.3310477159503407  0.9758346849282163  1.0000
  H   H42       1.0  0.3866176236508494  0.6689529507463875  0.4758352856370536  1.0000
  H   H43       1.0  0.5237849363340814  0.4154807706095838  0.9043341142548229  1.0000
  H   H44       1.0  0.47621410308609313  0.5845187270590415  0.40433411425482296  1.0000
  H   H45       1.0  0.6139837136471299  0.1763233395804633  0.8595074187541274  1.0000
  H   H46       1.0  0.3860148006724842  0.8236749890600592  0.3595074187541272  1.0000
  H   H47       1.0  0.6513389884602178  0.3359143799385222  0.7926202919444947  1.0000
  H   H48       1.0  0.34865952585939647  0.6640839487020003  0.2926202919444947  1.0000
  C   C1        1.0  0.16271331952438567  0.5402675063180737  0.6923007148435121  1.0000
  C   C2        1.0  0.8372875052137019  0.4597308223224488  0.1923037183876986  1.0000
  C   C3        1.0  0.2764249623936195  0.560013559987155  0.75800744878957  1.0000
  C   C4        1.0  0.723574707135235  0.4399847686533676  0.258011053042587  1.0000
  C   C5        1.0  0.42502643365170906  0.6900352035359276  0.7689331411065083  1.0000
  C   C6        1.0  0.5749731308690187  0.3099654631608004  0.2689367453595253  1.0000
  C   C7        1.0  0.4782481472953393  0.8174569285860898  0.7148729500810946  1.0000
  C   C8        1.0  0.5217474264971287  0.18254256908253555  0.21487775575178605  1.0000
  C   C9        1.0  0.37127989281538015  0.8002862438254823  0.6481498167838069  1.0000
  C   C10       1.0  0.6287122153493812  0.199713253843143  0.14815221961914926  1.0000
  C   C11       1.0  0.22178659804922057  0.6698402430757255  0.6374722172163132  1.0000
  C   C12       1.0  0.7782083456345746  0.3301604236210026  0.1374752207604999  1.0000
  C   C13       1.0  0.8902055568232041  0.39578264709268046  0.637300414489097  1.0000
  C   C14       1.0  0.10979652813223588  0.6042133434916366  0.1372992130714223  1.0000
  C   C15       1.0  0.8258994529487538  0.2796046343265246  0.5777269177629591  1.0000
  C   C16       1.0  0.17410137178933377  0.7203936943139979  0.0777281191806338  1.0000
  C   C17       1.0  0.6848708896789332  0.2592857568875218  0.5309244908992596  1.0000
  C   C18       1.0  0.3151298300510348  0.7407149098092063  0.030927494443446304  1.0000
  C   C19       1.0  0.6001869404683688  0.3556160105397268  0.5425241785306698  1.0000
  C   C20       1.0  0.3998154595713855  0.6443858251850969  0.042524178530669615  1.0000
  C   C21       1.0  0.660059881434286  0.47287537430013066  0.6005808854448276  1.0000
  C   C22       1.0  0.3399426236135952  0.5271241233684876  0.1005796840271529  1.0000
  C   C23       1.0  0.8006442020788072  0.490584981015715  0.6467393524358729  1.0000
  C   C24       1.0  0.1993560975587272  0.5094121785967047  0.1467387517270353  1.0000
  C   C25       1.0  0.06952635751371615  0.9878497886056508  0.868092749444344  1.0000
  C   C26       1.0  0.9304743622162519  0.0121508780910773  0.3680921487355064  1.0000
  C   C27       1.0  0.20925068658802806  0.06144528606360921  0.80611942091668  1.0000
  C   C28       1.0  0.7907505582425003  0.9385565496612146  0.3061188202078427  1.0000
  C   C29       1.0  0.123605214671862  0.2095740058826081  0.9555259205862898  1.0000
  C   C30       1.0  0.8763960301586662  0.7904278298422156  0.4555259205862896  1.0000
  C   C31       1.0  0.8411879405636711  0.01541129746726  0.939242506157264  1.0000
  C   C32       1.0  0.15881382936741056  0.9845917072856736  0.4392425061572638  1.0000
  C   C33       1.0  0.04625389716001392  0.9803048812360302  0.683607857271582  1.0000
  C   C34       1.0  0.9537479777791943  0.0196957854606978  0.18360725656274474  1.0000
  C   C35       1.0  0.29341681833852806  0.2196206333902779  0.686914759416112  1.0000
  C   C36       1.0  0.7065845315001198  0.7803788642783402  0.1869153601249494  1.0000
  C   C37       1.0  0.9380526349053468  0.5066661315853622  0.8878800985162487  1.0000
  C   C38       1.0  0.06194640451482766  0.49333336608326306  0.3878788970985738  1.0000
  C   C39       1.0  0.7975464102905292  0.548357180783178  0.9228948158827421  1.0000
  C   C40       1.0  0.2024526291296525  0.4516423168854473  0.4228942151739048  1.0000
  C   C41       1.0  0.63640356253768  0.394745719166302  0.9186718327626622  1.0000
  C   C42       1.0  0.3635949517819341  0.6052526094742207  0.4186724334714995  1.0000
  C   C43       1.0  0.6787381956314745  0.3036351759890438  0.853121283114078  1.0000
  C   C44       1.0  0.3212619989979402  0.6963643216795816  0.3531212831140779  1.0000
  C   C45       1.0  0.6263303214405553  0.9521862483011887  0.7289019042470104  1.0000
  C   C46       1.0  0.3736797450313674  0.0478249396484571  0.2289049077911969  1.0000
  N   N1        1.0  0.02355965902548013  0.4069293300442354  0.6866792815522302  1.0000
  N   N2        1.0  0.9764417958212872  0.5930678295681915  0.1866804829699049  1.0000
  N   N3        1.0  0.7499721059904587  0.062981388989499  0.7436775394966091  1.0000
  N   N4        1.0  0.2500168515709618  0.9370110945105169  0.2436817444584634  1.0000
  N   N5        1.0  0.00434184438397271  0.0993229655930534  0.8986574157505844  1.0000
  N   N6        1.0  0.995658770337876  0.900680039159873  0.39865741575058433  1.0000
  N   N7        1.0  0.1492002134754102  0.1136681094313872  0.7341262689974144  1.0000
  N   N8        1.0  0.8508005062545579  0.8863325572653409  0.23412626899741446  1.0000
  O   O1        1.0  0.8580957560755067  0.3453858456200578  0.8613618069321802  1.0000
  O   O2        1.0  0.141904438553901  0.6546136520485604  0.3613624076410176  1.0000
  F   F1        1.0  0.23172821414885186  0.4425309118592935  0.8135591998558311  1.0000
  F   F2        1.0  0.768274290899029  0.5574685858093318  0.3135622034000107  1.0000
  F   F3        1.0  0.5234498766775459  0.6978115784697252  0.8334138283174113  1.0000
  F   F4        1.0  0.47655241835408885  0.30219259531131126  0.3334192346969403  1.0000
  F   F5        1.0  0.41854151429190267  0.9164116503270492  0.5927692677359317  1.0000
  F   F6        1.0  0.5814472332532787  0.0835855092853706  0.09277106986243673  1.0000
  F   F7        1.0  0.12952147194743446  0.6623876889261524  0.569971766684688  1.0000
  F   F8        1.0  0.8704725265433664  0.3376083016581646  0.0699759716465422  1.0000
  F   F9        1.0  0.9076294424842642  0.186568701865454  0.5622256262389627  1.0000
  F   F10       1.0  0.09237075214514326  0.8134307958031712  0.06222742836547471  1.0000
  F   F11       1.0  0.6311113428447328  0.1477873636132472  0.4732155944013954  1.0000
  F   F12       1.0  0.3688926324967027  0.8522179791958919  0.9732191986544124  1.0000
  F   F13       1.0  0.4602352383851597  0.3344694612045843  0.49943353156724873  1.0000
  F   F14       1.0  0.5397670566464753  0.6655347125764521  0.9994341322760861  1.0000
  F   F15       1.0  0.579092967536802  0.5675046920640909  0.612373400612725  1.0000
  F   F16       1.0  0.42091058771219275  0.4324971436607399  0.11237159848621302  1.0000
  F   F17       1.0  0.8530748511496283  0.6048574779757845  0.7035435814260824  1.0000
  F   F18       1.0  0.1469273388139385  0.3951361745523343  0.2035417792995702  1.0000
