data_image0
_chemical_formula_structural       Zn8H64C68N16O10
_chemical_formula_sum              "Zn8 H64 C68 N16 O10"
_cell_length_a       11.55061638200055
_cell_length_b       11.550608773001164
_cell_length_c       34.78106375800316
_cell_angle_alpha    89.9999565760874
_cell_angle_beta     89.99997735845916
_cell_angle_gamma    90.00002722272833

_space_group_name_H-M_alt    "P 1"
_space_group_IT_number       1

loop_
  _space_group_symop_operation_xyz
  'x, y, z'

loop_
  _atom_site_type_symbol
  _atom_site_label
  _atom_site_symmetry_multiplicity
  _atom_site_fract_x
  _atom_site_fract_y
  _atom_site_fract_z
  _atom_site_occupancy
  Zn  Zn1       1.0  0.901308503390034  0.09869173441028779  0.2181976828192305  1.0000
  Zn  Zn2       1.0  0.09869178651351972  0.9013081141193949  0.21819734620022763  1.0000
  Zn  Zn3       1.0  0.9013083951778994  0.901308603070916  0.7181969522345  1.0000
  Zn  Zn4       1.0  0.0986921628505968  0.0986918418787042  0.7181971061992556  1.0000
  Zn  Zn5       1.0  0.09869242365378028  0.09869233722735518  0.281801885351193  1.0000
  Zn  Zn6       1.0  0.9013077902258715  0.9013082326634748  0.2818023064121533  1.0000
  Zn  Zn7       1.0  0.09869231544054462  0.9013074743762176  0.7818023048177665  1.0000
  Zn  Zn8       1.0  0.9013073008082843  0.0986919604225847  0.7818020664112311  1.0000
  H   H1        1.0  0.8514246637005913  0.31467000049421046  0.17304952841273294  1.0000
  H   H2        1.0  0.14857568016663691  0.6853308162845976  0.1730498149469639  1.0000
  H   H3        1.0  0.6853303258982423  0.8514246521687098  0.6730488423108271  1.0000
  H   H4        1.0  0.3146685545843937  0.1485758952743979  0.6730495304633877  1.0000
  H   H5        1.0  0.1485763659220396  0.3146696587703346  0.3269508476511832  1.0000
  H   H6        1.0  0.8514237939927585  0.6853308086239877  0.3269513298739711  1.0000
  H   H7        1.0  0.314668629518124  0.8514226578781533  0.826950427362867  1.0000
  H   H8        1.0  0.6853309327665116  0.14857580867054312  0.8269504920642065  1.0000
  H   H9        1.0  0.148576155130435  0.6853318055576666  0.8269507467367063  1.0000
  H   H10       1.0  0.8514234071546484  0.3146692582564016  0.8269504602028093  1.0000
  H   H11       1.0  0.3146687614234196  0.14857628812784904  0.3269511453260634  1.0000
  H   H12       1.0  0.6853313984913142  0.8514224477566615  0.3269504571737727  1.0000
  H   H13       1.0  0.8514227213992813  0.6853312815255705  0.6730497150112456  1.0000
  H   H14       1.0  0.148575293328733  0.3146701316722443  0.6730489452756885  1.0000
  H   H15       1.0  0.6853304578029197  0.14857568515270708  0.1730495602743574  1.0000
  H   H16       1.0  0.31466902030940963  0.851423400115756  0.17304949557284746  1.0000
  H   H17       1.0  0.9005909052390279  0.4605956532441412  0.17382004096542406  1.0000
  H   H18       1.0  0.09940943770721591  0.5394051617854104  0.17382037084384902  1.0000
  H   H19       1.0  0.5394047913022888  0.900590856348302  0.6738193798480907  1.0000
  H   H20       1.0  0.46059495401419065  0.0994096893460821  0.6738197738628671  1.0000
  H   H21       1.0  0.09940932793696079  0.46059528990095805  0.3261800106649488  1.0000
  H   H22       1.0  0.9005908328987999  0.5394043134877152  0.32618081089797374  1.0000
  H   H23       1.0  0.4605950532204375  0.9005897989204853  0.8261801648985951  1.0000
  H   H24       1.0  0.5394053757397117  0.09940953513224574  0.8261802611042768  1.0000
  H   H25       1.0  0.09940904783712767  0.5394052870522899  0.8261802341841786  1.0000
  H   H26       1.0  0.9005896496139059  0.460594912755262  0.8261801918186935  1.0000
  H   H27       1.0  0.4605951617736609  0.09940921819290344  0.3261808953016185  1.0000
  H   H28       1.0  0.5394058648163877  0.9005895194404161  0.3261802137741299  1.0000
  H   H29       1.0  0.9005897593847011  0.539405650395601  0.6738199769719415  1.0000
  H   H30       1.0  0.09940998593181401  0.46059576105369626  0.6738194642516788  1.0000
  H   H31       1.0  0.5394048998554766  0.09940940986580671  0.1738198227384586  1.0000
  H   H32       1.0  0.4605945773364084  0.9005905394092864  0.1738197265326633  1.0000
  H   H33       1.0  0.7783861454735117  0.42048948173347617  0.2013580271748339  1.0000
  H   H34       1.0  0.22161329880277947  0.5795104050243866  0.2013583309405789  1.0000
  H   H35       1.0  0.579509964859689  0.7783851545794532  0.7013573658409982  1.0000
  H   H36       1.0  0.4204897475417155  0.22161532859867353  0.7013577341759432  1.0000
  H   H37       1.0  0.22161406865415503  0.4204901047456603  0.29864203460272887  1.0000
  H   H38       1.0  0.7783852593422225  0.5795104269142966  0.29864284065416774  1.0000
  H   H39       1.0  0.4204889558664036  0.7783841406056952  0.7986422098251609  1.0000
  H   H40       1.0  0.5795106402539217  0.22161352445294819  0.7986419823592428  1.0000
  H   H41       1.0  0.2216146733571023  0.5795105928079349  0.7986422479748257  1.0000
  H   H42       1.0  0.7783840570089707  0.4204888037609677  0.7986419442094147  1.0000
  H   H43       1.0  0.42049085397109565  0.2216149199622777  0.2986426217958922  1.0000
  H   H44       1.0  0.5795102055344047  0.7783847459428584  0.2986422534610043  1.0000
  H   H45       1.0  0.778385018667507  0.5795108355508988  0.7013579530341616  1.0000
  H   H46       1.0  0.22161469373372714  0.4204896476269082  0.7013574344955487  1.0000
  H   H47       1.0  0.5795101314546472  0.22161420242516527  0.2013577778120634  1.0000
  H   H48       1.0  0.42048931282199237  0.778385684333344  0.201358005277811  1.0000
  H   H49       1.0  0.8687787170168945  0.1312208841342226  0.09833849454866342  1.0000
  H   H50       1.0  0.13121911888566024  0.8687818337616022  0.0983393119609062  1.0000
  H   H51       1.0  0.8687820563735755  0.8687823072531274  0.5983389222446718  1.0000
  H   H52       1.0  0.13122037642703083  0.1312201413084395  0.5983379136790177  1.0000
  H   H53       1.0  0.1312196282122855  0.1312194987992825  0.4016610653919416  1.0000
  H   H54       1.0  0.868780442404102  0.8687799332339523  0.4016614989323273  1.0000
  H   H55       1.0  0.1312203703047743  0.8687800561623364  0.9016614930882271  1.0000
  H   H56       1.0  0.8687808341903249  0.131219106534509  0.9016612507014727  1.0000
  H   H57       1.0  0.8676723250213669  0.132327399214887  0.0277233454708821  1.0000
  H   H58       1.0  0.1323255952843709  0.8676746132347334  0.027724450531394506  1.0000
  H   H59       1.0  0.8676739323426333  0.8676742204447265  0.5277240609599403  1.0000
  H   H60       1.0  0.1323277191065273  0.13232838842533567  0.5277230519691827  1.0000
  H   H61       1.0  0.1323260207336929  0.13232671985203837  0.47227592667690044  1.0000
  H   H62       1.0  0.8676739654796465  0.8676725518728148  0.47227607312922976  1.0000
  H   H63       1.0  0.1323267623004725  0.8676735410819987  0.9722763546532392  1.0000
  H   H64       1.0  0.8676734920369497  0.1323263270611719  0.9722761121310414  1.0000
  C   C1        1.0  0.9415107457826508  0.36224148212121315  0.2244766382462728  1.0000
  C   C2        1.0  0.05848867086102421  0.6377583521534689  0.2244766610734032  1.0000
  C   C3        1.0  0.6377588293023139  0.9415107433523959  0.7244762432709919  1.0000
  C   C4        1.0  0.3622417212204212  0.05848882158655041  0.724476660488577  1.0000
  C   C5        1.0  0.0584894406797716  0.3622420800834761  0.2755237257814684  1.0000
  C   C6        1.0  0.9415107807040642  0.6377585040601872  0.2755239207583458  1.0000
  C   C7        1.0  0.36224190040994847  0.9415097541772114  0.7755235786352088  1.0000
  C   C8        1.0  0.6377585890978281  0.058487963365138285  0.7755233848321056  1.0000
  C   C9        1.0  0.058489207293469306  0.6377585924203188  0.7755233493906745  1.0000
  C   C10       1.0  0.9415104164604315  0.36224172238785013  0.7755233265636008  1.0000
  C   C11       1.0  0.3622419895284708  0.0584893311893353  0.2755237443658985  1.0000
  C   C12       1.0  0.6377582318552941  0.9415095214445087  0.27552332714859057  1.0000
  C   C13       1.0  0.9415096466415491  0.6377588602124292  0.7244768368809673  1.0000
  C   C14       1.0  0.0584891723718854  0.3622415704810108  0.7244763543913705  1.0000
  C   C15       1.0  0.637758052665589  0.0584885888535212  0.22447669651472785  1.0000
  C   C16       1.0  0.362241363978093  0.9415112454211612  0.2244766028049483  1.0000
  C   C17       1.0  0.9999999542882136  0.4366580862850356  0.2500003490176326  1.0000
  C   C18       1.0  0.9999999843727848  0.5633431839066461  0.2500006205040251  1.0000
  C   C19       1.0  0.5633428858298117  0.9999993887878489  0.7499998994161743  1.0000
  C   C20       1.0  0.43665787166187187  0.9999993586808387  0.750000195204386  1.0000
  C   C21       1.0  0.9999999987877716  0.5633428540110756  0.7500002136447464  1.0000
  C   C22       1.0  0.9999991029485358  0.4366577563892591  0.7499999421584109  1.0000
  C   C23       1.0  0.4366581704772016  0.9999999262266923  0.2500002492279449  1.0000
  C   C24       1.0  0.5633423188901006  0.999999090577937  0.2500002409526729  1.0000
  C   C25       1.0  0.8639374229049679  0.39081575260352946  0.1915078378249078  1.0000
  C   C26       1.0  0.13606289889974477  0.6091850222714967  0.19150814525961835  1.0000
  C   C27       1.0  0.6091854636662718  0.8639365077607337  0.6915077405899623  1.0000
  C   C28       1.0  0.39081512626245285  0.1360631320227981  0.691508134447389  1.0000
  C   C29       1.0  0.13606364288351358  0.3908154468364557  0.3084922314605053  1.0000
  C   C30       1.0  0.8639365390943254  0.609185062462629  0.3084924438015193  1.0000
  C   C31       1.0  0.39081436344718407  0.8639354573216734  0.8084921009434539  1.0000
  C   C32       1.0  0.6091852208997608  0.1360621853755575  0.8084921787588968  1.0000
  C   C33       1.0  0.1360633959260227  0.6091851876934343  0.808492149811869  1.0000
  C   C34       1.0  0.8639361884215405  0.39081505226949537  0.8084921298901551  1.0000
  C   C35       1.0  0.39081535516434235  0.13606356678067752  0.30849253455969733  1.0000
  C   C36       1.0  0.6091856925677491  0.8639352110081404  0.3084921407024908  1.0000
  C   C37       1.0  0.8639354444379777  0.6091854934597762  0.6915080436891615  1.0000
  C   C38       1.0  0.1360634139816241  0.39081501207857633  0.691507831348197  1.0000
  C   C39       1.0  0.6091838581191951  0.13606288570897362  0.1915078866938202  1.0000
  C   C40       1.0  0.3908147321759827  0.8639370234104078  0.1915080963909261  1.0000
  C   C41       1.0  1.0159911596e-06  0.9999990747768661  0.1459761448162737  1.0000
  C   C42       1.0  1.3454548550999998e-06  9.982692077e-07  0.6459756422724325  1.0000
  C   C43       1.0  0.9999994733766541  0.9999999420287438  0.3540234828260296  1.0000
  C   C44       1.0  5.928406921e-07  0.9999991368336653  0.8540232066125455  1.0000
  C   C45       1.0  0.9999985201535253  9.864684429000001e-07  0.1030192104798644  1.0000
  C   C46       1.0  2.2368819685e-06  1.9127844553000006e-06  0.6030189342659895  1.0000
  C   C47       1.0  0.9999994477040631  0.9999998932682811  0.3969807658578546  1.0000
  C   C48       1.0  0.9999997014132659  0.9999990880726697  0.8969807771571896  1.0000
  C   C49       1.0  0.9262726143100154  0.0737269764987047  0.08245485506320452  1.0000
  C   C50       1.0  0.07372524057794999  0.9262749117016469  0.08245480290196382  1.0000
  C   C51       1.0  0.9262742494644416  0.9262754125192743  0.5824546931872803  1.0000
  C   C52       1.0  0.0737273365669822  0.0737279378564324  0.5824545692173899  1.0000
  C   C53       1.0  0.07372483785739802  0.0737255277776114  0.41754500693684093  1.0000
  C   C54       1.0  0.9262743480194262  0.926274733951864  0.4175448433935713  1.0000
  C   C55       1.0  0.07372560725698209  0.9262739637976479  0.9175451325737427  1.0000
  C   C56       1.0  0.9262738467432996  0.07372429708443921  0.9175451847351468  1.0000
  C   C57       1.0  0.9264180849363086  0.0735815750046953  0.04250150546586441  1.0000
  C   C58       1.0  0.07358154921509912  0.9264186723867168  0.0425017407997075  1.0000
  C   C59       1.0  0.9264179886496964  0.9264183075174159  0.5425016310663511  1.0000
  C   C60       1.0  0.07358191362614261  0.0735825362929603  0.542501507151826  1.0000
  C   C61       1.0  0.0735810986721077  0.0735817670245567  0.45749778154510784  1.0000
  C   C62       1.0  0.9264197709598962  0.9264192697597696  0.4574981929720181  1.0000
  C   C63       1.0  0.07358186813981861  0.9264184995368298  0.9574984821710828  1.0000
  C   C64       1.0  0.9264184038609855  0.07358053639990199  0.957497959324577  1.0000
  C   C65       1.0  1.09049477e-06  0.9999992162830438  0.021311182577918007  1.0000
  C   C66       1.0  0.9999996884487602  2.740194133999997e-07  0.5213109675470735  1.0000
  C   C67       1.0  0.9999993988728733  0.9999998005222321  0.4786887325771545  1.0000
  C   C68       1.0  5.183367405999998e-07  0.999998995326834  0.9786887438764327  1.0000
  N   N1        1.0  0.964045441752411  0.25152783124777045  0.234310162554813  1.0000
  N   N2        1.0  0.035954828892144505  0.7484719807029092  0.23431044782692823  1.0000
  N   N3        1.0  0.7484715351558865  0.9640446357290456  0.7343100324756975  1.0000
  N   N4        1.0  0.2515281378585996  0.035955772640726  0.7343101823459364  1.0000
  N   N5        1.0  0.03595642363551121  0.2515275750686641  0.26568994197194945  1.0000
  N   N6        1.0  0.9640446752567371  0.7484721656445003  0.2656901059930163  1.0000
  N   N7        1.0  0.2515283395044534  0.9640444820116939  0.7656897837291226  1.0000
  N   N8        1.0  0.7484721617572845  0.0359532578551836  0.7656895811632937  1.0000
  N   N9        1.0  0.0359545113237161  0.7484722432937542  0.7656898250821343  1.0000
  N   N10       1.0  0.9640442584291405  0.2515280938380826  0.7656898273228451  1.0000
  N   N11       1.0  0.2515284179202339  0.035955438812479194  0.2656899551612497  1.0000
  N   N12       1.0  0.7484718152175205  0.9640443019008061  0.2656898052910037  1.0000
  N   N13       1.0  0.9640443951951028  0.7484724994727401  0.7343103331777102  1.0000
  N   N14       1.0  0.03595527781958909  0.2515287746522645  0.7343098816438172  1.0000
  N   N15       1.0  0.7484716135714607  0.03595472677459811  0.2343102039079312  1.0000
  N   N16       1.0  0.25152779131860115  0.9640450851762097  0.2343101189610977  1.0000
  O   O1        1.0  0.9999992980677208  0.9999999538766675  0.2500000514217078  1.0000
  O   O2        1.0  4.175319717e-07  1.4436821499999788e-08  0.7499997752081101  1.0000
  O   O3        1.0  0.9301468176939879  0.06985263193072909  0.16246333403345406  1.0000
  O   O4        1.0  0.06985353882630112  0.9301464773705989  0.16246328139830274  1.0000
  O   O5        1.0  0.9301484546878882  0.9301469800290366  0.6624631711776274  1.0000
  O   O6        1.0  0.0698556329762425  0.06985445720319919  0.6624627611807483  1.0000
  O   O7        1.0  0.06985322989714861  0.0698513630024351  0.3375368164594192  1.0000
  O   O8        1.0  0.9301477831192885  0.9301473488502694  0.3375366514302058  1.0000
  O   O9        1.0  0.06985313538192632  0.9301465768555629  0.8375366536035997  1.0000
  O   O10       1.0  0.9301472800042774  0.06985273141589939  0.8375367062386943  1.0000
