data_image0
_chemical_formula_structural       Cu12H12C12I12N12
_chemical_formula_sum              "Cu12 H12 C12 I12 N12"
_cell_length_a       6.8256111450954275
_cell_length_b       9.801862478804098
_cell_length_c       15.637579602896968
_cell_angle_alpha    90.0000414562105
_cell_angle_beta     90.00133565482558
_cell_angle_gamma    90.00146290185153

_space_group_name_H-M_alt    "P 1"
_space_group_IT_number       1

loop_
  _space_group_symop_operation_xyz
  'x, y, z'

loop_
  _atom_site_type_symbol
  _atom_site_label
  _atom_site_symmetry_multiplicity
  _atom_site_fract_x
  _atom_site_fract_y
  _atom_site_fract_z
  _atom_site_occupancy
  Cu  Cu1       1.0  0.9703643099733482  0.25001239202661196  0.4067313726880925  1.0000
  Cu  Cu2       1.0  0.47036330108420527  0.2500036605048095  0.0932715432344153  1.0000
  Cu  Cu3       1.0  0.5296384167774446  0.7499852449898085  0.9067335252684428  1.0000
  Cu  Cu4       1.0  0.0296242225212922  0.7499969176334813  0.5932692193497571  1.0000
  Cu  Cu5       1.0  0.4727812219075033  0.04511727547998129  0.3293342671485675  1.0000
  Cu  Cu6       1.0  0.9727838409393711  0.04512465618450529  0.17066924174805106  1.0000
  Cu  Cu7       1.0  0.47279901278761827  0.4548842978729296  0.3293298639857553  1.0000
  Cu  Cu8       1.0  0.027211806800437395  0.545125793011273  0.8293268007989949  1.0000
  Cu  Cu9       1.0  0.5272043801276425  0.9548746905115022  0.670666324870055  1.0000
  Cu  Cu10      1.0  0.027231062707400597  0.9548836334923293  0.8293275135238429  1.0000
  Cu  Cu11      1.0  0.5272158906371017  0.5451127694464616  0.670666251798977  1.0000
  Cu  Cu12      1.0  0.9727957715170701  0.4548794359600662  0.17067315185779813  1.0000
  H   H1        1.0  0.5288249788867744  0.7499929717882594  0.2959638081461407  1.0000
  H   H2        1.0  0.028861633675568  0.7500048000269073  0.20404721565581235  1.0000
  H   H3        1.0  0.971186966581129  0.2500065505895889  0.7959469818614762  1.0000
  H   H4        1.0  0.4711635530604354  0.24999083251277193  0.7040335864613851  1.0000
  H   H5        1.0  0.19308164022945107  0.9629374057496559  0.4740176865444709  1.0000
  H   H6        1.0  0.6930639791000315  0.9629425432138702  0.0259920236976683  1.0000
  H   H7        1.0  0.19307673849493057  0.5370428362493269  0.47402592381069997  1.0000
  H   H8        1.0  0.3068986895089693  0.4629694974082311  0.9740291077380048  1.0000
  H   H9        1.0  0.8069156821299044  0.03704843905646979  0.5259777896563378  1.0000
  H   H10       1.0  0.30695531979844753  0.037063706075613795  0.9740079290238198  1.0000
  H   H11       1.0  0.8069205841525429  0.4629501500611966  0.5259759472429195  1.0000
  H   H12       1.0  0.6930825179512112  0.5370357313410493  0.025987471387651295  1.0000
  C   C1        1.0  0.42582159109687706  0.7499961771584152  0.3493135691539564  1.0000
  C   C2        1.0  0.9258261609315424  0.7500106714046594  0.15069926670979325  1.0000
  C   C3        1.0  0.07419020807028427  0.250008840644412  0.8493006859979317  1.0000
  C   C4        1.0  0.5741684061647802  0.24999578887246793  0.6506876623740183  1.0000
  C   C5        1.0  0.24093717400118914  0.8664490052321909  0.4463864187031205  1.0000
  C   C6        1.0  0.7409413785562436  0.8664409188044073  0.05362442349797899  1.0000
  C   C7        1.0  0.24095633204644426  0.6335453092791922  0.4463844587843793  1.0000
  C   C8        1.0  0.25904850671766866  0.36646086463479577  0.9463800470249522  1.0000
  C   C9        1.0  0.7590454979121686  0.13354398094759287  0.5536141732995574  1.0000
  C   C10       1.0  0.2590720600336525  0.13355104744003649  0.9463851214660081  1.0000
  C   C11       1.0  0.7590497809566229  0.3664517579622951  0.5536116569519648  1.0000
  C   C12       1.0  0.7409634667734082  0.6335372228782673  0.053623742565676494  1.0000
  I   I1        1.0  0.8532699154013555  0.028451366305922893  0.3290856802219721  1.0000
  I   I2        1.0  0.353272713680937  0.028437642489095104  0.1709113912494544  1.0000
  I   I3        1.0  0.853291250231585  0.4715834763143859  0.3290908753109818  1.0000
  I   I4        1.0  0.6467193899720555  0.528423233957575  0.8290878427444708  1.0000
  I   I5        1.0  0.1467112917506199  0.9715712060680772  0.6709053195006118  1.0000
  I   I6        1.0  0.6467348641515895  0.9715471821936529  0.8290840850076149  1.0000
  I   I7        1.0  0.1467163282578525  0.528431954799231  0.6709084378624793  1.0000
  I   I8        1.0  0.3532911182169086  0.4715707726809341  0.1709095519858295  1.0000
  I   I9        1.0  0.34652884946169143  0.2500038100080316  0.417067774520845  1.0000
  I   I10       1.0  0.8465286311376798  0.2500018858783832  0.08292802284496048  1.0000
  I   I11       1.0  0.15347015688025314  0.750007423873491  0.9170738482196439  1.0000
  I   I12       1.0  0.6534640779055393  0.7499973379714502  0.5829251437178868  1.0000
  N   N1        1.0  0.36653464422029447  0.8707747603750419  0.3803532342824028  1.0000
  N   N2        1.0  0.866528901384143  0.8707800291279493  0.11965835251449868  1.0000
  N   N3        1.0  0.36651848167025486  0.6292145460124343  0.38036278335700746  1.0000
  N   N4        1.0  0.13346846890776481  0.37079561612934947  0.8803525144492921  1.0000
  N   N5        1.0  0.6334553526090472  0.1292090439335922  0.6196364865113393  1.0000
  N   N6        1.0  0.13348160707981546  0.12923234136568598  0.880336484278466  1.0000
  N   N7        1.0  0.6334568647917465  0.37077129860341523  0.6196390875743844  1.0000
  N   N8        1.0  0.8665317844246018  0.6292218553523765  0.11965319353575407  1.0000
  N   N9        1.0  0.1758882488882847  0.749996095475815  0.48193565908222513  1.0000
  N   N10       1.0  0.6758833852099428  0.7499991815387759  0.018078901833028693  1.0000
  N   N11       1.0  0.3240963571637607  0.2500162493344291  0.9819293639793825  1.0000
  N   N12       1.0  0.8240914928624077  0.24999995131858532  0.518061735479094  1.0000
