data_image0
_chemical_formula_structural       Cu2H36C40N12O10
_chemical_formula_sum              "Cu2 H36 C40 N12 O10"
_cell_length_a       9.28503439304195
_cell_length_b       9.402516079454573
_cell_length_c       12.435245704786109
_cell_angle_alpha    102.89686277063666
_cell_angle_beta     111.9191999917772
_cell_angle_gamma    90.00193287436889

_space_group_name_H-M_alt    "P 1"
_space_group_IT_number       1

loop_
  _space_group_symop_operation_xyz
  'x, y, z'

loop_
  _atom_site_type_symbol
  _atom_site_label
  _atom_site_symmetry_multiplicity
  _atom_site_fract_x
  _atom_site_fract_y
  _atom_site_fract_z
  _atom_site_occupancy
  Cu  Cu1       1.0  6.119932151978213e-07  2.0461154549838037e-07  0.9999995743204055  1.0000
  Cu  Cu2       1.0  0.9999987273386564  0.49999993802375553  0.9999997069852146  1.0000
  H   H1        1.0  0.10315170479518092  0.24511670444108102  0.9275043749835208  1.0000
  H   H2        1.0  0.17564160202228152  0.25488332433361893  0.07244512006808891  1.0000
  H   H3        1.0  0.8968481144872483  0.7548819637168831  0.07249480289623718  1.0000
  H   H4        1.0  0.8243583297926661  0.745116439482331  0.927554282851631  1.0000
  H   H5        1.0  0.9610938342413391  0.3039806535843255  0.16724591339722397  1.0000
  H   H6        1.0  0.7938797718925839  0.19614570377788001  0.8326040883901343  1.0000
  H   H7        1.0  0.03890851714309922  0.6960201723452714  0.8327559680296802  1.0000
  H   H8        1.0  0.20611888696709713  0.8038529692303483  0.16739476292804056  1.0000
  H   H9        1.0  0.6560232962008923  0.9171909761298592  0.998337515060591  1.0000
  H   H10       1.0  0.65751427467778  0.5826981429648725  0.0016067192157223742  1.0000
  H   H11       1.0  0.3439745398335887  0.08281098870259031  0.0016616848158719376  1.0000
  H   H12       1.0  0.34248439108616674  0.41730054196526106  0.998391331930428  1.0000
  H   H13       1.0  0.5899284111403419  0.348017425417524  0.2327525473451148  1.0000
  H   H14       1.0  0.357202720107665  0.15190376153339  0.7671753236261126  1.0000
  H   H15       1.0  0.4100749812300606  0.6519822880819178  0.7672502357754425  1.0000
  H   H16       1.0  0.6427958193152321  0.8480938038949404  0.2328241028241394  1.0000
  H   H17       1.0  0.7501451114149376  0.4566785885884671  0.238948378049365  1.0000
  H   H18       1.0  0.5112161380885922  0.0432457387862968  0.7608975205953714  1.0000
  H   H19       1.0  0.2498562977075238  0.5433244215854529  0.7610544270678902  1.0000
  H   H20       1.0  0.48878252767535457  0.956752946143844  0.23910053055077907  1.0000
  H   H21       1.0  0.6828966057362322  0.5358716107409833  0.44059225931437873  1.0000
  H   H22       1.0  0.2422434573261469  0.9642030936937758  0.5593153547681028  1.0000
  H   H23       1.0  0.3171056400199461  0.46412813145254017  0.5594085969005321  1.0000
  H   H24       1.0  0.7577553209703183  0.03579668689434359  0.44068292141800225  1.0000
  H   H25       1.0  0.941532551376717  0.1738643128529844  0.3613894361183228  1.0000
  H   H26       1.0  0.5801244104729406  0.3261702470285143  0.6385893494010163  1.0000
  H   H27       1.0  0.05846759859900169  0.8261376303570315  0.6386112170533381  1.0000
  H   H28       1.0  0.4198755144377415  0.6738295048655234  0.36141085369073533  1.0000
  H   H29       1.0  0.8064116473548565  0.5418515120038379  0.656004038536402  1.0000
  H   H30       1.0  0.1503877335947266  0.9582841998215912  0.3438937048338532  1.0000
  H   H31       1.0  0.19359175191981146  0.45814821341750905  0.3439979444121236  1.0000
  H   H32       1.0  0.8496100037157673  0.0417166931966904  0.6561036696585918  1.0000
  H   H33       1.0  0.06533069028035499  0.1817434144334911  0.57702099374756  1.0000
  H   H34       1.0  0.48835938036782517  0.31836082719762976  0.42296191162161284  1.0000
  H   H35       1.0  0.93467262407885  0.8182552630175194  0.4229775634728982  1.0000
  H   H36       1.0  0.5116420356588947  0.6816421948982024  0.5770400933236176  1.0000
  C   C1        1.0  0.8674384106315712  0.21816761484821967  0.14054742732705  1.0000
  C   C2        1.0  0.7268502045240481  0.2819123308248734  0.8592520319819529  1.0000
  C   C3        1.0  0.13256162681162922  0.7818332327038036  0.8594530008046493  1.0000
  C   C4        1.0  0.2731494953216043  0.7180852297531928  0.14074772102988226  1.0000
  C   C5        1.0  0.7093268291673667  0.0236489876568484  0.055986469840384266  1.0000
  C   C6        1.0  0.6531924052158117  0.47624114919733535  0.943956524076299  1.0000
  C   C7        1.0  0.2906721741941282  0.9763529842472495  0.94401225642563  1.0000
  C   C8        1.0  0.3468040522351501  0.5237586410913123  0.05604109898663265  1.0000
  C   C9        1.0  0.7164529800826926  0.3542303852075364  0.25578686946958135  1.0000
  C   C10       1.0  0.46064459452599477  0.1456749209907926  0.7440813782023812  1.0000
  C   C11       1.0  0.2835505317244866  0.6457704358717961  0.744215338518906  1.0000
  C   C12       1.0  0.5393529108152038  0.8543237687896053  0.2559163463821862  1.0000
  C   C13       1.0  0.8009191009053466  0.3529284110463351  0.38573524830596995  1.0000
  C   C14       1.0  0.4151223332452787  0.1470990856677972  0.6141537913231262  1.0000
  C   C15       1.0  0.19908208315207077  0.6470724078116064  0.6142671067313756  1.0000
  C   C16       1.0  0.5848764381469138  0.8529006829984099  0.38584528503500354  1.0000
  C   C17       1.0  0.7661134065079764  0.457206299846284  0.47019881455675994  1.0000
  C   C18       1.0  0.29588154816058676  0.042809564978981  0.5296715960027074  1.0000
  C   C19       1.0  0.23388767192118823  0.542793435275584  0.5298025152685996  1.0000
  C   C20       1.0  0.7041172439444026  0.9571902394529633  0.4703250798393414  1.0000
  C   C21       1.0  0.9103960228797517  0.25479376554937255  0.42497987912327073  1.0000
  C   C22       1.0  0.48533736201108013  0.24531098250178468  0.5749718950037279  1.0000
  C   C23       1.0  0.0896037756898806  0.7452048668428617  0.5750216992725754  1.0000
  C   C24       1.0  0.5146603614908827  0.7546898866726791  0.42502707983277344  1.0000
  C   C25       1.0  0.8362528820159625  0.4617371645577534  0.5911826190699615  1.0000
  C   C26       1.0  0.245100104579727  0.038341318242352394  0.40870653059413103  1.0000
  C   C27       1.0  0.16375040472617997  0.5382614652056076  0.4088191388386164  1.0000
  C   C28       1.0  0.7548998272352208  0.9616584455735974  0.5912928723255889  1.0000
  C   C29       1.0  0.9809910961142447  0.2589854688722609  0.5464513998707902  1.0000
  C   C30       1.0  0.4345452841642157  0.24113144388796565  0.4535127145358546  1.0000
  C   C31       1.0  0.01900870935965321  0.7410131754418784  0.4535493783530313  1.0000
  C   C32       1.0  0.5654535928562368  0.7588694085143288  0.5464873870342687  1.0000
  C   C33       1.0  0.9438108153808642  0.36121915936377036  0.6304730363807922  1.0000
  C   C34       1.0  0.3134450384305083  0.13885235475100896  0.3694484199114357  1.0000
  C   C35       1.0  0.05619247136127831  0.6387794703995908  0.3695287215277859  1.0000
  C   C36       1.0  0.6865539580267213  0.8611496052311837  0.6305511065266106  1.0000
  C   C37       1.0  0.015302492819415607  0.361309044630957  0.7607501172918845  1.0000
  C   C38       1.0  0.25456080653849966  0.1388133384026204  0.23916707917027225  1.0000
  C   C39       1.0  0.9846997391282384  0.6386906737187417  0.23925233926708964  1.0000
  C   C40       1.0  0.7454405107642258  0.8611886118790439  0.7608331003909401  1.0000
  N   N1        1.0  0.8482005109611138  0.08604353589054631  0.06662406494997712  1.0000
  N   N2        1.0  0.7814831208598604  0.41400820262902027  0.9332556459318724  1.0000
  N   N3        1.0  0.1517996528231293  0.9139584311632943  0.9333749878776204  1.0000
  N   N4        1.0  0.2185168040508216  0.5859915492650245  0.06674455715987904  1.0000
  N   N5        1.0  0.7441331589773482  0.23297638842876714  0.17255153993988873  1.0000
  N   N6        1.0  0.5715528980111557  0.26696291888805496  0.8272956311984316  1.0000
  N   N7        1.0  0.25586930493960847  0.7670255331588153  0.8274505665269704  1.0000
  N   N8        1.0  0.42844576775279114  0.7330357660420788  0.17270241994771857  1.0000
  N   N9        1.0  0.6422060940145328  0.10984103638152483  0.12002543514177691  1.0000
  N   N10       1.0  0.5220974875730277  0.3899950030430759  0.879907283691715  1.0000
  N   N11       1.0  0.3577952163839342  0.8901609019782272  0.8799755445914672  1.0000
  N   N12       1.0  0.47790014410921344  0.6100048062391253  0.12008906558874345  1.0000
  O   O1        1.0  0.07837901576693442  0.2500371598092174  0.9999794500251442  1.0000
  O   O2        1.0  0.9216204590136813  0.7499582094528777  1.9852906781664973e-05  1.0000
  O   O3        1.0  0.1578887004327072  0.027518372547611105  0.16933403884605275  1.0000
  O   O4        1.0  0.9885924491421603  0.4726399444719221  0.8306387934894277  1.0000
  O   O5        1.0  0.8421100640552268  0.9724813841966906  0.8306658376841087  1.0000
  O   O6        1.0  0.011406308441507884  0.5273598003504671  0.1693618832127655  1.0000
  O   O7        1.0  0.09205070817530013  0.25662307129460527  0.7923034646105266  1.0000
  O   O8        1.0  0.2996988179646891  0.24351588893226508  0.20756721327616395  1.0000
  O   O9        1.0  0.9079540696828872  0.7433788286705507  0.2077000951515303  1.0000
  O   O10       1.0  0.7002989055372737  0.7564849802421917  0.7924317615603373  1.0000
