data_image0
_chemical_formula_structural       Ni2H44C28S4N16
_chemical_formula_sum              "Ni2 H44 C28 S4 N16"
_cell_length_a       9.192650494187465
_cell_length_b       9.972643229256212
_cell_length_c       11.031575477091309
_cell_angle_alpha    89.9999730848605
_cell_angle_beta     89.99958542469878
_cell_angle_gamma    114.10734280139039

_space_group_name_H-M_alt    "P 1"
_space_group_IT_number       1

loop_
  _space_group_symop_operation_xyz
  'x, y, z'

loop_
  _atom_site_type_symbol
  _atom_site_label
  _atom_site_symmetry_multiplicity
  _atom_site_fract_x
  _atom_site_fract_y
  _atom_site_fract_z
  _atom_site_occupancy
  Ni  Ni1       1.0  1.2336207080635952e-07  0.49999949327511223  0.9999994116884634  1.0000
  Ni  Ni2       1.0  0.5000008655001623  2.4350715576999493e-06  0.5000005018744744  1.0000
  H   H1        1.0  0.6493270972778974  0.4557995901475922  0.09307350148664986  1.0000
  H   H2        1.0  0.8506676762073155  0.0441938491115224  0.5930677326434547  1.0000
  H   H3        1.0  0.350670277873931  0.5441990302794084  0.9069309445773541  1.0000
  H   H4        1.0  0.14933572394272687  0.955803647811827  0.4069267420253054  1.0000
  H   H5        1.0  0.6556300302576828  0.2821042725889455  0.09560624407920668  1.0000
  H   H6        1.0  0.8443679741046708  0.2178891425059746  0.5956013561387223  1.0000
  H   H7        1.0  0.3443668540002491  0.7178932492886079  0.9043982019864881  1.0000
  H   H8        1.0  0.15563700290274335  0.7821094487997726  0.404394931502722  1.0000
  H   H9        1.0  0.44615972335877524  0.19747662661825424  0.9279141222585705  1.0000
  H   H10       1.0  0.053840770763613884  0.3025179358211433  0.4279069291568333  1.0000
  H   H11       1.0  0.5538365658198997  0.8025219979716101  0.07209032380872317  1.0000
  H   H12       1.0  0.9461651880364386  0.69748285258558  0.5720884519923928  1.0000
  H   H13       1.0  0.4378149571600076  0.37025429469343146  0.9313252333154903  1.0000
  H   H14       1.0  0.0621865865065558  0.12974024785479094  0.4313207725338372  1.0000
  H   H15       1.0  0.5621839948685404  0.6297454201243227  0.0686773997658534  1.0000
  H   H16       1.0  0.9378204582618109  0.8702605363869794  0.5686755151009351  1.0000
  H   H17       1.0  0.3462354290148824  0.3291605274164696  0.1481291366725159  1.0000
  H   H18       1.0  0.1537581739284448  0.17083756329467553  0.6481227024715537  1.0000
  H   H19       1.0  0.6537570071699362  0.6708392123763786  0.851874402917424  1.0000
  H   H20       1.0  0.8462440360534204  0.8291621390491102  0.35187358517807604  1.0000
  H   H21       1.0  0.21858005735594327  0.1860592285908425  0.051990063680101194  1.0000
  H   H22       1.0  0.28141684801551037  0.3139370956392754  0.5519855222189773  1.0000
  H   H23       1.0  0.7814146549847153  0.8139383016249725  0.9480089434591645  1.0000
  H   H24       1.0  0.7185885156907758  0.6860647954734845  0.4480125783983551  1.0000
  H   H25       1.0  0.3201897146168662  0.9563380358264059  0.0381257738742846  1.0000
  H   H26       1.0  0.179789460396961  0.543651054018959  0.538113789547296  1.0000
  H   H27       1.0  0.6797969049936583  0.0436584249695713  0.9618777657338952  1.0000
  H   H28       1.0  0.8202111727081772  0.45634755393406584  0.46188431108497935  1.0000
  H   H29       1.0  0.4177585793100036  0.8354883591876573  0.23558052416850464  1.0000
  H   H30       1.0  0.08222913916290506  0.6645041814599467  0.7355736195675815  1.0000
  H   H31       1.0  0.5822390783843687  0.16451576232064724  0.7644202959382863  1.0000
  H   H32       1.0  0.9177730707996118  0.3354955208754761  0.26442629403739193  1.0000
  H   H33       1.0  0.43654550872045667  0.24944090394176754  0.3358137647618094  1.0000
  H   H34       1.0  0.06345891393636546  0.2505606742812176  0.8358105683895329  1.0000
  H   H35       1.0  0.5634576830298528  0.7505609954925491  0.6641861488397751  1.0000
  H   H36       1.0  0.9365412282797152  0.7494368351244562  0.16418662575560458  1.0000
  H   H37       1.0  0.7389536697025747  0.47372685468108255  0.8799744281737958  1.0000
  H   H38       1.0  0.761040703874592  0.02626635245138691  0.3799715189106223  1.0000
  H   H39       1.0  0.26104212859188175  0.5262706713635127  0.12002820491751717  1.0000
  H   H40       1.0  0.2389566713159395  0.9737322679923252  0.6200256752427009  1.0000
  H   H41       1.0  0.7536840403203443  0.31756428601766373  0.8949006573418572  1.0000
  H   H42       1.0  0.7463197393178973  0.18243321738282253  0.39489506055391377  1.0000
  H   H43       1.0  0.246314420809469  0.6824343302485546  0.105102882230014  1.0000
  H   H44       1.0  0.25368404753585583  0.8175675793496284  0.6051003206018918  1.0000
  C   C1        1.0  0.6329851116604175  0.36007423276091544  0.036267539298606294  1.0000
  C   C2        1.0  0.8670128268921504  0.13992275980400856  0.5362625426686732  1.0000
  C   C3        1.0  0.3670100915451114  0.6399243959918124  0.9637369067719772  1.0000
  C   C4        1.0  0.13298889219581872  0.8600758439903303  0.4637337449826403  1.0000
  C   C5        1.0  0.46278745894718304  0.29102973121621295  0.9875963730518789  1.0000
  C   C6        1.0  0.03721190715891249  0.2089634575943151  0.4875893151541462  1.0000
  C   C7        1.0  0.5372072533596038  0.7089677989849793  0.012408979509231699  1.0000
  C   C8        1.0  0.962789321039992  0.7910340476526657  0.5124060660100226  1.0000
  C   C9        1.0  0.3394898247283464  0.23800589438166503  0.08925725649235969  1.0000
  C   C10       1.0  0.1605081554946679  0.2619935537324736  0.5892516543766604  1.0000
  C   C11       1.0  0.6605063602698209  0.7619949314720317  0.9107462830860057  1.0000
  C   C12       1.0  0.8394946495712858  0.7380050459010905  0.4107437267825274  1.0000
  C   C13       1.0  0.35885810141403585  0.996643648348531  0.12895945642238618  1.0000
  C   C14       1.0  0.14113145456803983  0.5033460797653789  0.6289450019028917  1.0000
  C   C15       1.0  0.6411365067315983  0.003356083124856501  0.8710413636944592  1.0000
  C   C16       1.0  0.8588691785370984  0.4966525281876529  0.3710530987293835  1.0000
  C   C17       1.0  0.40655584961737645  0.9388992266679426  0.22665525007829496  1.0000
  C   C18       1.0  0.09343490949358818  0.5610999464114316  0.7266492220015831  1.0000
  C   C19       1.0  0.5934392494124765  0.06110160335070701  0.7733473830145311  1.0000
  C   C20       1.0  0.9065662145054534  0.43889976009104015  0.2733488786290081  1.0000
  C   C21       1.0  0.4180391274888606  0.15170564232199277  0.2834024673768312  1.0000
  C   C22       1.0  0.08195944301295548  0.3482940011815288  0.783400029382129  1.0000
  C   C23       1.0  0.5819592294652765  0.8482951752101615  0.7165992592172827  1.0000
  C   C24       1.0  0.9180391223312372  0.65170241383548  0.21659807125682562  1.0000
  C   C25       1.0  0.06286745522604045  0.8224909846981276  0.904159723288167  1.0000
  C   C26       1.0  0.4371465946975449  0.6775028719658496  0.4041611294888269  1.0000
  C   C27       1.0  0.9371334904061185  0.1775010194571109  0.0958438162773803  1.0000
  C   C28       1.0  0.5628637821137376  0.32250780337124507  0.5958405970670312  1.0000
  S   S1        1.0  0.11365957021578767  0.9811777911593256  0.8385297484939824  1.0000
  S   S2        1.0  0.3863403633907723  0.5188197260813753  0.33853424051463316  1.0000
  S   S3        1.0  0.8863391734662543  0.0188263261923822  0.16146835214301794  1.0000
  S   S4        1.0  0.6136626199694889  0.48118657586808683  0.6614692990421105  1.0000
  N   N1        1.0  0.757767776684389  0.4067032543643876  0.942854794437359  1.0000
  N   N2        1.0  0.7422300611567466  0.0932940488225853  0.4428510681521658  1.0000
  N   N3        1.0  0.24222851249428595  0.5932953702254764  0.0571496516299277  1.0000
  N   N4        1.0  0.2577715537458687  0.9067067562335043  0.5571452194990626  1.0000
  N   N5        1.0  0.36658844008780284  0.13136139096570792  0.16660063427116967  1.0000
  N   N6        1.0  0.1334034929860977  0.3686333189607326  0.6665942508514532  1.0000
  N   N7        1.0  0.6334039960921772  0.8686383488250516  0.8334038118075993  1.0000
  N   N8        1.0  0.8665988211762824  0.6313641821192065  0.33340294328709763  1.0000
  N   N9        1.0  0.44221257711024714  0.035902547690462014  0.3225382578099669  1.0000
  N   N10       1.0  0.0577913921914756  0.4641001944346356  0.8225341108828201  1.0000
  N   N11       1.0  0.5577931732900723  0.9641026432272286  0.6774625622720905  1.0000
  N   N12       1.0  0.94221141285513  0.5358984051905723  0.1774648962317116  1.0000
  N   N13       1.0  0.025381357074110145  0.7067316526658801  0.9526189383434412  1.0000
  N   N14       1.0  0.4746275190793908  0.7932686010797954  0.4526218876857229  1.0000
  N   N15       1.0  0.9746247800589529  0.29327683807345306  0.04737734929266679  1.0000
  N   N16       1.0  0.5253760593552811  0.20673659815527404  0.5473825583582579  1.0000
