data_image0
_chemical_formula_structural       Zn2H36C46N8O10
_chemical_formula_sum              "Zn2 H36 C46 N8 O10"
_cell_length_a       10.444673852933478
_cell_length_b       11.346803170568654
_cell_length_c       11.492
_cell_angle_alpha    116.08270995581378
_cell_angle_beta     100.45520540208437
_cell_angle_gamma    104.61567328075454

_space_group_name_H-M_alt    "P 1"
_space_group_IT_number       1

loop_
  _space_group_symop_operation_xyz
  'x, y, z'

loop_
  _atom_site_type_symbol
  _atom_site_label
  _atom_site_symmetry_multiplicity
  _atom_site_fract_x
  _atom_site_fract_y
  _atom_site_fract_z
  _atom_site_occupancy
  Zn  Zn1       1.0  0.741421078834307  0.8924365223386417  0.678293848613478  1.0000
  Zn  Zn2       1.0  0.2585788366790283  0.10756484328174311  0.321708383610023  1.0000
  H   H1        1.0  0.4813557974997877  0.6188465077657455  0.40794481303070995  1.0000
  H   H2        1.0  0.5186462486155818  0.3811527399570238  0.5920568511831377  1.0000
  H   H3        1.0  0.6407827739629326  0.9017023244268643  0.9236575429000169  1.0000
  H   H4        1.0  0.3592165630444839  0.0983001001423318  0.0763433132737035  1.0000
  H   H5        1.0  0.47779473869889694  0.8479871460354289  0.04438614092557463  1.0000
  H   H6        1.0  0.5222008873692586  0.1520131606361446  0.9556140539710397  1.0000
  H   H7        1.0  0.24247720873585618  0.6571688062538144  0.9135367199958608  1.0000
  H   H8        1.0  0.7575205479343339  0.3428293825201365  0.08646116654999496  1.0000
  H   H9        1.0  0.1587774479439901  0.5124179165572187  0.6579085826953417  1.0000
  H   H10       1.0  0.8412234129184598  0.4875781543191167  0.3420897665844151  1.0000
  H   H11       1.0  0.9252762936178911  0.7499708441742001  0.5033578269881502  1.0000
  H   H12       1.0  0.07472167471500062  0.2500305214461847  0.4966432139187944  1.0000
  H   H13       1.0  0.6064714213364369  0.0157476277547346  0.5083496768092673  1.0000
  H   H14       1.0  0.393528889261198  0.9842547968144615  0.4916522101080146  1.0000
  H   H15       1.0  0.5907996282611307  0.11239682670215251  0.35174356164144177  1.0000
  H   H16       1.0  0.4092010774208105  0.8876066568158549  0.6482571097990543  1.0000
  H   H17       1.0  0.7294270016105813  0.0822432593350513  0.19602984390720476  1.0000
  H   H18       1.0  0.27057428257727884  0.9177591652341449  0.8039704632419671  1.0000
  H   H19       1.0  0.8854834260109854  0.9432914799940376  0.184048877424587  1.0000
  H   H20       1.0  0.1145156993337295  0.0567077677287244  0.8159514348997091  1.0000
  H   H21       1.0  0.1045784180789795  0.8569945646139913  0.9435165623792799  1.0000
  H   H22       1.0  0.8954222593618654  0.1430036241599595  0.05648267605613465  1.0000
  H   H23       1.0  0.9631489151513648  0.8325413186915682  0.00456233317225944  1.0000
  H   H24       1.0  0.036851762289480006  0.1674568700823826  0.9954360350925953  1.0000
  H   H25       1.0  0.7448222691048586  0.6698295982271603  0.9038201997613341  1.0000
  H   H26       1.0  0.25517782983007464  0.3301696494956019  0.09617853279485189  1.0000
  H   H27       1.0  0.5466476514355634  0.47040624041481754  0.8669213768559628  1.0000
  H   H28       1.0  0.4533524474993769  0.5295930073079447  0.13307822587077567  1.0000
  H   H29       1.0  0.5670474980933875  0.23640290920923232  0.8049463249023887  1.0000
  H   H30       1.0  0.4329555216122003  0.7635963385135298  0.1950554998844609  1.0000
  H   H31       1.0  0.9951326118471967  0.4115657497825893  0.8305322205603644  1.0000
  H   H32       1.0  0.004867487087736297  0.58843349794018  0.16946477165471655  1.0000
  H   H33       1.0  0.2611535825652638  0.47821281104274505  0.42952156083303805  1.0000
  H   H34       1.0  0.7388490420560243  0.5217853777312058  0.5704779987483803  1.0000
  H   H35       1.0  0.9780979390972249  0.8036161319441675  0.3117421987678383  1.0000
  H   H36       1.0  0.021899239067053603  0.1963831157785947  0.6882577924104467  1.0000
  C   C1        1.0  0.4640448003134523  0.6404257666176036  0.5044514804377227  1.0000
  C   C2        1.0  0.535957640886224  0.3595745400539698  0.495548968299353  1.0000
  C   C3        1.0  0.4915930318195905  0.7331356759915124  0.7231051208290963  1.0000
  C   C4        1.0  0.508406305187826  0.2668667485776837  0.276895735344624  1.0000
  C   C5        1.0  0.5379003458042391  0.8158692286256297  0.8668140088261252  1.0000
  C   C6        1.0  0.462097227444346  0.1841310780459438  0.133184766875388  1.0000
  C   C7        1.0  0.4462558374188745  0.7851173551808373  0.9326932957777742  1.0000
  C   C8        1.0  0.5537421309140171  0.2148840104395475  0.06730600478806537  1.0000
  C   C9        1.0  0.3118657498664135  0.675967265530403  0.8581511138961061  1.0000
  C   C10       1.0  0.6881320068037837  0.324030923243555  0.14184677264974968  1.0000
  C   C11       1.0  0.26423988523825415  0.5934677405833071  0.7151147280233018  1.0000
  C   C12       1.0  0.7357598186123794  0.4065304481906438  0.2848834796685509  1.0000
  C   C13       1.0  0.3566761725663383  0.6232443221740169  0.6488408312229622  1.0000
  C   C14       1.0  0.6433243214529015  0.3767559844975565  0.35115842619754994  1.0000
  C   C15       1.0  0.8767625188952834  0.8031300744403396  0.46112593870396507  1.0000
  C   C16       1.0  0.1232362396062214  0.1968734090776678  0.5388752817610865  1.0000
  C   C17       1.0  0.7515037508722884  0.9213818291134359  0.43041388518355456  1.0000
  C   C18       1.0  0.2485037699411805  0.0786216544045715  0.5695879102679555  1.0000
  C   C19       1.0  0.6649037157632023  0.9984171782005049  0.4369712970675507  1.0000
  C   C20       1.0  0.3350972015814405  0.0015894821639364  0.5630325287340341  1.0000
  C   C21       1.0  0.6587290279414262  0.053815778528388605  0.3504530953613241  1.0000
  C   C22       1.0  0.34127402000525825  0.946188763938423  0.6495492922600619  1.0000
  C   C23       1.0  0.7366574259135916  0.0344486637407897  0.2599382364836131  1.0000
  C   C24       1.0  0.26334093750360676  0.9655537608284064  0.7400624591171123  1.0000
  C   C25       1.0  0.8223819088884738  0.9567951952202095  0.2512397543850327  1.0000
  C   C26       1.0  0.1776193752993791  0.0432072293489867  0.7487605527641321  1.0000
  C   C27       1.0  0.8276057582311225  0.9005300680940991  0.3377768270167465  1.0000
  C   C28       1.0  0.1723963161253437  0.0994744743727125  0.6622271403727424  1.0000
  C   C29       1.0  0.9050861927402353  0.7857506065692661  0.7930925599049843  1.0000
  C   C30       1.0  0.09491390619469801  0.2142486411534961  0.20690704282175423  1.0000
  C   C31       1.0  0.9957515614243491  0.7870965305068793  0.9143019392019126  1.0000
  C   C32       1.0  0.004248537510584102  0.2129027172158828  0.08569592318371379  1.0000
  C   C33       1.0  0.8830899248607339  0.5518277554732478  0.8660605604556295  1.0000
  C   C34       1.0  0.1169093839055861  0.4481693743518989  0.13393538203079905  1.0000
  C   C35       1.0  0.757039806597426  0.5696837503088545  0.8782403384578927  1.0000
  C   C36       1.0  0.24296144934933042  0.43031337951628507  0.12175592517452567  1.0000
  C   C37       1.0  0.6443309897584655  0.4557514478320854  0.8570123053484906  1.0000
  C   C38       1.0  0.3556696876823793  0.5442467409418654  0.14298606291636415  1.0000
  C   C39       1.0  0.6552070122635527  0.3256511149229837  0.8238036215045099  1.0000
  C   C40       1.0  0.344793665177292  0.6743470738509743  0.17619561693089728  1.0000
  C   C41       1.0  0.7826926756174472  0.3096726363276474  0.814343777523156  1.0000
  C   C42       1.0  0.2173093704979223  0.6903266113951219  0.18565527617902683  1.0000
  C   C43       1.0  0.8954071462104025  0.4225110446836027  0.8356887151127097  1.0000
  C   C44       1.0  0.10459216255591743  0.577486085141544  0.16430722737371176  1.0000
  C   C45       1.0  0.8022761411245156  0.1737025501642506  0.7809132487859998  1.0000
  C   C46       1.0  0.1977225891358927  0.8262956386097002  0.21908827901506803  1.0000
  N   N1        1.0  0.5555638103800788  0.7410322572682944  0.6289502656777798  1.0000
  N   N2        1.0  0.4444357100489428  0.2589680494032791  0.37105057151083554  1.0000
  N   N3        1.0  0.3440365626701478  0.5675584400470228  0.5111551445180993  1.0000
  N   N4        1.0  0.6559645098550035  0.4324408076757464  0.48884461878164126  1.0000
  N   N5        1.0  0.7847149772340816  0.8586126383957975  0.5061337396056587  1.0000
  N   N6        1.0  0.21528670203807823  0.1413908451222099  0.493869702919504  1.0000
  N   N7        1.0  0.9040302126889088  0.8243334064646177  0.35997312804197173  1.0000
  N   N8        1.0  0.0959681507282895  0.1756690181045784  0.6400293078998515  1.0000
  O   O1        1.0  0.8747975813742314  0.8970906023589578  0.8281837742965763  1.0000
  O   O2        1.0  0.1252036745725249  0.1029065274661889  0.17181422967695428  1.0000
  O   O3        1.0  0.8690124686949475  0.6852362444650524  0.6721613387295662  1.0000
  O   O4        1.0  0.1309878136615978  0.3147608853600943  0.3278347643298503  1.0000
  O   O5        1.0  0.000696558377775596  0.6527815813336488  0.8830312617842893  1.0000
  O   O6        1.0  0.9993027503885444  0.3472155484914978  0.11696642104324438  1.0000
  O   O7        1.0  0.6969903213968607  0.068523518551622  0.7589097041909127  1.0000
  O   O8        1.0  0.3030086205262564  0.9314778470687628  0.24109497797125104  1.0000
  O   O9        1.0  0.91877270650658  0.164370034300994  0.773260510377547  1.0000
  O   O10       1.0  0.08122620717543334  0.8356260365753414  0.226737517756206  1.0000
