data_image0
_chemical_formula_structural       Zr6Cu8H48C48I8N8O32
_chemical_formula_sum              "Zr6 Cu8 H48 C48 I8 N8 O32"
_cell_length_a       17.58356494627448
_cell_length_b       17.583703040096303
_cell_length_c       21.44878107532112
_cell_angle_alpha    114.21164756066052
_cell_angle_beta     114.21072363916146
_cell_angle_gamma    89.98243499526775

_space_group_name_H-M_alt    "P 1"
_space_group_IT_number       1

loop_
  _space_group_symop_operation_xyz
  'x, y, z'

loop_
  _atom_site_type_symbol
  _atom_site_label
  _atom_site_symmetry_multiplicity
  _atom_site_fract_x
  _atom_site_fract_y
  _atom_site_fract_z
  _atom_site_occupancy
  Zr  Zr1       1.0  0.07500322479973683  0.0750023548284418  0.14997790523365503  1.0000
  Zr  Zr2       1.0  0.9249961875461638  0.9249963364000989  0.850022554044152  1.0000
  Zr  Zr3       1.0  0.9999861536350422  0.8419451798822022  5.442123750748364e-06  1.0000
  Zr  Zr4       1.0  0.8419458258123313  0.99998741571283  7.646784951037103e-06  1.0000
  Zr  Zr5       1.0  1.2060527602486781e-05  0.1580531294652232  0.9999919150205514  1.0000
  Zr  Zr6       1.0  0.15805506312218398  1.3015461526282125e-05  0.9999936500316764  1.0000
  Cu  Cu1       1.0  0.22532244133515178  0.6513385192468206  0.4507480679888545  1.0000
  Cu  Cu2       1.0  0.6513376352411698  0.22532017261691106  0.45075045206106523  1.0000
  Cu  Cu3       1.0  0.22533092879302066  0.7994513881790367  0.4507487864673223  1.0000
  Cu  Cu4       1.0  0.7994566084215505  0.22532484960907342  0.45075107241216017  1.0000
  Cu  Cu5       1.0  0.774671200838249  0.20055080088317112  0.549256290771176  1.0000
  Cu  Cu6       1.0  0.7746771357454848  0.34866204335867923  0.5492525559437098  1.0000
  Cu  Cu7       1.0  0.2005461420100474  0.7746719444017316  0.5492495380096472  1.0000
  Cu  Cu8       1.0  0.34866313470347887  0.7746771392197118  0.5492507255062904  1.0000
  H   H1        1.0  0.15712616144030989  0.9426238644385593  0.09973668986327777  1.0000
  H   H2        1.0  0.942631483875104  0.9426323742999256  0.09976719804782157  1.0000
  H   H3        1.0  0.9426249170364827  0.15712645189498892  0.0997379280845578  1.0000
  H   H4        1.0  0.1571550308942378  0.1571566439416117  0.09976184275792832  1.0000
  H   H5        1.0  0.8428429355945468  0.8428432986328714  0.9002371745364711  1.0000
  H   H6        1.0  0.05736868536222769  0.05736605857989468  0.9002327448942252  1.0000
  H   H7        1.0  0.842872229239063  0.05737470100079629  0.9002621146687345  1.0000
  H   H8        1.0  0.057375841126166345  0.8428724752266702  0.9002619667498521  1.0000
  H   H9        1.0  0.11752659830430909  0.7304647291880785  0.9999920986341239  1.0000
  H   H10       1.0  0.7304465411914335  0.882447407006083  0.9999894315795713  1.0000
  H   H11       1.0  0.8824728108102208  0.2695365860079662  8.993526556590495e-06  1.0000
  H   H12       1.0  0.26955172080394624  0.1175559109980711  1.1152351802914968e-05  1.0000
  H   H13       1.0  0.8824473866543485  0.7304526476141289  0.9999943444084494  1.0000
  H   H14       1.0  0.1175478168041906  0.2695450450874546  9.519773402144902e-09  1.0000
  H   H15       1.0  0.7304600481283572  0.11752463114396507  0.9999895987980522  1.0000
  H   H16       1.0  0.26953990739799133  0.8824758022871818  1.076696662488513e-05  1.0000
  H   H17       1.0  0.2255040596452958  0.48131202271919454  0.4511758560562171  1.0000
  H   H18       1.0  0.48131319090033753  0.2255040712232912  0.4511761547680564  1.0000
  H   H19       1.0  0.22550460820852444  0.9699348683051597  0.4511789045246246  1.0000
  H   H20       1.0  0.969934327238562  0.22550845094176  0.45118500831675595  1.0000
  H   H21       1.0  0.7744980507333281  0.03006442162718772  0.5488216150862044  1.0000
  H   H22       1.0  0.7744991796712528  0.5186867527725102  0.548822699831142  1.0000
  H   H23       1.0  0.030062853715165157  0.774495015307174  0.548818311139584  1.0000
  H   H24       1.0  0.5186908138582638  0.7744954546021746  0.5488238003993686  1.0000
  H   H25       1.0  0.17507989643831218  0.327958388579411  0.35026822169258753  1.0000
  H   H26       1.0  0.3279576012120557  0.1750817150504957  0.35026917455731166  1.0000
  H   H27       1.0  0.17506703508696125  0.02234834655079249  0.3502761960259733  1.0000
  H   H28       1.0  0.022347266887642544  0.1750716949195663  0.3502808367816215  1.0000
  H   H29       1.0  0.82493440025938  0.9776512028586595  0.649724374394644  1.0000
  H   H30       1.0  0.8249220310243572  0.6720405183434365  0.6497296613107082  1.0000
  H   H31       1.0  0.977649825807724  0.8249316432833992  0.649721758980867  1.0000
  H   H32       1.0  0.6720439531241453  0.8249209536966974  0.6497315151125775  1.0000
  H   H33       1.0  0.08997122504877102  0.4197762514696919  0.1798108049266105  1.0000
  H   H34       1.0  0.4197802043735663  0.08997509854495432  0.17981111078803744  1.0000
  H   H35       1.0  0.08999708262525273  0.7600160977360491  0.1798442550771641  1.0000
  H   H36       1.0  0.7600140486771565  0.09000141602691505  0.1798504556874575  1.0000
  H   H37       1.0  0.9100047854622987  0.23998308322074996  0.8201580181968922  1.0000
  H   H38       1.0  0.9100277885187966  0.5802231755357566  0.8201867141702978  1.0000
  H   H39       1.0  0.23998271131735996  0.9100008033896358  0.8201524436484036  1.0000
  H   H40       1.0  0.580222140816936  0.9100276791777872  0.8201878252186178  1.0000
  H   H41       1.0  0.14375516193922516  0.5691312773228104  0.2874277125425664  1.0000
  H   H42       1.0  0.5691341361651611  0.1437562012674505  0.2874280551942475  1.0000
  H   H43       1.0  0.14378835955393746  0.7183219377978958  0.28744564458347804  1.0000
  H   H44       1.0  0.7183228872523274  0.1437919011282247  0.2874533171880386  1.0000
  H   H45       1.0  0.8562145981258809  0.28167810359660445  0.7125558087814454  1.0000
  H   H46       1.0  0.8562450412609836  0.4308675228812719  0.7125709930720135  1.0000
  H   H47       1.0  0.28167636244671007  0.8562111753408459  0.7125501588165976  1.0000
  H   H48       1.0  0.43086712266444493  0.8562430920500715  0.7125710678386595  1.0000
  C   C1        1.0  0.19498134645510126  0.46419775431035487  0.3901486020392255  1.0000
  C   C2        1.0  0.46419860592231293  0.19498295406219773  0.3901476523847975  1.0000
  C   C3        1.0  0.1950097726374621  0.926015452227638  0.39014985818928943  1.0000
  C   C4        1.0  0.9260136331155807  0.19501210713605138  0.39015478291470623  1.0000
  C   C5        1.0  0.8049919954097221  0.07398521596822863  0.6098504086579624  1.0000
  C   C6        1.0  0.8050192777043108  0.5358022927261104  0.6098505236958331  1.0000
  C   C7        1.0  0.0739840059916048  0.8049903493020096  0.6098470864517722  1.0000
  C   C8        1.0  0.5358031535742498  0.8050167054511945  0.6098506988466211  1.0000
  C   C9        1.0  0.16709081108977838  0.3798493514996011  0.33432058258588165  1.0000
  C   C10       1.0  0.3798485632671884  0.1670918355423012  0.3343211389707506  1.0000
  C   C11       1.0  0.16711230627492313  0.9545089508111814  0.334319917858565  1.0000
  C   C12       1.0  0.9545079315936602  0.16711674696792034  0.33432506159151393  1.0000
  C   C13       1.0  0.832890474888167  0.04549083449138893  0.6656800881186555  1.0000
  C   C14       1.0  0.8329106921823095  0.6201509325583744  0.6656775131798085  1.0000
  C   C15       1.0  0.04548962780578607  0.8328865901066536  0.6656779996969462  1.0000
  C   C16       1.0  0.6201519811844777  0.8329090921306771  0.6656791786862897  1.0000
  C   C17       1.0  0.12859081360122804  0.36281948133953534  0.2572267584415187  1.0000
  C   C18       1.0  0.3628222917170801  0.1285919370310751  0.2572271677166853  1.0000
  C   C19       1.0  0.12861180476559037  0.8944275682258718  0.25722994305437646  1.0000
  C   C20       1.0  0.8944279644242953  0.12861553680533436  0.2572352962680853  1.0000
  C   C21       1.0  0.8713895083595132  0.105571485813357  0.7427711409998565  1.0000
  C   C22       1.0  0.8714090026026398  0.6371784393564255  0.742770289725108  1.0000
  C   C23       1.0  0.10556959497514384  0.8713878002692395  0.7427677650203748  1.0000
  C   C24       1.0  0.6371791743607531  0.8714106036701493  0.7427727982593453  1.0000
  C   C25       1.0  0.11972728712189  0.4315079433662632  0.23939542538086303  1.0000
  C   C26       1.0  0.4315116532675064  0.11972919781465659  0.23939624490282801  1.0000
  C   C27       1.0  0.11976112481144698  0.8079002530423053  0.23942361785540098  1.0000
  C   C28       1.0  0.8079004800075964  0.11976518498187261  0.2394289285832016  1.0000
  C   C29       1.0  0.8802397216095699  0.19209880212531522  0.7605770006728535  1.0000
  C   C30       1.0  0.880272659853837  0.5684914813824024  0.7606030247679882  1.0000
  C   C31       1.0  0.19209753754530823  0.8802371422818281  0.760572682615397  1.0000
  C   C32       1.0  0.5684910024429682  0.8802727160852015  0.7606049075908742  1.0000
  C   C33       1.0  0.14922658240678288  0.5136190054809121  0.2984397140039192  1.0000
  C   C34       1.0  0.5136222937109167  0.14922781440243676  0.29843986893985164  1.0000
  C   C35       1.0  0.14929311419557934  0.7848618240338822  0.2984695734119144  1.0000
  C   C36       1.0  0.7848610169655572  0.14929421312864116  0.2984752876792385  1.0000
  C   C37       1.0  0.8507085316303674  0.21513834879176844  0.7015312070689461  1.0000
  C   C38       1.0  0.850772354684416  0.4863786781935388  0.701558364132083  1.0000
  C   C39       1.0  0.21513657962813684  0.8507068673026835  0.7015259033988812  1.0000
  C   C40       1.0  0.4863798867448493  0.8507730919433384  0.701558902412053  1.0000
  C   C41       1.0  0.0968314979085818  0.2740850458146369  0.1936653746964225  1.0000
  C   C42       1.0  0.2740882176293766  0.09683244701297161  0.1936657542505387  1.0000
  C   C43       1.0  0.09686410088047376  0.9196660305270328  0.1937063133417212  1.0000
  C   C44       1.0  0.9196644421781315  0.0968666110871581  0.19370901643451782  1.0000
  C   C45       1.0  0.9031375449454657  0.08033414229861079  0.8062944671391392  1.0000
  C   C46       1.0  0.9031672712165032  0.7259133904503584  0.8063331716677026  1.0000
  C   C47       1.0  0.08033421004495978  0.9031349624576068  0.8062925920619293  1.0000
  C   C48       1.0  0.7259135504178006  0.9031682211828951  0.8063345125967061  1.0000
  I   I1        1.0  0.2953831512799852  0.6634025303680957  0.5906487063690093  1.0000
  I   I2        1.0  0.6633945433630403  0.29538270446085596  0.5906468996513752  1.0000
  I   I3        1.0  0.2952851256906897  0.9273939671387481  0.5906002045967753  1.0000
  I   I4        1.0  0.9273930123979143  0.295283636340109  0.5905991277084794  1.0000
  I   I5        1.0  0.7047243847957746  0.07261066503507153  0.4094058789542174  1.0000
  I   I6        1.0  0.7046183820188503  0.3365892751847851  0.4093506890968256  1.0000
  I   I7        1.0  0.0726064221288638  0.7047170374977229  0.4093988115089076  1.0000
  I   I8        1.0  0.33660008295218097  0.7046128787138674  0.4093487851174444  1.0000
  N   N1        1.0  0.18635348470570529  0.530203330085328  0.37281437487684593  1.0000
  N   N2        1.0  0.5302024096570294  0.18635245325558705  0.3728129896143741  1.0000
  N   N3        1.0  0.18640346903417532  0.8426709538682359  0.3728421177808626  1.0000
  N   N4        1.0  0.8426685288088509  0.1864059956680961  0.3728505965509188  1.0000
  N   N5        1.0  0.8135986434958511  0.157329217829016  0.6271591282259692  1.0000
  N   N6        1.0  0.8136472223928309  0.4697932123471134  0.627182926053365  1.0000
  N   N7        1.0  0.15732831944403364  0.8135963517944235  0.6271530264787941  1.0000
  N   N8        1.0  0.46979609469295974  0.813645598871517  0.6271833856681894  1.0000
  O   O1        1.0  0.06300733078932552  0.2653768839858373  0.12600751554526823  1.0000
  O   O2        1.0  0.26538215095059303  0.06301093511902421  0.126008343958361  1.0000
  O   O3        1.0  0.06300077090613594  0.8607186804605788  0.12603025032816353  1.0000
  O   O4        1.0  0.8607163258380197  0.06300402367495646  0.12603267639241977  1.0000
  O   O5        1.0  0.9370006644402055  0.13928086894887307  0.8739703200924539  1.0000
  O   O6        1.0  0.936990083968382  0.7346203077035651  0.8739896796464349  1.0000
  O   O7        1.0  0.13927915626548787  0.9369986944969996  0.8739683127319111  1.0000
  O   O8        1.0  0.7346203739880223  0.9369894747281363  0.8739914065531237  1.0000
  O   O9        1.0  0.10640430514394687  0.2129590393428984  0.21281322265926408  1.0000
  O   O10       1.0  0.2129617464365765  0.1064050495504034  0.2128132882429483  1.0000
  O   O11       1.0  0.10649511992814797  0.9999545348146411  0.21289819163180101  1.0000
  O   O12       1.0  0.9999538434998456  0.10649450572803693  0.2128998319629645  1.0000
  O   O13       1.0  0.8935053023022803  4.589748810702369e-05  0.7871026396588547  1.0000
  O   O14       1.0  0.893594964648095  0.7870397631179671  0.7871845519033657  1.0000
  O   O15       1.0  4.485446812187727e-05  0.8935058198559529  0.7871018219389752  1.0000
  O   O16       1.0  0.7870403543114505  0.8935967374318851  0.7871866750309309  1.0000
  O   O17       1.0  0.10933471593349248  0.9636774280135114  0.07302018053864152  1.0000
  O   O18       1.0  0.9636662632355737  0.9636666622801257  0.0730336160907968  1.0000
  O   O19       1.0  0.9636779352905549  0.10933458030486785  0.0730209949130298  1.0000
  O   O20       1.0  0.10938236373674211  0.10938154688497553  0.07301611848983923  1.0000
  O   O21       1.0  0.8906163256806039  0.8906177700165399  0.9269836197962604  1.0000
  O   O22       1.0  0.03633310336545753  0.03633327690918969  0.9269667977815245  1.0000
  O   O23       1.0  0.8906635067797666  0.03632189001639571  0.9269790922214866  1.0000
  O   O24       1.0  0.03632176724269709  0.8906638537033444  0.9269784825030386  1.0000
  O   O25       1.0  0.09032494142847007  0.7780182934208995  0.9999863713606416  1.0000
  O   O26       1.0  0.7779479990479101  0.9097431315833829  7.890650749584765e-06  1.0000
  O   O27       1.0  0.9096721628092724  0.22197976209137948  8.60734400732167e-06  1.0000
  O   O28       1.0  0.22205174599883298  0.0902566784315724  0.9999922650536915  1.0000
  O   O29       1.0  0.9097399763182422  0.7779490737362308  5.024593214450151e-06  1.0000
  O   O30       1.0  0.09026040339869479  0.22204998255978128  0.9999951284090756  1.0000
  O   O31       1.0  0.7780186272847446  0.09032684126437124  0.999990254946866  1.0000
  O   O32       1.0  0.22197869921460261  0.90967022237907  6.2165509788451015e-06  1.0000
