data_image0
_chemical_formula_structural       Sr2H20C12N16O24
_chemical_formula_sum              "Sr2 H20 C12 N16 O24"
_cell_length_a       6.326174934469675
_cell_length_b       8.965599800259854
_cell_length_c       14.774484373036765
_cell_angle_alpha    74.87732320523648
_cell_angle_beta     77.65472781022643
_cell_angle_gamma    69.35682336525237

_space_group_name_H-M_alt    "P 1"
_space_group_IT_number       1

loop_
  _space_group_symop_operation_xyz
  'x, y, z'

loop_
  _atom_site_type_symbol
  _atom_site_label
  _atom_site_symmetry_multiplicity
  _atom_site_fract_x
  _atom_site_fract_y
  _atom_site_fract_z
  _atom_site_occupancy
  Sr  Sr1       1.0  0.16423879226815785  0.24999326526592822  0.7499989328020646  1.0000
  Sr  Sr2       1.0  0.8357595596660519  0.7500069633363965  0.250001023901497  1.0000
  H   H1        1.0  0.3951796942204523  0.33777001788308064  0.9099022066824322  1.0000
  H   H2        1.0  0.6425335840904083  0.1622744685441049  0.5900336872515128  1.0000
  H   H3        1.0  0.6048208051461403  0.6622253418064401  0.09009832270978546  1.0000
  H   H4        1.0  0.35746276149693335  0.8377269773134868  0.4099659774029761  1.0000
  H   H5        1.0  0.46206597400006877  0.4106162272750779  0.8035521492253255  1.0000
  H   H6        1.0  0.6757375670078078  0.0894026751499553  0.6964013703726694  1.0000
  H   H7        1.0  0.537935853769774  0.5893827840449077  0.19644824840419522  1.0000
  H   H8        1.0  0.3242629316167437  0.9105975541741455  0.30359805843891513  1.0000
  H   H9        1.0  0.8997428157638298  0.014605640973343294  0.8982491157497848  1.0000
  H   H10       1.0  0.8122729491921348  0.4853743789930291  0.6017936615505948  1.0000
  H   H11       1.0  0.10026022606568566  0.9853921538672876  0.10175074828303117  1.0000
  H   H12       1.0  0.1877280862905195  0.514624633102862  0.39820591043315556  1.0000
  H   H13       1.0  0.7181795748083745  0.1687428553601293  0.8484036322551631  1.0000
  H   H14       1.0  0.7349963973484254  0.33122979387729856  0.6515996063015805  1.0000
  H   H15       1.0  0.28182146067427266  0.831256156735769  0.15159593972858693  1.0000
  H   H16       1.0  0.2650041012761267  0.6687704354468021  0.34839982251000384  1.0000
  H   H17       1.0  0.7513029206735669  0.6659461244842928  0.7409962446112887  1.0000
  H   H18       1.0  0.15788346668465864  0.8341086170924682  0.7590237800582289  1.0000
  H   H19       1.0  0.2486930551411106  0.3340492368111753  0.2590023357355804  1.0000
  H   H20       1.0  0.8421112423284853  0.16590013058250713  0.2409766768548139  1.0000
  C   C1        1.0  0.8136556712627224  0.464626002329119  0.9498712820408103  1.0000
  C   C2        1.0  0.22791970902692077  0.03535301434387609  0.550136444304222  1.0000
  C   C3        1.0  0.1863437803875883  0.5353681416840104  0.050127739232024716  1.0000
  C   C4        1.0  0.7720760997023248  0.9646496487419112  0.4498630771781081  1.0000
  C   C5        1.0  0.7512879180756542  0.6215301032605894  0.8166558086296903  1.0000
  C   C6        1.0  0.18911809649712533  0.8785151266782024  0.6833601733028304  1.0000
  C   C7        1.0  0.24871568661187382  0.37846282421905636  0.18334297680023334  1.0000
  C   C8        1.0  0.8108758202288231  0.12149362177268586  0.31663945796444193  1.0000
  C   C9        1.0  0.6415757394394103  0.7043684297681737  0.8915191326100215  1.0000
  C   C10       1.0  0.23731458565787023  0.7955912116888512  0.608521910630266  1.0000
  C   C11       1.0  0.35842693187539265  0.295628150144914  0.10847854653453486  1.0000
  C   C12       1.0  0.7626824111311378  0.20441388505036426  0.3914782990303963  1.0000
  N   N1        1.0  0.86252399321836  0.4670976820390321  0.8553344345167987  1.0000
  N   N2        1.0  0.18461780615218237  0.032963359762874206  0.644669274019421  1.0000
  N   N3        1.0  0.13748108095793307  0.5328952454135417  0.14466449979003224  1.0000
  N   N4        1.0  0.8153766474318619  0.9670441714598111  0.355330500420017  1.0000
  N   N5        1.0  0.6807445351409029  0.6037965812049818  0.9763928928350085  1.0000
  N   N6        1.0  0.2608390255450741  0.8961160667293698  0.5236380231634926  1.0000
  N   N7        1.0  0.3192558491400845  0.3961987800092856  0.023606134142568222  1.0000
  N   N8        1.0  0.7391650632586819  0.10388781342221878  0.47636224840806574  1.0000
  N   N9        1.0  0.8949538434942711  0.3198078780785281  0.018238808185294934  1.0000
  N   N10       1.0  0.23292232240147093  0.1801117839397648  0.4817365075331639  1.0000
  N   N11       1.0  0.10504812536108644  0.6801874815839212  0.9817618700838227  1.0000
  N   N12       1.0  0.7670753515891136  0.8198933135482916  0.5182630253586283  1.0000
  N   N13       1.0  0.4959072254519654  0.8671052662011361  0.8857680567311664  1.0000
  N   N14       1.0  0.24872882220001458  0.6328039262476606  0.6143526766142389  1.0000
  N   N15       1.0  0.5040924816274384  0.1328900942642903  0.11423164701527364  1.0000
  N   N16       1.0  0.7512739122005888  0.36719995240623854  0.38564894849506715  1.0000
  O   O1        1.0  0.029082809657111835  0.19614227910994225  0.9893720371233244  1.0000
  O   O2        1.0  0.21433565109111177  0.30385409799465884  0.510584877273658  1.0000
  O   O3        1.0  0.9709161949628469  0.8038518611048459  0.010630665747683668  1.0000
  O   O4        1.0  0.7856633513027159  0.6961546511238694  0.48941452385543743  1.0000
  O   O5        1.0  0.8267438640466764  0.32479166735026155  0.10346457758170405  1.0000
  O   O6        1.0  0.25528249215982857  0.17500847720615548  0.39650133863485604  1.0000
  O   O7        1.0  0.17325355525685635  0.6752073440509248  0.8965353734171162  1.0000
  O   O8        1.0  0.7447166520615697  0.8249917506202493  0.6034994437144763  1.0000
  O   O9        1.0  0.4717020983584557  0.9534082185733012  0.80383039576617  1.0000
  O   O10       1.0  0.2282987347032944  0.5467770634908502  0.6963423404252539  1.0000
  O   O11       1.0  0.5282963946612683  0.046588358371487  0.19616984157698886  1.0000
  O   O12       1.0  0.7716928689889143  0.45323411639400035  0.30365986045008253  1.0000
  O   O13       1.0  0.39640440477459987  0.9164396721036848  0.9591455761925617  1.0000
  O   O14       1.0  0.27256568952086  0.5831818867096671  0.5410153818339226  1.0000
  O   O15       1.0  0.6035987781404446  0.08355447107940958  0.04085456847985115  1.0000
  O   O16       1.0  0.7274422463752827  0.4168171214525458  0.4589886161324871  1.0000
  O   O17       1.0  0.4427436159660514  0.31065788146665346  0.8453532522821378  1.0000
  O   O18       1.0  0.5981580233202235  0.18932356758792676  0.6546002005992336  1.0000
  O   O19       1.0  0.5572552728262467  0.6893411299074687  0.15464684759358255  1.0000
  O   O20       1.0  0.40184179810275106  0.8106766609873262  0.3453999049812212  1.0000
  O   O21       1.0  0.8763309801986306  0.09308201344462218  0.8382669665502862  1.0000
  O   O22       1.0  0.8073892102588685  0.40687735054997626  0.6617682377131048  1.0000
  O   O23       1.0  0.12367084757121215  0.9069169978753633  0.1617334310792345  1.0000
  O   O24       1.0  0.19260939710442676  0.5931240945046311  0.3382324014640616  1.0000
