data_image0
_chemical_formula_structural       Zn4H70C81N16O6
_chemical_formula_sum              "Zn4 H70 C81 N16 O6"
_cell_length_a       19.257043828691568
_cell_length_b       19.922975832670502
_cell_length_c       20.270434007287086
_cell_angle_alpha    110.45531827536658
_cell_angle_beta     106.0473987779828
_cell_angle_gamma    110.18751052650603

_space_group_name_H-M_alt    "P 1"
_space_group_IT_number       1

loop_
  _space_group_symop_operation_xyz
  'x, y, z'

loop_
  _atom_site_type_symbol
  _atom_site_label
  _atom_site_symmetry_multiplicity
  _atom_site_fract_x
  _atom_site_fract_y
  _atom_site_fract_z
  _atom_site_occupancy
  Zn  Zn1       1.0  0.013447659564612052  0.6084077252746951  0.0994681001824275  1.0000
  Zn  Zn2       1.0  0.010974122412996215  0.4048231227003569  0.8951754321259313  1.0000
  Zn  Zn3       1.0  0.13205685384406252  0.6185317858314292  0.9932104340197653  1.0000
  Zn  Zn4       1.0  0.8772626040124007  0.3962421455010058  0.9748305693460179  1.0000
  H   H1        1.0  0.9601432722822595  0.7391757031464578  0.09411483987012292  1.0000
  H   H2        1.0  0.8471805671253777  0.35981644311733146  0.48064324388743507  1.0000
  H   H3        1.0  0.9729926685187066  0.009023836297146199  0.14119494860765508  1.0000
  H   H4        1.0  0.9807706320326371  0.14011416417297076  0.15244376946186822  1.0000
  H   H5        1.0  0.2011210307952283  0.19981550555858257  0.11881087840009734  1.0000
  H   H6        1.0  0.07357694391676267  0.6367159958692951  0.8276862172883951  1.0000
  H   H7        1.0  0.8845075315314544  0.3907570663535722  0.7477464602124967  1.0000
  H   H8        1.0  0.7114267974653001  0.2662485662304874  0.818843572111831  1.0000
  H   H9        1.0  0.016035237230944594  0.635420498502988  0.27662747081843253  1.0000
  H   H10       1.0  0.4338701579200758  0.7446925180019617  0.2226987987792979  1.0000
  H   H11       1.0  0.42258728774906723  0.8336341377156413  0.2640198342473282  1.0000
  H   H12       1.0  0.15992576328020647  0.34992129021335217  0.9014284668363998  1.0000
  H   H13       1.0  0.4516749635453009  0.8151374998369645  0.18509179784305715  1.0000
  H   H14       1.0  0.8048735230056181  0.0889304691138975  0.02780930863356452  1.0000
  H   H15       1.0  0.7316499612648001  0.08881057539681336  0.9517913270828158  1.0000
  H   H16       1.0  0.7718509827912854  0.020726862848498204  0.9273590241857972  1.0000
  H   H17       1.0  0.8409000295986147  0.1406896884038957  0.9086463079485723  1.0000
  H   H18       1.0  0.9134987665391135  0.13986196525078037  0.9836020474149689  1.0000
  H   H19       1.0  0.9006196422894988  0.2437597642911271  0.08640481720922111  1.0000
  H   H20       1.0  0.8286937950637349  0.24515344180294815  0.010708930330281275  1.0000
  H   H21       1.0  0.5544272423411841  0.6736524551530605  0.2839411662085992  1.0000
  H   H22       1.0  0.6607707828694414  0.741738517254447  0.3520817724406981  1.0000
  H   H23       1.0  0.13923611941899589  0.4121906515488831  0.049781514302253485  1.0000
  H   H24       1.0  0.6071013930375672  0.646978804771308  0.3484188218946043  1.0000
  H   H25       1.0  0.6229066994133773  0.7622685540634746  0.4654835449442555  1.0000
  H   H26       1.0  0.5172268521199824  0.6959360683850447  0.3972850295442709  1.0000
  H   H27       1.0  0.52231728602262  0.7908311744320712  0.34230272367189213  1.0000
  H   H28       1.0  0.6286073933157895  0.8579230194685151  0.40998951351814833  1.0000
  H   H29       1.0  0.8027972258594926  0.14703455959483588  0.6193759372673072  1.0000
  H   H30       1.0  0.8161006403864164  0.08313508147212188  0.6601787711018544  1.0000
  H   H31       1.0  0.8939769943550644  0.1359690188560876  0.6367121379284626  1.0000
  H   H32       1.0  0.7878424692495115  0.6014201540116203  0.39017371920074573  1.0000
  H   H33       1.0  0.8409383176164623  0.5784964735317927  0.33241359815917776  1.0000
  H   H34       1.0  0.15547872332160742  0.6265405002661593  0.242418395632235  1.0000
  H   H35       1.0  0.8733500688162364  0.6833251890187809  0.39788149462457056  1.0000
  H   H36       1.0  0.9990452508886916  0.8086308624365868  0.6963208900889054  1.0000
  H   H37       1.0  0.9940658563871523  0.7606720361898168  0.7552674073668795  1.0000
  H   H38       1.0  0.09012328924109166  0.81449349759891  0.7565542256214497  1.0000
  H   H39       1.0  0.030842986686323567  0.6621867245365036  0.6734651116736216  1.0000
  H   H40       1.0  0.0347575715016575  0.709631400398507  0.6144554468671328  1.0000
  H   H41       1.0  0.8850823285857318  0.6693800233960802  0.5727068636638322  1.0000
  H   H42       1.0  0.8812159872483676  0.6221791780586372  0.6325931018987558  1.0000
  H   H43       1.0  0.9363580558952833  0.32332555072512287  0.3945054979302326  1.0000
  H   H44       1.0  0.9515800961250777  0.3764809680307976  0.33949940832695086  1.0000
  H   H45       1.0  0.881392603777606  0.37083964853633217  0.12572513733216784  1.0000
  H   H46       1.0  0.88069636167954  0.26809574853639606  0.2886403209733998  1.0000
  H   H47       1.0  0.3098891019292154  0.17428340228055106  0.15887595728202794  1.0000
  H   H48       1.0  0.2511501539592089  0.12498475039874529  0.05351028098516509  1.0000
  H   H49       1.0  0.3090599475488744  0.08423218851782369  0.09576889617368778  1.0000
  H   H50       1.0  0.5829226589871227  0.35553376074585685  0.9117292625642861  1.0000
  H   H51       1.0  0.61052363723212  0.3386080743614883  0.9942202784398544  1.0000
  H   H52       1.0  0.578988013953868  0.2596276364842183  0.8970991010294964  1.0000
  H   H53       1.0  0.853849067611634  0.7980195418004286  0.2261234280614344  1.0000
  H   H54       1.0  0.9248070115891948  0.8270690474181847  0.1879351545164594  1.0000
  H   H55       1.0  0.8278906200145287  0.8232355968294485  0.1502897472651909  1.0000
  H   H56       1.0  0.3007335755061789  0.613002185191462  0.06115836262627987  1.0000
  H   H57       1.0  0.8246294808413026  0.6984250561078652  0.05561014684338501  1.0000
  H   H58       1.0  0.7525672647477107  0.6705113577952274  0.09192041056208199  1.0000
  H   H59       1.0  0.847195614848495  0.6554678084588587  0.18878942334022486  1.0000
  H   H60       1.0  0.9266416683503493  0.6907829772052594  0.16233799670597177  1.0000
  H   H61       1.0  0.2627702418562593  0.936630339136869  0.9905492344714375  1.0000
  H   H62       1.0  0.23600614101310663  0.8426083014055336  0.9106667757666854  1.0000
  H   H63       1.0  0.19221882900078674  0.9036705023978442  0.8934544060902706  1.0000
  H   H64       1.0  0.08832967581651018  0.7835099423453186  0.8929088493235537  1.0000
  H   H65       1.0  0.11464797459167654  0.878040211912179  0.9706873425935354  1.0000
  H   H66       1.0  0.2195340288483578  0.8654991994490684  0.06392863704005666  1.0000
  H   H67       1.0  0.671089886282516  0.9529997029471885  0.54190166435621  1.0000
  H   H68       1.0  0.19069978916373742  0.7688318263560205  0.9877825009100005  1.0000
  H   H69       1.0  0.37965270313498684  0.8398101705632256  0.49974909685098357  1.0000
  H   H70       1.0  0.4904038877102862  0.9657964487212707  0.6252663016921286  1.0000
  C   C1        1.0  0.005604441335577879  0.7407952863640901  0.07214032743848965  1.0000
  C   C2        1.0  0.18430501873113775  0.6474075991409762  0.20920287477511576  1.0000
  C   C3        1.0  0.9176428433973881  0.43697487783369837  0.1517874409031065  1.0000
  C   C4        1.0  0.8520956140720841  0.2383368674028148  0.7691775918493278  1.0000
  C   C5        1.0  0.2536120961476697  0.5499587707551326  0.017605210977826774  1.0000
  C   C6        1.0  0.9375978867324762  0.49877539745077826  0.22630320675374083  1.0000
  C   C7        1.0  0.2625154426263661  0.4789911380260815  0.9937911519514129  1.0000
  C   C8        1.0  0.26977916558125503  0.694226202480344  0.23269473558435283  1.0000
  C   C9        1.0  0.038532602440994865  0.32346556842586677  0.06087294836950713  1.0000
  C   C10       1.0  0.6813560816548829  0.5032332909490265  0.06340849712793059  1.0000
  C   C11       1.0  0.6212973241423966  0.5023562951384548  0.07454142563950936  1.0000
  C   C12       1.0  0.7676738714006247  0.20167764423342757  0.7544209223939616  1.0000
  C   C13       1.0  0.5501724998739235  0.49736670243873243  0.07449872842209967  1.0000
  C   C14       1.0  0.48104737445471096  0.48997141091421514  0.0649095896609565  1.0000
  C   C15       1.0  0.4055588173240068  0.48297787665335074  0.0457744378991477  1.0000
  C   C16       1.0  0.03476085143601888  0.577797996963163  0.820819442837802  1.0000
  C   C17       1.0  0.3364943404408223  0.47714370585091354  0.021448884670597503  1.0000
  C   C18       1.0  0.5459256095108955  0.8563251976103953  0.46221691852743124  1.0000
  C   C19       1.0  0.46189867924009304  0.8266654329594443  0.44853539398891207  1.0000
  C   C20       1.0  0.4440153445306549  0.8647177334131297  0.5099188711350278  1.0000
  C   C21       1.0  0.5056714249734497  0.9351016909282919  0.5798809340774936  1.0000
  C   C22       1.0  0.588137861478927  0.9702696315722648  0.5907735860928156  1.0000
  C   C23       1.0  0.9605309787669967  0.5104748548847908  0.7549729483816847  1.0000
  C   C24       1.0  0.6069425198957887  0.9274557179077191  0.5326587927824631  1.0000
  C   C25       1.0  0.39549383360152746  0.7673250029856999  0.3723810576458957  1.0000
  C   C26       1.0  0.6498627386109419  0.0493018483103285  0.6541074795002756  1.0000
  C   C27       1.0  0.7040857634081732  0.1205288905761179  0.7010672750438829  1.0000
  C   C28       1.0  0.7489454205904593  0.4359378830782532  0.9924326773760653  1.0000
  C   C29       1.0  0.33650449671893057  0.7299540011085526  0.30695089818281907  1.0000
  C   C30       1.0  0.8920539458553733  0.5586955516091404  0.5301079607669619  1.0000
  C   C31       1.0  0.8809175995507059  0.48882247953587665  0.5391253372681318  1.0000
  C   C32       1.0  0.8593623031908706  0.41451383599044783  0.47478201276621224  1.0000
  C   C33       1.0  0.8571390745501188  0.411481512806148  0.40486138236213504  1.0000
  C   C34       1.0  0.7461144731588475  0.5023459743654256  0.045796065657583374  1.0000
  C   C35       1.0  0.8767336046784067  0.4827431878127228  0.3968491679072342  1.0000
  C   C36       1.0  0.8895129631218595  0.5545118970524497  0.45897026058279505  1.0000
  C   C37       1.0  0.897972347836145  0.4950682456903762  0.6143652374386618  1.0000
  C   C38       1.0  0.8916333517456536  0.4842095073215588  0.33304167547024116  1.0000
  C   C39       1.0  0.9132089544170726  0.48973636475854226  0.28303628466115777  1.0000
  C   C40       1.0  0.9378114669281531  0.4518781813326169  0.7797143127119168  1.0000
  C   C41       1.0  0.9234355719008462  0.5017571862990522  0.6799258784864148  1.0000
  C   C42       1.0  0.02747927700965389  0.12444360386655257  0.14328084833352506  1.0000
  C   C43       1.0  0.09008940808264747  0.17705334473107104  0.13362026370848665  1.0000
  C   C44       1.0  0.15229401172215523  0.158034771427964  0.12468400480017998  1.0000
  C   C45       1.0  0.9863500638966157  0.5724148502097249  0.22955307275138617  1.0000
  C   C46       1.0  0.1479265695565886  0.08480263472361571  0.11870877988565806  1.0000
  C   C47       1.0  0.08078908200213418  0.028124362374946095  0.12154722266903659  1.0000
  C   C48       1.0  0.0232087373259589  0.051325267145081496  0.13691230100186397  1.0000
  C   C49       1.0  0.08452936052997019  0.241834316387326  0.12302471424033704  1.0000
  C   C50       1.0  0.07130094476494254  0.9497532417242878  0.1045611719291129  1.0000
  C   C51       1.0  0.06232716498173825  0.8806435496694645  0.08356875088947634  1.0000
  C   C52       1.0  0.8265958593078295  0.5706143514428774  0.07735404672335729  1.0000
  C   C53       1.0  0.07082517723641499  0.2867511438604921  0.09925220312823764  1.0000
  C   C54       1.0  0.7642276889324009  0.2664372789336226  0.8091523893753418  1.0000
  C   C55       1.0  0.1013475682498495  0.7709055714886971  0.029753075461755287  1.0000
  C   C56       1.0  0.182128218428609  0.4152953597019504  0.9351405736728038  1.0000
  C   C57       1.0  0.05534114487386433  0.8027843910205446  0.06178889252276308  1.0000
  C   C58       1.0  0.41467120025234994  0.7863972397477567  0.20969244066466064  1.0000
  C   C59       1.0  0.8830715018192163  0.23614390879685487  0.02663681052106164  1.0000
  C   C60       1.0  0.858628563329674  0.147990477212538  0.9682721549833886  1.0000
  C   C61       1.0  0.7878820687734773  0.08307467768226927  0.9687983213375374  1.0000
  C   C62       1.0  0.5692086916033714  0.8134735532210084  0.4018206086527909  1.0000
  C   C63       1.0  0.5767628241892666  0.7403921851803686  0.4057623513895975  1.0000
  C   C64       1.0  0.6010514916884375  0.6984033911357699  0.3442821346002845  1.0000
  C   C65       1.0  0.8483291174919643  0.13930451180758038  0.6582110727658161  1.0000
  C   C66       1.0  0.848361692459292  0.620806389826775  0.3892893965070951  1.0000
  C   C67       1.0  0.2697701503734109  0.7033660039735776  0.16616338661185628  1.0000
  C   C68       1.0  0.9112077685482448  0.6371885966227779  0.5968434882359188  1.0000
  C   C69       1.0  0.004747837562589936  0.6951038683425351  0.6503699590904969  1.0000
  C   C70       1.0  0.023129754089715886  0.7740467424048842  0.7183708136136672  1.0000
  C   C71       1.0  0.906006918308286  0.3267186477837852  0.3419089345001254  1.0000
  C   C72       1.0  0.2720332770410891  0.1147720261181959  0.10372359934137879  1.0000
  C   C73       1.0  0.611750392886691  0.3259767102629922  0.9374512945568866  1.0000
  C   C74       1.0  0.8587054419244493  0.6567425217229114  0.13874813632435934  1.0000
  C   C75       1.0  0.8193838157368917  0.7026410206555909  0.1095095144254117  1.0000
  C   C76       1.0  0.8586259969330214  0.7925848594755536  0.17183453813517943  1.0000
  C   C77       1.0  0.1667969323515166  0.8107779256971596  0.009184281928519033  1.0000
  C   C78       1.0  0.9530262924239921  0.29959899810844337  0.027120107150487523  1.0000
  C   C79       1.0  0.13954100105858913  0.8376121784934722  0.9488054505158485  1.0000
  C   C80       1.0  0.2113900226416589  0.8824478734437731  0.9349126733226566  1.0000
  C   C81       1.0  0.07500856503098413  0.38007119962800556  0.03781037406951522  1.0000
  N   N1        1.0  0.021787032695115758  0.6778614872437244  0.049847829113410486  1.0000
  N   N2        1.0  0.0545401928039411  0.5590306513152895  0.8783024374109015  1.0000
  N   N3        1.0  0.8230254748879274  0.4630328351599288  0.991973127528318  1.0000
  N   N4        1.0  0.9946800526239699  0.4815709349730142  0.8535726645881849  1.0000
  N   N5        1.0  0.8711622192049332  0.5463686279905174  0.04463789356394422  1.0000
  N   N6        1.0  0.8391956919411143  0.3342474278693429  0.8528733258059517  1.0000
  N   N7        1.0  0.07997921248851718  0.6964892995468474  0.023217482982310782  1.0000
  N   N8        1.0  0.99322772680253  0.5540705572179832  0.1620303301992506  1.0000
  N   N9        1.0  0.13104721255983517  0.44689174185634056  0.9251797898477958  1.0000
  N   N10       1.0  0.1918755450390678  0.6654249127009636  0.11014816473418415  1.0000
  N   N11       1.0  0.9414558707143996  0.3387806350606651  0.98682582613646  1.0000
  N   N12       1.0  0.01607019188880088  0.38855421405116886  0.9927460551637706  1.0000
  N   N13       1.0  0.13826703069720025  0.6308090312914202  0.13636417433944795  1.0000
  N   N14       1.0  0.9507666434606179  0.4708103955737072  0.11364917846420745  1.0000
  N   N15       1.0  0.17515448660739713  0.5300911627571878  0.9766073111249225  1.0000
  N   N16       1.0  0.893349978887578  0.31631914154129953  0.8278883471809448  1.0000
  O   O1        1.0  0.33026371013405503  0.7415266177182644  0.14952066808810816  1.0000
  O   O2        1.0  0.8951438689419149  0.21000641817066418  0.7362168952300931  1.0000
  O   O3        1.0  0.9076625406953697  0.6256380191230873  0.45474981569845585  1.0000
  O   O4        1.0  0.8366728754795291  0.33869913337074564  0.3422713604158217  1.0000
  O   O5        1.0  0.2035402021382708  0.060261474032529294  0.10707729871167966  1.0000
  O   O6        1.0  0.695420919592216  0.35438375003552386  0.9469636465866313  1.0000
