data_image0
_chemical_formula_structural       Cu4H16C20Br4N4
_chemical_formula_sum              "Cu4 H16 C20 Br4 N4"
_cell_length_a       3.850188365705635
_cell_length_b       9.950922350653045
_cell_length_c       15.882900859483192
_cell_angle_alpha    110.39972369347932
_cell_angle_beta     88.19325448794274
_cell_angle_gamma    98.2009168957942

_space_group_name_H-M_alt    "P 1"
_space_group_IT_number       1

loop_
  _space_group_symop_operation_xyz
  'x, y, z'

loop_
  _atom_site_type_symbol
  _atom_site_label
  _atom_site_symmetry_multiplicity
  _atom_site_fract_x
  _atom_site_fract_y
  _atom_site_fract_z
  _atom_site_occupancy
  Cu  Cu1       1.0  0.1143398999389191  0.8299111253779969  0.289835982620275  1.0000
  Cu  Cu2       1.0  0.8856657885359811  0.1700893359900491  0.7101570401207907  1.0000
  Cu  Cu3       1.0  0.5774641176226752  0.6652282625654065  0.19119682566023496  1.0000
  Cu  Cu4       1.0  0.4225108850923577  0.3347669564435022  0.8087990049490086  1.0000
  H   H1        1.0  0.16625587735679662  0.0862521724239329  0.46026350110064834  1.0000
  H   H2        1.0  0.8337499814375138  0.9137583670915107  0.5397454838159774  1.0000
  H   H3        1.0  0.9979689131452647  0.33338203160229796  0.5088365089154365  1.0000
  H   H4        1.0  0.002106267917028506  0.6666388960666011  0.4911636586489293  1.0000
  H   H5        1.0  0.7532250537837442  0.418734650303108  0.3943462293570192  1.0000
  H   H6        1.0  0.24682213543912476  0.5812809830933575  0.6056548349187308  1.0000
  H   H7        1.0  0.8620131189215672  6.572476042519777e-05  0.19695182259293625  1.0000
  H   H8        1.0  0.13798970622196555  0.9999361228098067  0.8030540966541081  1.0000
  H   H9        1.0  0.8305714062304477  0.488747376594347  0.2791283717637398  1.0000
  H   H10       1.0  0.1694078492501632  0.5112457357300711  0.7208701491960596  1.0000
  H   H11       1.0  0.4425125171183098  0.04182943042973619  0.12579144584195487  1.0000
  H   H12       1.0  0.5574637225537348  0.9581626214257213  0.8742074953796147  1.0000
  H   H13       1.0  0.2236532204233583  0.13059236165396018  0.010216671241906302  1.0000
  H   H14       1.0  0.7763385932124649  0.8693996450096293  0.989782196383949  1.0000
  H   H15       1.0  0.29427455412051984  0.3952392756859807  0.03908897947210481  1.0000
  H   H16       1.0  0.7057147293612119  0.6047527089220424  0.960908634492476  1.0000
  C   C1        1.0  0.0579569749488229  0.12565703437874728  0.412121137619522  1.0000
  C   C2        1.0  0.942070784205832  0.8743554477387645  0.5878812365053462  1.0000
  C   C3        1.0  0.9675301656687482  0.2647743038587151  0.43834732090534345  1.0000
  C   C4        1.0  0.03250505857966596  0.7352370432806055  0.561653525526644  1.0000
  C   C5        1.0  0.8330077751440473  0.3113497793071076  0.3745964227000299  1.0000
  C   C6        1.0  0.16702888258100757  0.6886583119161144  0.6254037365626246  1.0000
  C   C7        1.0  0.7907280945342946  0.2168471615685448  0.2849566877907463  1.0000
  C   C8        1.0  0.20927563641164684  0.783156792416001  0.7150471495374403  1.0000
  C   C9        1.0  0.8866274213113672  0.0788812116042195  0.2650900831958437  1.0000
  C   C10       1.0  0.11337585673337006  0.9211216891731697  0.7349147950917683  1.0000
  C   C11       1.0  0.6907950695066561  0.40470155182045886  0.2218078475577627  1.0000
  C   C12       1.0  0.3091833456780862  0.5952894245020914  0.7781914893936699  1.0000
  C   C13       1.0  0.6542578207405968  0.25881760906018053  0.21343717441132526  1.0000
  C   C14       1.0  0.345714291534371  0.7411777506246864  0.7865643651363711  1.0000
  C   C15       1.0  0.48449997060750155  0.15704642396929094  0.13524258601465527  1.0000
  C   C16       1.0  0.5154843779345557  0.8429467176724899  0.8647578093040735  1.0000
  C   C17       1.0  0.3593131713599433  0.2055101665144576  0.0712941745757547  1.0000
  C   C18       1.0  0.6406738383492867  0.7944829380078032  0.9287049425497996  1.0000
  C   C19       1.0  0.3986832997715126  0.35356893195633177  0.0866108650929931  1.0000
  C   C20       1.0  0.6012998865865528  0.646420961301324  0.9133888553223528  1.0000
  Br  Br1       1.0  0.12995607487002292  0.7471837788246061  0.12034726140576167  1.0000
  Br  Br2       1.0  0.8699925332485637  0.2528028160268931  0.8796456139274652  1.0000
  Br  Br3       1.0  0.5253110219912855  0.7434804400618304  0.36215156532988857  1.0000
  Br  Br4       1.0  0.4747038720310855  0.25652438906421077  0.6378448523389507  1.0000
  N   N1        1.0  0.019512887547101305  0.03385783533104811  0.32634618371540813  1.0000
  N   N2        1.0  0.9804966784963511  0.9661483283540523  0.673660610870904  1.0000
  N   N3        1.0  0.560338894373473  0.45212811198484104  0.16124037346500586  1.0000
  N   N4        1.0  0.4396299457113456  0.547865045261261  0.83875882952222  1.0000
