data_image0
_chemical_formula_structural       Hg6H44C32N20Cl12
_chemical_formula_sum              "Hg6 H44 C32 N20 Cl12"
_cell_length_a       7.336643142748637
_cell_length_b       13.914365040246478
_cell_length_c       14.161185047667507
_cell_angle_alpha    70.97617679154786
_cell_angle_beta     90.00356614290398
_cell_angle_gamma    90.01078267084614

_space_group_name_H-M_alt    "P 1"
_space_group_IT_number       1

loop_
  _space_group_symop_operation_xyz
  'x, y, z'

loop_
  _atom_site_type_symbol
  _atom_site_label
  _atom_site_symmetry_multiplicity
  _atom_site_fract_x
  _atom_site_fract_y
  _atom_site_fract_z
  _atom_site_occupancy
  Hg  Hg1       1.0  3.484145999999999e-10  4.463920799999999e-09  7.047136989999998e-07  1.0000
  Hg  Hg2       1.0  0.486953739346113  0.8432873721863031  0.05927320655361276  1.0000
  Hg  Hg3       1.0  0.5130462617527911  0.15671297048255886  0.9407274115809726  1.0000
  Hg  Hg4       1.0  0.5000012319190931  0.5000000010444194  7.331394443770096e-07  1.0000
  Hg  Hg5       1.0  0.9871379279231861  0.6567207036288776  0.9409351150887204  1.0000
  Hg  Hg6       1.0  0.012863435629000703  0.3432803903625653  0.05906384584276482  1.0000
  H   H1        1.0  0.9448045608021403  0.790331018576026  0.587030961008594  1.0000
  H   H2        1.0  0.05519271355762359  0.20966931504107578  0.4129682480105927  1.0000
  H   H3        1.0  0.9775075588448773  0.9212741286721454  0.5657683551807012  1.0000
  H   H4        1.0  0.022491078664998602  0.07872696519538638  0.43423060606279057  1.0000
  H   H5        1.0  0.5538709995759278  0.29050161456421353  0.5870711277157452  1.0000
  H   H6        1.0  0.44612900291663493  0.7094987459603388  0.41293230927363567  1.0000
  H   H7        1.0  0.522063581464117  0.4214821493158781  0.5658133521910286  1.0000
  H   H8        1.0  0.47793505552995447  0.5785159037977649  0.43418659953123756  1.0000
  H   H9        1.0  0.9246307870042612  0.7601275320061871  0.10677531045213595  1.0000
  H   H10       1.0  0.07536921413309022  0.23987508676416514  0.893223860109664  1.0000
  H   H11       1.0  0.0231410013527267  0.0652889672785477  0.22957150403325946  1.0000
  H   H12       1.0  0.976860362199453  0.9347121267128952  0.7704274568982256  1.0000
  H   H13       1.0  0.8080436335478113  0.6113976197041068  0.24846167646838074  1.0000
  H   H14       1.0  0.19195636663480542  0.3886034697614561  0.7515365799054052  1.0000
  H   H15       1.0  0.7892456030497926  0.6235332025411396  0.3692226267212603  1.0000
  H   H16       1.0  0.21075439687491837  0.3764663665474827  0.6307761248919093  1.0000
  H   H17       1.0  0.14635669544887966  0.5848746695577418  0.2743156326726393  1.0000
  H   H18       1.0  0.8536433050821516  0.415126424371742  0.7256833284148527  1.0000
  H   H19       1.0  0.1246350949184958  0.5921462644133584  0.39579265700001537  1.0000
  H   H20       1.0  0.8753621789639114  0.4078533045513453  0.6042060949251676  1.0000
  H   H21       1.0  0.1295924111852074  0.4099561004467774  0.4044172998676244  1.0000
  H   H22       1.0  0.8704062259762537  0.5900449889568335  0.595580956662168  1.0000
  H   H23       1.0  0.9460762359403604  0.4307260873855867  0.31860110477211384  1.0000
  H   H24       1.0  0.0539224010921515  0.5692742418295466  0.6813973993773671  1.0000
  H   H25       1.0  0.9108909159049433  0.43823937445385036  0.4403305235669706  1.0000
  H   H26       1.0  0.08910908401976772  0.5617601946347718  0.5596682280462061  1.0000
  H   H27       1.0  0.4764696931690295  0.565463215031798  0.2295208359546308  1.0000
  H   H28       1.0  0.5235262195632444  0.434537136379042  0.7704811920753585  1.0000
  H   H29       1.0  0.5755488043297917  0.26003623915310203  0.10701595537148022  1.0000
  H   H30       1.0  0.42445119660172276  0.739961067225792  0.8929863579555716  1.0000
  H   H31       1.0  0.7080484904521498  0.12394349337367319  0.3706918855585073  1.0000
  H   H32       1.0  0.2919528735005201  0.8760538130671803  0.6293104276125446  1.0000
  H   H33       1.0  0.6934469204683041  0.11138980595390538  0.2499496999196253  1.0000
  H   H34       1.0  0.3065558066344707  0.8886082607373778  0.7500523654757314  1.0000
  H   H35       1.0  0.36945605407596827  0.9101829178605313  0.40520264491101443  1.0000
  H   H36       1.0  0.6305439457197934  0.08981589103962047  0.5947963543218504  1.0000
  H   H37       1.0  0.5860343186008806  0.9395736363855389  0.4429242625168471  1.0000
  H   H38       1.0  0.4139656811948811  0.060425172514612796  0.5570747367160179  1.0000
  H   H39       1.0  0.5563079734473818  0.9298329203555085  0.3216599312310251  1.0000
  H   H40       1.0  0.4436920264773293  0.07016664873311379  0.6783388203821517  1.0000
  H   H41       1.0  0.355355725788769  0.0838325149177166  0.272742735593674  1.0000
  H   H42       1.0  0.6446456381118324  0.9161685835376545  0.7272569300515174  1.0000
  H   H43       1.0  0.3714065700963475  0.09308166233527969  0.393708835276442  1.0000
  H   H44       1.0  0.6285934307446512  0.9069171599566345  0.60629227809752  1.0000
  C   C1        1.0  0.935686721246789  0.7952752519587701  0.16445850098097037  1.0000
  C   C2        1.0  0.06431328011002083  0.20472661108703244  0.8355416219142313  1.0000
  C   C3        1.0  0.9712123964405849  0.9066045069290708  0.24188559810096424  1.0000
  C   C4        1.0  0.028788968285795108  0.09339736064261218  0.7581152293519295  1.0000
  C   C5        1.0  0.9988553746472347  0.9873952423417333  0.2781718118281305  1.0000
  C   C6        1.0  0.0011446269290332  0.012605864979526897  0.7218292634004582  1.0000
  C   C7        1.0  0.9662819531486023  0.8738428967995444  0.44023236142655975  1.0000
  C   C8        1.0  0.033716684141808194  0.1261589527925366  0.5597656474835374  1.0000
  C   C9        1.0  0.9429705726061286  0.8102657988457834  0.31471707405584237  1.0000
  C   C10       1.0  0.05702942897014649  0.1897353084754769  0.6852840011727466  1.0000
  C   C11       1.0  0.881818506272218  0.6330476298004226  0.3059063583464763  1.0000
  C   C12       1.0  0.1181814942588133  0.36695346412906815  0.6940926027410086  1.0000
  C   C13       1.0  0.053457657371275516  0.5689495950268294  0.3384031001776222  1.0000
  C   C14       1.0  0.9465409794417711  0.43105148991286046  0.6615944516384715  1.0000
  C   C15       1.0  0.007084632278605299  0.4559091271183746  0.37753666787782686  1.0000
  C   C16       1.0  0.9929167307962103  0.5440912022206703  0.6224618359596475  1.0000
  C   C17       1.0  0.5003902935156149  0.48753597277199384  0.2781293215129423  1.0000
  C   C18       1.0  0.49960834395582043  0.5124628449940472  0.7218710873033274  1.0000
  C   C19       1.0  0.5279946666167774  0.40670621946321  0.2418948005834309  1.0000
  C   C20       1.0  0.47200533409527884  0.5932918426402408  0.7581065604102263  1.0000
  C   C21       1.0  0.5559979667302246  0.31040719536166256  0.3148087274097975  1.0000
  C   C22       1.0  0.4440061230452913  0.6895908669276449  0.6851926331158538  1.0000
  C   C23       1.0  0.5324786396862535  0.3739924412449439  0.44026812151464867  1.0000
  C   C24       1.0  0.4675227236080275  0.6260071323695583  0.5597313346562273  1.0000
  C   C25       1.0  0.5641121516543139  0.29525257050850223  0.16463101870991886  1.0000
  C   C26       1.0  0.43589057544846094  0.7047454961827738  0.835371046685438  1.0000
  C   C27       1.0  0.6174990222764336  0.13318176091147646  0.3066025222134242  1.0000
  C   C28       1.0  0.38250370495529046  0.8668170659682771  0.6933992955622443  1.0000
  C   C29       1.0  0.49231700793820476  0.9561194850152858  0.3791058367903305  1.0000
  C   C30       1.0  0.5076816289653577  0.043880084011377087  0.620892914978853  1.0000
  C   C31       1.0  0.44562849780188435  0.06900149288931348  0.3378064787527393  1.0000
  C   C32       1.0  0.554371502819656  0.9309980851271573  0.6621936822878353  1.0000
  N   N1        1.0  0.9650298887510759  0.8938940541137936  0.14828505848634435  1.0000
  N   N2        1.0  0.034970112128363  0.10610704427961785  0.8517146073148467  1.0000
  N   N3        1.0  0.9192796798903586  0.7420688728740714  0.26307897428899457  1.0000
  N   N4        1.0  0.08071895761951711  0.2579322209934602  0.736919986954497  1.0000
  N   N5        1.0  0.9392952023198974  0.7902626120819535  0.41260068948136547  1.0000
  N   N6        1.0  0.06070479903691249  0.2097392509638496  0.5873994334138288  1.0000
  N   N7        1.0  0.9959159707827753  0.9706643572965844  0.37649853262398386  1.0000
  N   N8        1.0  0.0040853932467755  0.029337501347249904  0.623500885401512  1.0000
  N   N9        1.0  0.9642911696852893  0.8613009255934967  0.5384338380341803  1.0000
  N   N10       1.0  0.03570610540974431  0.13870169305294408  0.4615653328396334  1.0000
  N   N11       1.0  0.503149683007031  0.4708084053724163  0.3764572184384464  1.0000
  N   N12       1.0  0.4968530429215506  0.5291888877386269  0.6235429804355023  1.0000
  N   N13       1.0  0.5342579712902021  0.361454415566655  0.5384637002387362  1.0000
  N   N14       1.0  0.46574066665859704  0.6385451668517772  0.46153716567153685  1.0000
  N   N15       1.0  0.5594062109196044  0.29039286972254524  0.4126860851077224  1.0000
  N   N16       1.0  0.44059787872695483  0.7096044323782992  0.5873155230376241  1.0000
  N   N17       1.0  0.5346586179780674  0.3938793395849487  0.14834008535621016  1.0000
  N   N18       1.0  0.46534138216610893  0.6061194737791239  0.8516596185903609  1.0000
  N   N19       1.0  0.5800960011063198  0.24214471655768924  0.2632966744358214  1.0000
  N   N20       1.0  0.41990808866919593  0.7578533457316251  0.73670468608983  1.0000
  Cl  Cl1       1.0  0.17690851949222264  0.8382194533012424  0.9510899885146031  1.0000
  Cl  Cl2       1.0  0.8230928438404987  0.1617823964147505  0.0489080200834877  1.0000
  Cl  Cl3       1.0  0.4037050671747906  0.7635125332259989  0.22742485788419486  1.0000
  Cl  Cl4       1.0  0.5962935705545505  0.23648780491698312  0.772575055692691  1.0000
  Cl  Cl5       1.0  0.6492782467151913  0.9484085696487268  0.9154499266842606  1.0000
  Cl  Cl6       1.0  0.35072311705645387  0.051591768618166584  0.08454998658061902  1.0000
  Cl  Cl7       1.0  0.6765217853329446  0.6618489000131262  0.04884841975036381  1.0000
  Cl  Cl8       1.0  0.32347957783238723  0.3381499134128987  0.9511512840402006  1.0000
  Cl  Cl9       1.0  0.1489443862419009  0.5515240096123859  0.08486234019873969  1.0000
  Cl  Cl10      1.0  0.8510542510100764  0.44847556387820475  0.9151371162841357  1.0000
  Cl  Cl11      1.0  0.9040436199339511  0.7368149505385945  0.7728301690556519  1.0000
  Cl  Cl12      1.0  0.09595774314087183  0.2631853788004577  0.22716833478182957  1.0000
