data_image0
_chemical_formula_structural       Tb4H92C88N8O36
_chemical_formula_sum              "Tb4 H92 C88 N8 O36"
_cell_length_a       13.58079725175789
_cell_length_b       14.406892146526802
_cell_length_c       16.036765069652766
_cell_angle_alpha    116.6906222316259
_cell_angle_beta     97.20991907320644
_cell_angle_gamma    89.99546405820533

_space_group_name_H-M_alt    "P 1"
_space_group_IT_number       1

loop_
  _space_group_symop_operation_xyz
  'x, y, z'

loop_
  _atom_site_type_symbol
  _atom_site_label
  _atom_site_symmetry_multiplicity
  _atom_site_fract_x
  _atom_site_fract_y
  _atom_site_fract_z
  _atom_site_occupancy
  Tb  Tb1       1.0  0.5378649746539635  0.03040685305180803  0.6371953701033277  1.0000
  Tb  Tb2       1.0  0.9620653399554796  0.3932693870095181  0.3627715958123545  1.0000
  Tb  Tb3       1.0  0.46213460957548597  0.9695917874104867  0.36280464241895066  1.0000
  Tb  Tb4       1.0  0.037934946098396004  0.6067304107724  0.63722879854555  1.0000
  H   H1        1.0  0.2154807719274459  0.19150098482143826  0.4516867974947161  1.0000
  H   H2        1.0  0.28425929747658074  0.7398013375598327  0.548215127702896  1.0000
  H   H3        1.0  0.78451942450571  0.8084997326319155  0.5483129595831358  1.0000
  H   H4        1.0  0.7157417714332083  0.2601974502622539  0.4517850374817768  1.0000
  H   H5        1.0  0.0724970165723704  0.4047711467987227  0.6830424261977299  1.0000
  H   H6        1.0  0.4272987115752969  0.7218049007367568  0.3169324699291138  1.0000
  H   H7        1.0  0.9275039264955822  0.5952302681385362  0.3169580313557744  1.0000
  H   H8        1.0  0.5726999553671631  0.2781961291925299  0.6830668158463168  1.0000
  H   H9        1.0  0.2930529972894647  0.2099254735750621  0.7269380823802294  1.0000
  H   H10       1.0  0.2068689449799663  0.4829671589445965  0.27296967761823504  1.0000
  H   H11       1.0  0.7069450936704058  0.790071771919422  0.2730605291907365  1.0000
  H   H12       1.0  0.7931305496287634  0.5170324011891339  0.7270296976239904  1.0000
  H   H13       1.0  0.22867580501877424  0.41227580118563645  0.8635917560117221  1.0000
  H   H14       1.0  0.27123656751931685  0.5486176374962143  0.13635859766418423  1.0000
  H   H15       1.0  0.771322996354762  0.5877238492365039  0.13640848568378763  1.0000
  H   H16       1.0  0.7287635883981026  0.45138416359687045  0.8636414649180965  1.0000
  H   H17       1.0  0.09805651320657918  0.40548513619159376  0.8271395430813228  1.0000
  H   H18       1.0  0.40184173876602364  0.5785173303992225  0.17288419312064454  1.0000
  H   H19       1.0  0.9019423243880736  0.5945128067867956  0.17285976896530292  1.0000
  H   H20       1.0  0.5981577558427061  0.42148222973450805  0.8271151821215809  1.0000
  H   H21       1.0  0.11033759513637878  0.4701414892284533  0.9767683463777316  1.0000
  H   H22       1.0  0.3898793182702178  0.4935715173308211  0.023287729279743978  1.0000
  H   H23       1.0  0.8896626823282573  0.5298570609454387  0.023230799691255282  1.0000
  H   H24       1.0  0.610120829057969  0.5064290361542306  0.9767110850136262  1.0000
  H   H25       1.0  0.050919504006323286  0.499353443978123  0.12624960950078185  1.0000
  H   H26       1.0  0.44916259861648916  0.3732871472044081  0.8737267402791459  1.0000
  H   H27       1.0  0.9490806881322201  0.5006466496712109  0.8737495234326146  1.0000
  H   H28       1.0  0.5508369365079843  0.6267113292895915  0.12627232945864358  1.0000
  H   H29       1.0  0.07339172308560649  0.1766674649713238  0.05638505928321537  1.0000
  H   H30       1.0  0.4266190447442426  0.12040568586811423  0.9434685030547597  1.0000
  H   H31       1.0  0.9266093053084458  0.8233324064904936  0.9436154114058866  1.0000
  H   H32       1.0  0.5733797609239061  0.8795945883580387  0.05653236278521226  1.0000
  H   H33       1.0  0.13295396222726913  0.14449345422378462  0.9045643275722242  1.0000
  H   H34       1.0  0.36730714875989173  0.24006597076687092  0.09541722089851128  1.0000
  H   H35       1.0  0.8670456754017692  0.8555059740108248  0.09543725187900512  1.0000
  H   H36       1.0  0.632690869757731  0.7599346896151077  0.904583249970237  1.0000
  H   H37       1.0  0.7873737642543616  0.9937325167674943  0.6571193801035305  1.0000
  H   H38       1.0  0.7126985346179423  0.3369408798819435  0.3431707014907913  1.0000
  H   H39       1.0  0.21262665623059013  0.006265901507276866  0.3428819701744601  1.0000
  H   H40       1.0  0.28730171092019663  0.6630600015397121  0.656829998371549  1.0000
  H   H41       1.0  0.8055247125558579  0.27128740442049804  0.7425931713344838  1.0000
  H   H42       1.0  0.6943026330731641  0.5287044464739665  0.2573794028707183  1.0000
  H   H43       1.0  0.19447550721456963  0.7287097341770661  0.25740378366109695  1.0000
  H   H44       1.0  0.3056975719492314  0.47129751858741303  0.742621602496051  1.0000
  H   H45       1.0  0.9224124389947618  0.2655704367187753  0.7001840252649599  1.0000
  H   H46       1.0  0.5773707346237344  0.5653754402048179  0.29971356908364294  1.0000
  H   H47       1.0  0.07758619788537402  0.7344262265824142  0.29981089149925555  1.0000
  H   H48       1.0  0.4226294703986611  0.43462652485656156  0.7002874362831334  1.0000
  H   H49       1.0  0.9196292681016018  0.2795480080927035  0.8164444615225647  1.0000
  H   H50       1.0  0.5802522083869519  0.4629815006419662  0.18351068956866354  1.0000
  H   H51       1.0  0.08037146995720691  0.7204515033633356  0.18355097660407432  1.0000
  H   H52       1.0  0.4197494813157832  0.5370206117791979  0.8164904684605004  1.0000
  H   H53       1.0  0.9462453660306949  0.993322917695423  0.6682923617968228  1.0000
  H   H54       1.0  0.5537692700941648  0.32500463445967404  0.33173000840550776  1.0000
  H   H55       1.0  0.053755653774118214  0.006675706158361536  0.3317068606033615  1.0000
  H   H56       1.0  0.4462308858232618  0.6749971666334106  0.66827005417678  1.0000
  H   H57       1.0  0.016813204751315397  0.10862743349424159  0.7555745644626554  1.0000
  H   H58       1.0  0.4831530011806393  0.3530380164133504  0.24448040778884209  1.0000
  H   H59       1.0  0.983187770243134  0.8913716501952608  0.24442433929749532  1.0000
  H   H60       1.0  0.5168486265332674  0.6469620606274733  0.7555179350224533  1.0000
  H   H61       1.0  0.9977012841739848  0.0848868161395089  0.6356996485314638  1.0000
  H   H62       1.0  0.5022002982308037  0.4491132272577334  0.3643689529808469  1.0000
  H   H63       1.0  0.002298246655868786  0.9151110365504779  0.3642987970618704  1.0000
  H   H64       1.0  0.49779906194684986  0.550887712383144  0.6356294663412924  1.0000
  H   H65       1.0  0.5789892208058874  0.7915714516745993  0.6273555395516296  1.0000
  H   H66       1.0  0.9210163244589965  0.16445432752423272  0.37261966274547115  1.0000
  H   H67       1.0  0.42101101614301223  0.20842818213902353  0.37264391202179326  1.0000
  H   H68       1.0  0.0789846953458166  0.8355442963295515  0.6273795596547129  1.0000
  H   H69       1.0  0.6948267271046263  0.6618766020950204  0.7303559103091712  1.0000
  H   H70       1.0  0.8053829128885895  0.9316918261500222  0.2697013531892479  1.0000
  H   H71       1.0  0.3051749454196441  0.33812301511009224  0.2696427511421504  1.0000
  H   H72       1.0  0.1946166265304967  0.06830727414799048  0.7302983406929967  1.0000
  H   H73       1.0  0.7811261288402632  0.6648767942853766  0.6566130034340175  1.0000
  H   H74       1.0  0.7190692520345722  0.008343853164646529  0.34347674622419083  1.0000
  H   H75       1.0  0.2188755436840069  0.33512282291972895  0.3433856580173114  1.0000
  H   H76       1.0  0.2809302830899014  0.9916546233293532  0.6565223235135987  1.0000
  H   H77       1.0  0.6506983800990864  0.6524101528021193  0.616768373846881  1.0000
  H   H78       1.0  0.849497461960013  0.03583405333242249  0.3832588705151636  1.0000
  H   H79       1.0  0.3493032967197962  0.3475900882069994  0.38323091174890317  1.0000
  H   H80       1.0  0.15050212226943668  0.9641645871298723  0.6167411420071146  1.0000
  H   H81       1.0  0.8275721250756477  0.9117421961075893  0.769959896446501  1.0000
  H   H82       1.0  0.672342911745531  0.14186868116907192  0.2301194812024718  1.0000
  H   H83       1.0  0.17242885850804157  0.08825813518993905  0.2300402556025745  1.0000
  H   H84       1.0  0.3276566810731509  0.8581312069012484  0.7698817796087309  1.0000
  H   H85       1.0  0.8325257508444539  0.8164740589062591  0.8117619880332966  1.0000
  H   H86       1.0  0.6674506396689138  0.004804035482088438  0.18836126764018957  1.0000
  H   H87       1.0  0.16747522844461574  0.1835256485872563  0.18823753987132355  1.0000
  H   H88       1.0  0.33254890833941164  0.99519631242395  0.81163967453098  1.0000
  H   H89       1.0  0.7503127756410705  0.9220335095940017  0.8551520641679318  1.0000
  H   H90       1.0  0.7495630933185423  0.06697137305477706  0.1448953308070102  1.0000
  H   H91       1.0  0.24968745701320927  0.0779655004156012  0.14484676326102888  1.0000
  H   H92       1.0  0.2504356675392501  0.9330293610070868  0.8551052163929354  1.0000
  C   C1        1.0  0.33652692659637035  0.1119971434055955  0.5488898781532753  1.0000
  C   C2        1.0  0.1633480804903868  0.563087405270018  0.45102931988147077  1.0000
  C   C3        1.0  0.6634718213775698  0.8880017192442298  0.45110879661329045  1.0000
  C   C4        1.0  0.8366521607531324  0.4369128523476179  0.5489707558364073  1.0000
  C   C5        1.0  0.26085312497484375  0.1916359350946949  0.5856116289784055  1.0000
  C   C6        1.0  0.23896055256852827  0.6060526682454112  0.4142972121666232  1.0000
  C   C7        1.0  0.7391471076794358  0.8083630749149082  0.41438719845055516  1.0000
  C   C8        1.0  0.7610411647660981  0.3939464891239768  0.585701767924725  1.0000
  C   C9        1.0  0.2049073186384689  0.22446318711873675  0.5255110460971012  1.0000
  C   C10       1.0  0.2948269207159696  0.699034717971877  0.47440220599479926  1.0000
  C   C11       1.0  0.7950951944359231  0.7755368317028586  0.47448957725439567  1.0000
  C   C12       1.0  0.7051740990888432  0.3009639058819076  0.5255970164053849  1.0000
  C   C13       1.0  0.13773009368784267  0.3014005484940655  0.5605898958900183  1.0000
  C   C14       1.0  0.36200932772757716  0.7409185218268847  0.4393417473936124  1.0000
  C   C15       1.0  0.8622716279413964  0.6985992326793353  0.4394097083457921  1.0000
  C   C16       1.0  0.6379916963718557  0.2590807258309127  0.5606580991510269  1.0000
  C   C17       1.0  0.1244310427410866  0.34408645721393344  0.6555773501866325  1.0000
  C   C18       1.0  0.3753411794988891  0.6885889175412957  0.344369143414518  1.0000
  C   C19       1.0  0.8755706788881595  0.6559133239594672  0.34442225404917787  1.0000
  C   C20       1.0  0.6246583642148167  0.3114108065607368  0.6556311746121962  1.0000
  C   C21       1.0  0.1790320767251714  0.31084150620061746  0.7157862593719385  1.0000
  C   C22       1.0  0.32083424245822556  0.5950814979977466  0.28415748345053515  1.0000
  C   C23       1.0  0.8209682050340915  0.6891576677772875  0.2842135108415107  1.0000
  C   C24       1.0  0.6791659496803178  0.40491859565158705  0.7158416494828613  1.0000
  C   C25       1.0  0.24795347408591076  0.23533063997173534  0.6808156823545771  1.0000
  C   C26       1.0  0.25190282588751245  0.5545241993819303  0.319106436539684  1.0000
  C   C27       1.0  0.7520459757124626  0.764669379997713  0.31918337424762194  1.0000
  C   C28       1.0  0.7480973748402634  0.44547714187543636  0.6808939446826231  1.0000
  C   C29       1.0  0.16425676564770697  0.35960358696794953  0.8175532318733046  1.0000
  C   C30       1.0  0.33570748178752297  0.5420920236551795  0.18241374026885637  1.0000
  C   C31       1.0  0.8357428676867117  0.6403952174626469  0.18244772343345517  1.0000
  C   C32       1.0  0.6642912213760612  0.4579072988303566  0.817584615857683  1.0000
  C   C33       1.0  0.12376369585433623  0.30420352588146937  0.9302794845336564  1.0000
  C   C34       1.0  0.3764205566136525  0.3740550891142719  0.069715527793079  1.0000
  C   C35       1.0  0.876236630715283  0.6957951882607177  0.06972060431981913  1.0000
  C   C36       1.0  0.6235781060341877  0.6259453170109951  0.9302831338378965  1.0000
  C   C37       1.0  0.1021832471979423  0.4051211113016606  0.9929963804152067  1.0000
  C   C38       1.0  0.3979911241572722  0.4123001744745452  0.007023032311295138  1.0000
  C   C39       1.0  0.897817083666297  0.5948782266445392  0.007004332582724275  1.0000
  C   C40       1.0  0.6020076281112878  0.5876993119792929  0.9929762665997258  1.0000
  C   C41       1.0  0.06871793991513189  0.4216409731113799  0.07706303723735179  1.0000
  C   C42       1.0  0.43134369897481406  0.34474256221492544  0.9228949346147884  1.0000
  C   C43       1.0  0.931282427170224  0.5783566573910833  0.922936746111695  1.0000
  C   C44       1.0  0.5686557956339159  0.6552569979188051  0.07710444062743696  1.0000
  C   C45       1.0  0.057798392922322285  0.3401685373192436  0.10059863521118469  1.0000
  C   C46       1.0  0.4421856624893366  0.23970840077767983  0.89930699866661  1.0000
  C   C47       1.0  0.9422026311771036  0.6598307103385538  0.8994012113334617  1.0000
  C   C48       1.0  0.5578130492634868  0.7602921693158893  0.10069260574885416  1.0000
  C   C49       1.0  0.08188993336213461  0.24014552869616776  0.03799927776139358  1.0000
  C   C50       1.0  0.41816647658450273  0.20226512374118513  0.9619117745532434  1.0000
  C   C51       1.0  0.9181110502215544  0.7598548026013605  0.9620008742876819  1.0000
  C   C52       1.0  0.5818315867434762  0.7977350768050685  0.038089014955538424  1.0000
  C   C53       1.0  0.1142139419848647  0.22189096674868844  0.9536450093493513  1.0000
  C   C54       1.0  0.3859684929933351  0.2683865291936414  0.046325257482422395  1.0000
  C   C55       1.0  0.8857863802901347  0.7781071235894857  0.04635445535966187  1.0000
  C   C56       1.0  0.6140301696545052  0.7316138769316255  0.953673404148553  1.0000
  C   C57       1.0  0.021112064321073386  0.3587059393694858  0.19027641859563715  1.0000
  C   C58       1.0  0.47876656948140817  0.16851087719652477  0.8095927898910346  1.0000
  C   C59       1.0  0.9788881769224461  0.6412943182481501  0.8097236571222481  1.0000
  C   C60       1.0  0.5212344589126375  0.8314889942652856  0.19040768079806705  1.0000
  C   C61       1.0  0.7835665792141241  0.07876527071421455  0.685469070465011  1.0000
  C   C62       1.0  0.7164122148222348  0.3935815794214577  0.3147591975704812  1.0000
  C   C63       1.0  0.21643300930993806  0.9212339935520931  0.3145315662017296  1.0000
  C   C64       1.0  0.2835887730560742  0.6064193756800834  0.6852415786230494  1.0000
  C   C65       1.0  0.8804864189847948  0.2436933825950049  0.7437484958160921  1.0000
  C   C66       1.0  0.6193492940680515  0.4999357437772432  0.25622448992137253  1.0000
  C   C67       1.0  0.11951296882474337  0.7563046019941029  0.2562477455682384  1.0000
  C   C68       1.0  0.38065169810487737  0.5000658351283108  0.7437769104166279  1.0000
  C   C69       1.0  0.9631693793132  0.07628863310944226  0.6906272108788798  1.0000
  C   C70       1.0  0.5367942279746956  0.3856572270704533  0.3094279535660078  1.0000
  C   C71       1.0  0.03683085334107968  0.9237103769001678  0.3093716165500807  1.0000
  C   C72       1.0  0.46320596845846757  0.6143434903829006  0.690571803511844  1.0000
  C   C73       1.0  0.634613676526989  0.8461998027491832  0.685247656640797  1.0000
  C   C74       1.0  0.8653118229844026  0.16114533899590816  0.3147633151694009  1.0000
  C   C75       1.0  0.3653873070567003  0.15380052854834506  0.3147524954082783  1.0000
  C   C76       1.0  0.1346892054096429  0.8388545324659021  0.685237155519701  1.0000
  C   C77       1.0  0.7082218420725397  0.6890358827189544  0.6784563415790429  1.0000
  C   C78       1.0  0.7919410714284112  0.010725849434223288  0.32159424178325213  1.0000
  C   C79       1.0  0.29177983045172345  0.3109637344861512  0.3215423198722789  1.0000
  C   C80       1.0  0.2080577213558854  0.989272553379891  0.6784047516233399  1.0000
  C   C81       1.0  0.7831730889755876  0.8668336750359132  0.7937958474747475  1.0000
  C   C82       1.0  0.7167606786713634  0.07314029758489234  0.2062771135111987  1.0000
  C   C83       1.0  0.21682789031348185  0.1331660324576021  0.20620368042986564  1.0000
  C   C84       1.0  0.2832388650423426  0.9268594265171332  0.7937232045155156  1.0000
  C   C85       1.0  0.08104682816996701  0.3395309481973783  0.4977711493295586  1.0000
  C   C86       1.0  0.4187629867782547  0.8418106633545293  0.5021835575676119  1.0000
  C   C87       1.0  0.9189541511191094  0.66046875929613  0.5022283785750545  1.0000
  C   C88       1.0  0.5812380416157906  0.15818920810728093  0.4978169131214898  1.0000
  N   N1        1.0  0.8722070977328897  0.13099417115492437  0.7064098502409877  1.0000
  N   N2        1.0  0.6277172688883398  0.42467437144456016  0.2936768166638046  1.0000
  N   N3        1.0  0.12779313062677747  0.8690042150506658  0.29358835304351066  1.0000
  N   N4        1.0  0.37228367847423266  0.575327667296712  0.7063242650341621  1.0000
  N   N5        1.0  0.7048849988345935  0.8016869666974956  0.7182907602000269  1.0000
  N   N6        1.0  0.795102861423686  0.0835408287920032  0.28174650687827807  1.0000
  N   N7        1.0  0.29511667368967653  0.19831265050761707  0.28170790125130196  1.0000
  N   N8        1.0  0.2048959847602063  0.916458361794419  0.7182540534572651  1.0000
  O   O1        1.0  0.3788179727681467  0.07995271744815821  0.6054513510159366  1.0000
  O   O2        1.0  0.12111380606176426  0.47444105667989334  0.3944795492035027  1.0000
  O   O3        1.0  0.6211808734157457  0.9200464731382638  0.3945492093196064  1.0000
  O   O4        1.0  0.8788856885469655  0.5255585034538369  0.6055198260387228  1.0000
  O   O5        1.0  0.3521538636540882  0.08355014641153258  0.4644837193233258  1.0000
  O   O6        1.0  0.14775118412257626  0.6190589746861407  0.5354431494283814  1.0000
  O   O7        1.0  0.6478457205753543  0.9164484940507693  0.5355162931989526  1.0000
  O   O8        1.0  0.8522491019313065  0.38094082309577715  0.46455724492952294  1.0000
  O   O9        1.0  0.978748664342575  0.4425286877827404  0.23607871018682397  1.0000
  O   O10       1.0  0.5211351318306258  0.20645501210480421  0.7637399363703848  1.0000
  O   O11       1.0  0.021250879371130786  0.5574710363192851  0.7639216078398902  1.0000
  O   O12       1.0  0.47886218486257087  0.7935444909575439  0.23626015266273734  1.0000
  O   O13       1.0  0.033044986678284295  0.29011604397836527  0.22012270616104246  1.0000
  O   O14       1.0  0.46678883772131025  0.07008841828197636  0.7797837926129247  1.0000
  O   O15       1.0  0.966955254565235  0.7098842136392706  0.7798773695568355  1.0000
  O   O16       1.0  0.533209959357606  0.9299106083361508  0.2202158249381299  1.0000
  O   O17       1.0  0.050938783943316  0.43166529630328654  0.5343854493892549  1.0000
  O   O18       1.0  0.44899281519645484  0.8972949758034261  0.4655915974490623  1.0000
  O   O19       1.0  0.949061363384864  0.5683352571817651  0.46561336490410804  1.0000
  O   O20       1.0  0.5510067733276074  0.10270428846288848  0.534409039217671  1.0000
  O   O21       1.0  0.0627191015888329  0.28056086398807883  0.40950365374875725  1.0000
  O   O22       1.0  0.43705468868613906  0.8710566351416064  0.5904498857187548  1.0000
  O   O23       1.0  0.9372811396546866  0.7194393936295569  0.5904964219691208  1.0000
  O   O24       1.0  0.5629455930731169  0.12894253883629866  0.4095498844946874  1.0000
  O   O25       1.0  0.6307633629129726  0.9428033220252986  0.7166900144983542  1.0000
  O   O26       1.0  0.8690167778301118  0.22632764616118103  0.28332847338263883  1.0000
  O   O27       1.0  0.36923692743552294  0.05719709956063208  0.28331100400401243  1.0000
  O   O28       1.0  0.13098277447282664  0.7736733255488702  0.7166730929329928  1.0000
  O   O29       1.0  0.7022875540481693  0.12034912887705922  0.695499848596583  1.0000
  O   O30       1.0  0.7976381722816157  0.42526007003424143  0.3047812898109115  1.0000
  O   O31       1.0  0.29771277681606984  0.8796502090691478  0.3045008644013478  1.0000
  O   O32       1.0  0.20236276649171714  0.574740721099005  0.6952185435981377  1.0000
  O   O33       1.0  0.1524943108428758  0.27765175443909135  0.8443285012525763  1.0000
  O   O34       1.0  0.34768087700392397  0.43340686707965415  0.1556712717193278  1.0000
  O   O35       1.0  0.8475052690919541  0.7223462622191975  0.1556708871252467  1.0000
  O   O36       1.0  0.6523170433037533  0.5665934653657204  0.8443273135804502  1.0000
