data_image0
_chemical_formula_structural       H32Rh4C32N4O16
_chemical_formula_sum              "H32 Rh4 C32 N4 O16"
_cell_length_a       8.073889381837661
_cell_length_b       11.974794859909558
_cell_length_c       14.559773381802442
_cell_angle_alpha    65.18025666436192
_cell_angle_beta     73.64546696196922
_cell_angle_gamma    70.11689786347853

_space_group_name_H-M_alt    "P 1"
_space_group_IT_number       1

loop_
  _space_group_symop_operation_xyz
  'x, y, z'

loop_
  _atom_site_type_symbol
  _atom_site_label
  _atom_site_symmetry_multiplicity
  _atom_site_fract_x
  _atom_site_fract_y
  _atom_site_fract_z
  _atom_site_occupancy
  H   H1        1.0  0.44287558973042684  0.28160875326884144  0.20335270119762333  1.0000
  H   H2        1.0  0.9287163084710598  0.21847145989011094  0.2966575283968  1.0000
  H   H3        1.0  0.5571308742192896  0.718387956734638  0.796649345288117  1.0000
  H   H4        1.0  0.07127754087291997  0.7815281200635266  0.7033424026805762  1.0000
  H   H5        1.0  0.4954581393024283  0.43109553222426905  0.13419449826010074  1.0000
  H   H6        1.0  0.062084270133830416  0.0688863940274018  0.3655163891997404  1.0000
  H   H7        1.0  0.504548898210103  0.568899290197429  0.8658056284160269  1.0000
  H   H8        1.0  0.9378988835562867  0.9311112678462764  0.6344877159552313  1.0000
  H   H9        1.0  0.5725439722343282  0.3140886071399649  0.07647091456396284  1.0000
  H   H10       1.0  0.9627429145899242  0.1856775299274886  0.4234244762222376  1.0000
  H   H11       1.0  0.42746202424833474  0.6859052561659595  0.9235308621115907  1.0000
  H   H12       1.0  0.03725462359645336  0.8143258519640355  0.5765744722023315  1.0000
  H   H13       1.0  0.8658599191310402  0.12918365170160223  0.052376196696691746  1.0000
  H   H14       1.0  0.04557738168136169  0.3710402783797733  0.4484164759956429  1.0000
  H   H15       1.0  0.13413474616529444  0.8708150113112721  0.9476183892432036  1.0000
  H   H16       1.0  0.9544067750897794  0.6289659293491852  0.5515875509256817  1.0000
  H   H17       1.0  0.8213258790414101  0.12366429376207581  0.18282846209012155  1.0000
  H   H18       1.0  0.12675852626030346  0.376444477266304  0.3180120214248988  1.0000
  H   H19       1.0  0.17867042154364282  0.8763419732276317  0.8171647412633195  1.0000
  H   H20       1.0  0.8732330176384193  0.6235560273284406  0.681992168357532  1.0000
  H   H21       1.0  0.04283359893469197  0.06974758037102902  0.12298267490233172  1.0000
  H   H22       1.0  0.23435829071429015  0.43013098311657677  0.3773148061346775  1.0000
  H   H23       1.0  0.9571605988945816  0.9302482359442908  0.8770116412273766  1.0000
  H   H24       1.0  0.7656308003105889  0.5698733292797301  0.6226880960498777  1.0000
  H   H25       1.0  0.4156313510137153  0.6782544982839057  0.5635541221647743  1.0000
  H   H26       1.0  0.6564865774247505  0.8216057783380677  0.9362088272877575  1.0000
  H   H27       1.0  0.5843863553386227  0.32174124087642747  0.4364501842105072  1.0000
  H   H28       1.0  0.3435304347502423  0.17839573290583394  0.06378349881747175  1.0000
  H   H29       1.0  0.5833724331568887  0.7046053629106552  0.39021781378490783  1.0000
  H   H30       1.0  0.6773645505032703  0.7948659618026  0.10976498062179738  1.0000
  H   H31       1.0  0.4166483867830376  0.2953913468401694  0.6097827759029358  1.0000
  H   H32       1.0  0.3226439067224759  0.20513649529622305  0.890228835018981  1.0000
  Rh  Rh1       1.0  0.08483305876681148  0.48400250092275604  0.9214820372672747  1.0000
  Rh  Rh2       1.0  0.4890214818101127  0.0159284367658117  0.5788834159899069  1.0000
  Rh  Rh3       1.0  0.9151747377451895  0.5159951777840206  0.07851678265881656  1.0000
  Rh  Rh4       1.0  0.5109706468454432  0.9840768059331565  0.42112227451632844  1.0000
  C   C1        1.0  0.944415653173742  0.27169476471597415  0.07012559260911651  1.0000
  C   C2        1.0  0.2853856430494444  0.22833063427616906  0.43023912358123795  1.0000
  C   C3        1.0  0.0555893480971434  0.7283029543291519  0.9298670136674404  1.0000
  C   C4        1.0  0.7146021740580368  0.7716736551201816  0.5697676206197786  1.0000
  C   C5        1.0  0.2939254016214933  0.4058813700948107  0.08134445133111973  1.0000
  C   C6        1.0  0.7815795851149827  0.09397887737096508  0.4185658591778251  1.0000
  C   C7        1.0  0.7060802541858845  0.5941134446770775  0.9186570531370181  1.0000
  C   C8        1.0  0.21840876591446087  0.9060263922539278  0.5814358831351073  1.0000
  C   C9        1.0  0.6890799560500439  0.5283245573989817  0.30050890977739203  1.0000
  C   C10       1.0  0.5185786654052436  0.9713683855520399  0.1991318464454752  1.0000
  C   C11       1.0  0.31093205541630886  0.47168071564657066  0.6994898127628845  1.0000
  C   C12       1.0  0.48141954462966635  0.028631186650727603  0.8008688797047584  1.0000
  C   C13       1.0  0.5941134509551418  0.5150515518269714  0.4009306513499596  1.0000
  C   C14       1.0  0.5099980961086246  0.9847705148095187  0.09864182652716387  1.0000
  C   C15       1.0  0.40590415711146477  0.48494610944034383  0.5990699574900518  1.0000
  C   C16       1.0  0.4899944776259485  0.01522432321498  0.9013572927224163  1.0000
  C   C17       1.0  0.46197207330890677  0.35409632525853135  0.12659367905617105  1.0000
  C   C18       1.0  0.9433055608184588  0.14581396887653145  0.37326318171115974  1.0000
  C   C19       1.0  0.5380346140263299  0.6458975418723014  0.8734074087233737  1.0000
  C   C20       1.0  0.05668553461724436  0.8541875025343159  0.6267382716394042  1.0000
  C   C21       1.0  0.9144255562091955  0.14083159267854484  0.11029298669609497  1.0000
  C   C22       1.0  0.16423991921291747  0.3592568891621823  0.3903046455476017  1.0000
  C   C23       1.0  0.08557089011244293  0.8591670722215098  0.8897011091160111  1.0000
  C   C24       1.0  0.835746009081511  0.6407474136971345  0.6097001245567598  1.0000
  C   C25       1.0  0.5470301772216785  0.3997434919722735  0.4641006684556857  1.0000
  C   C26       1.0  0.41136840319961004  0.10042992317362122  0.03595819262906735  1.0000
  C   C27       1.0  0.4529816884488509  0.6002541693961092  0.5359005231034858  1.0000
  C   C28       1.0  0.5886324624578518  0.8995696796789119  0.9640373137126946  1.0000
  C   C29       1.0  0.45350963968228775  0.3844504062404185  0.5624406879815426  1.0000
  C   C30       1.0  0.4009651493538653  0.11596577369021331  0.9375909324808519  1.0000
  C   C31       1.0  0.5465044554765724  0.6155462901990418  0.4375627498816927  1.0000
  C   C32       1.0  0.5990310640802433  0.8840338273256664  0.062405355348282454  1.0000
  N   N1        1.0  0.7672513348975583  0.5358179187318228  0.218020627557813  1.0000
  N   N2        1.0  0.5232039092217846  0.9641832816202295  0.28100233898297955  1.0000
  N   N3        1.0  0.23276137692338472  0.46418926489546647  0.7819761727756218  1.0000
  N   N4        1.0  0.4768011015511105  0.0358163441817254  0.7189890339827445  1.0000
  O   O1        1.0  0.03487587736708508  0.3081169690750586  0.9799695574022568  1.0000
  O   O2        1.0  0.3211990396424013  0.19171868056486116  0.5203504427523598  1.0000
  O   O3        1.0  0.9651248123557251  0.6918797966674505  0.02002410256908865  1.0000
  O   O4        1.0  0.6787934788312951  0.8082846496146558  0.4796573687289227  1.0000
  O   O5        1.0  0.3079044801985305  0.4104334894853707  0.9898066763313695  1.0000
  O   O6        1.0  0.7073859190906685  0.0893191803239688  0.5101036883391998  1.0000
  O   O7        1.0  0.6920981586149888  0.5895537136598747  0.010197588515239938  1.0000
  O   O8        1.0  0.29260648209326234  0.9106822584488724  0.48990289222847155  1.0000
  O   O9        1.0  0.12074707336744668  0.6632904484791595  0.8711729530049795  1.0000
  O   O10       1.0  0.654596702772231  0.8364441994098114  0.6286615596521659  1.0000
  O   O11       1.0  0.8792612967073624  0.3367053426458425  0.1288239471114922  1.0000
  O   O12       1.0  0.3453865302588071  0.1635629406100563  0.3713453481821959  1.0000
  O   O13       1.0  0.851832307623716  0.5584330136087418  0.8628491244726677  1.0000
  O   O14       1.0  0.27155282230084027  0.9415061576580754  0.6373717950090242  1.0000
  O   O15       1.0  0.14817377600988377  0.4415675156710179  0.1371495677271852  1.0000
  O   O16       1.0  0.7284300304140742  0.058504801638072486  0.3626317585394504  1.0000
