data_image0
_chemical_formula_structural       Ag4H48C64S4N12O12
_chemical_formula_sum              "Ag4 H48 C64 S4 N12 O12"
_cell_length_a       10.085412939878717
_cell_length_b       10.91897717917586
_cell_length_c       14.629423867001082
_cell_angle_alpha    90.00003327573226
_cell_angle_beta     90.00002794761134
_cell_angle_gamma    92.04498862459357

_space_group_name_H-M_alt    "P 1"
_space_group_IT_number       1

loop_
  _space_group_symop_operation_xyz
  'x, y, z'

loop_
  _atom_site_type_symbol
  _atom_site_label
  _atom_site_symmetry_multiplicity
  _atom_site_fract_x
  _atom_site_fract_y
  _atom_site_fract_z
  _atom_site_occupancy
  Ag  Ag1       1.0  0.9368650152837574  0.6298956119193946  0.750213024530282  1.0000
  Ag  Ag2       1.0  0.5631346183900164  0.8701053058595111  0.25020972718285606  1.0000
  Ag  Ag3       1.0  0.0631355109990679  0.37010482810048734  0.24978709762098814  1.0000
  Ag  Ag4       1.0  0.4368658720068198  0.12989421774013019  0.7497903949682081  1.0000
  H   H1        1.0  0.8452236806973872  0.4468059098266437  0.07945791506661949  1.0000
  H   H2        1.0  0.6547762801555024  0.05318960832509132  0.5794556147224696  1.0000
  H   H3        1.0  0.15477677381371543  0.5531926973530261  0.9205428906381596  1.0000
  H   H4        1.0  0.345222227213867  0.9468099161644972  0.4205445074282608  1.0000
  H   H5        1.0  0.7367162521872005  0.3118654114863163  0.1961535087166624  1.0000
  H   H6        1.0  0.7632829099196599  0.188132950229317  0.6961499365638275  1.0000
  H   H7        1.0  0.2632842382101401  0.6881341121138789  0.8038479805422367  1.0000
  H   H8        1.0  0.23671662484893125  0.8118674902349884  0.3038488184794375  1.0000
  H   H9        1.0  0.5215245451350371  0.20362728114393758  0.1615198223108933  1.0000
  H   H10       1.0  0.9784726445713118  0.2963719700264775  0.6615177373670916  1.0000
  H   H11       1.0  0.47847396223458116  0.7963722433459213  0.8384809833937509  1.0000
  H   H12       1.0  0.021525898683798107  0.703628470883075  0.33848170122992366  1.0000
  H   H13       1.0  0.40942915752964393  0.23622109833168994  0.012238470144573896  1.0000
  H   H14       1.0  0.09056900590896079  0.26377592494042557  0.5122376060660371  1.0000
  H   H15       1.0  0.5905713687534233  0.7637793416884763  0.9877623355606175  1.0000
  H   H16       1.0  0.9094284740606895  0.7362226835738924  0.48776251608431653  1.0000
  H   H17       1.0  0.4938517536173564  0.4896148608382304  0.862219380169442  1.0000
  H   H18       1.0  0.0061497113873870005  0.010384275429935  0.3622172750160927  1.0000
  H   H19       1.0  0.506149692407476  0.5103837458964763  0.1377814255355077  1.0000
  H   H20       1.0  0.9938518064091683  0.9896161641449838  0.6377828471353411  1.0000
  H   H21       1.0  0.38465898380044194  0.35920274123134993  0.8774304587157713  1.0000
  H   H22       1.0  0.11534153667130913  0.14079732413721763  0.37743049779885496  1.0000
  H   H23       1.0  0.6153425698823443  0.640798614764087  0.12257034698978937  1.0000
  H   H24       1.0  0.8846570065840427  0.8592031167726122  0.6225696243520813  1.0000
  H   H25       1.0  0.4018133787028262  0.4443557355664964  0.700463155592004  1.0000
  H   H26       1.0  0.09818906749985248  0.05564601941712511  0.2004631520216691  1.0000
  H   H27       1.0  0.5981871475799921  0.5556447044533925  0.29953696655926615  1.0000
  H   H28       1.0  0.901811458782973  0.9443544206027642  0.7995369701296011  1.0000
  H   H29       1.0  0.5636504339352867  0.5197186490700004  0.703159136100467  1.0000
  H   H30       1.0  0.9363511843344413  0.9802831463941998  0.20315738063661118  1.0000
  H   H31       1.0  0.43635012823327207  0.4802827073698523  0.29684030249708826  1.0000
  H   H32       1.0  0.06364831454840919  0.019716377650134103  0.7968420579603684  1.0000
  H   H33       1.0  0.3430484377862086  0.2918788062455064  0.5871544809890707  1.0000
  H   H34       1.0  0.1569539257764916  0.2081228576035485  0.0871545633515893  1.0000
  H   H35       1.0  0.6569510969828798  0.7081216342193528  0.4128456411620291  1.0000
  H   H36       1.0  0.8430466363925648  0.7918784988368516  0.912846242353808  1.0000
  H   H37       1.0  0.381856654871804  0.2090228121358351  0.4295180500368828  1.0000
  H   H38       1.0  0.11814592250240002  0.290978210656924  0.9295172071107201  1.0000
  H   H39       1.0  0.6181439072970037  0.7909785443042949  0.5704820721145863  1.0000
  H   H40       1.0  0.8818536122664398  0.7090222298076585  0.07048223148646568  1.0000
  H   H41       1.0  0.5919579805289813  0.2551031365049496  0.3502552341349413  1.0000
  H   H42       1.0  0.9080423931431555  0.24489809797299966  0.8502565207142466  1.0000
  H   H43       1.0  0.4080405627263701  0.7448973044048727  0.6497448880159877  1.0000
  H   H44       1.0  0.09195809725392931  0.7551014256269186  0.1497442849907316  1.0000
  H   H45       1.0  0.7657998393441476  0.39223125010018134  0.4236382242357805  1.0000
  H   H46       1.0  0.734203562389709  0.1077700420647503  0.9236387087590143  1.0000
  H   H47       1.0  0.23420072282416274  0.6077701063393948  0.5763605308078608  1.0000
  H   H48       1.0  0.2657969280068855  0.8922294815346138  0.0763607298381359  1.0000
  C   C1        1.0  0.7465139703008817  0.49898935818887236  0.915467591880194  1.0000
  C   C2        1.0  0.7534904528743881  0.0010128433805789002  0.4154703518168858  1.0000
  C   C3        1.0  0.2534885031234282  0.5010101645208282  0.08453253027120408  1.0000
  C   C4        1.0  0.2465152104090222  0.9989921765178665  0.5845352387675928  1.0000
  C   C5        1.0  0.6857308963833193  0.4197036791822768  0.9814339352304767  1.0000
  C   C6        1.0  0.8142695011881713  0.0802958279605832  0.4814299146080642  1.0000
  C   C7        1.0  0.31427054964152035  0.58029492755243  0.018566870474472797  1.0000
  C   C8        1.0  0.18572900618070076  0.9197036965284513  0.5185688404348239  1.0000
  C   C9        1.0  0.7496153891169043  0.4009527624444261  0.06537394394673159  1.0000
  C   C10       1.0  0.7503846691217718  0.09904549363999852  0.5653710124427889  1.0000
  C   C11       1.0  0.2503851012801803  0.5990467611554919  0.9346268617582536  1.0000
  C   C12       1.0  0.24961482976108582  0.9009540304043427  0.4346284261541911  1.0000
  C   C13       1.0  0.6888363436394515  0.3244539641411138  0.13028898197440944  1.0000
  C   C14       1.0  0.8111627345446023  0.17554342817974344  0.6302867877992993  1.0000
  C   C15       1.0  0.31116414675788223  0.6755455594590742  0.8697125072844897  1.0000
  C   C16       1.0  0.1888358087105075  0.8244570127298161  0.3697126507977159  1.0000
  C   C17       1.0  0.5672696688102761  0.26469729470112213  0.11089447303994147  1.0000
  C   C18       1.0  0.9327304226284241  0.23530099799596377  0.6108923461125072  1.0000
  C   C19       1.0  0.4327308574727907  0.735303145319044  0.88910633266525  1.0000
  C   C20       1.0  0.06726613759921922  0.7646994438035364  0.389107092484167  1.0000
  C   C21       1.0  0.5043259852250017  0.2829974167198159  0.027101009255225992  1.0000
  C   C22       1.0  0.995675108386621  0.21700264097820116  0.5271009465231984  1.0000
  C   C23       1.0  0.4956745410575679  0.7170030232997888  0.9728984293421232  1.0000
  C   C24       1.0  0.004323434868481998  0.7829977999313513  0.472898492073817  1.0000
  C   C25       1.0  0.5608280782923885  0.3620324830252316  0.9616306609356042  1.0000
  C   C26       1.0  0.939172304836646  0.1379670081906283  0.4616287584573157  1.0000
  C   C27       1.0  0.4391724121047034  0.6379670405746866  0.038370144769380894  1.0000
  C   C28       1.0  0.060828221445923716  0.8620334318289837  0.5383706801400335  1.0000
  C   C29       1.0  0.48901451626389303  0.3903688132463473  0.8750612853488631  1.0000
  C   C30       1.0  0.010985966593438  0.10963033379587024  0.3750599082992706  1.0000
  C   C31       1.0  0.510987921274925  0.6096297930436593  0.12494020391017095  1.0000
  C   C32       1.0  0.9890145596896361  0.8903701062242962  0.6249408974059207  1.0000
  C   C33       1.0  0.5084150767171423  0.43314386281742406  0.6892310133494632  1.0000
  C   C34       1.0  0.9915872701993537  0.06685999051845931  0.18923114865045673  1.0000
  C   C35       1.0  0.4915844939379284  0.5668574940676765  0.3107691088018426  1.0000
  C   C36       1.0  0.008413291969454003  0.9331413659216711  0.8107689735010195  1.0000
  C   C37       1.0  0.5323043299390167  0.3868658983323741  0.5947303618291142  1.0000
  C   C38       1.0  0.967700850824059  0.11313604482087672  0.0947305089965198  1.0000
  C   C39       1.0  0.4676971878572901  0.6131345412422605  0.4052690767684054  1.0000
  C   C40       1.0  0.0322996395725283  0.886863478778487  0.9052689296006305  1.0000
  C   C41       1.0  0.4359211313137053  0.31238728111929254  0.5512453632760737  1.0000
  C   C42       1.0  0.0640822334596578  0.18761526982400065  0.05124745579513498  1.0000
  C   C43       1.0  0.5640793949683669  0.6876131588997725  0.4487527082134476  1.0000
  C   C44       1.0  0.9359173013096794  0.8123851706411289  0.9487533499098786  1.0000
  C   C45       1.0  0.4575182067360046  0.2658115899574156  0.463929546531311  1.0000
  C   C46       1.0  0.0424853872499256  0.23418946006820118  0.9639300203879059  1.0000
  C   C47       1.0  0.5424823195465649  0.7341888500621961  0.5360698920660452  1.0000
  C   C48       1.0  0.9575161305466297  0.7658109795067107  0.03607010176352789  1.0000
  C   C49       1.0  0.5764702604724761  0.2932861032928217  0.4180439653355065  1.0000
  C   C50       1.0  0.9235321815535756  0.20671610123788758  0.9180445571321483  1.0000
  C   C51       1.0  0.4235293101823459  0.7067152535920088  0.5819554732618855  1.0000
  C   C52       1.0  0.07646834472924978  0.7932843387820013  0.08195556501912188  1.0000
  C   C53       1.0  0.6737547694455159  0.3680181678730818  0.45901416923312854  1.0000
  C   C54       1.0  0.8262476306895508  0.13198223676960197  0.9590146955810323  1.0000
  C   C55       1.0  0.3262437738093383  0.6319822730361936  0.5409845858099657  1.0000
  C   C56       1.0  0.17375381533503295  0.8680163699648278  0.0409854265699963  1.0000
  C   C57       1.0  0.6516068605920963  0.4147068282216537  0.5471085538208981  1.0000
  C   C58       1.0  0.8483942834980313  0.08529416198909705  0.04710933186188269  1.0000
  C   C59       1.0  0.34839267417674347  0.5852936122429284  0.4528908847762878  1.0000
  C   C60       1.0  0.15160620689930943  0.9147053616110984  0.9528921573970164  1.0000
  C   C61       1.0  0.7508277762888085  0.4917923488526058  0.5883077491195223  1.0000
  C   C62       1.0  0.7491704591943461  0.008209592250217704  0.08830914358874506  1.0000
  C   C63       1.0  0.249172749993761  0.5082080911670062  0.41169168947782697  1.0000
  C   C64       1.0  0.25083003120249  0.9917899313494305  0.9116909785623191  1.0000
  S   S1        1.0  0.5650470612931217  0.32187593913022283  0.7740149255919418  1.0000
  S   S2        1.0  0.9349552039148535  0.17812431671617196  0.2740137225895792  1.0000
  S   S3        1.0  0.4349544206174514  0.6781235840244477  0.22598519655929283  1.0000
  S   S4        1.0  0.0650453223677232  0.82187612330344  0.725985716007777  1.0000
  N   N1        1.0  0.794832972445967  0.564942820908087  0.8611906990740932  1.0000
  N   N2        1.0  0.7051633369935006  0.9350471904212371  0.361184060419859  1.0000
  N   N3        1.0  0.2051674820651357  0.4350557862715832  0.13881010663068585  1.0000
  N   N4        1.0  0.29483194463028184  0.0649459204588112  0.6388092261897567  1.0000
  N   N5        1.0  0.8318148461459385  0.5556710375189767  0.6225463089123052  1.0000
  N   N6        1.0  0.6681866056730144  0.9443279438483575  0.12254718076287927  1.0000
  N   N7        1.0  0.16818465273740907  0.44432848652591167  0.37745449679250936  1.0000
  N   N8        1.0  0.3318148762375586  0.055671579306320516  0.8774529413883555  1.0000
  N   N9        1.0  0.1453679156259966  0.4178492857716094  0.7557721878875083  1.0000
  N   N10       1.0  0.3546325161158634  0.0821506817464908  0.2557715995873976  1.0000
  N   N11       1.0  0.8546316191430918  0.582151154693243  0.24422793426359846  1.0000
  N   N12       1.0  0.645367974280731  0.9178488418528733  0.7442278390097454  1.0000
  O   O1        1.0  0.037397244822997805  0.4381088453570713  0.7989262998154485  1.0000
  O   O2        1.0  0.4626021909929677  0.061890240894790303  0.29892573954099066  1.0000
  O   O3        1.0  0.9626022540601085  0.5618906786875402  0.2010738223354522  1.0000
  O   O4        1.0  0.5373973078901387  0.9381092831498278  0.7010743826099031  1.0000
  O   O5        1.0  0.18858110277354  0.49457866385515825  0.6972039450445848  1.0000
  O   O6        1.0  0.3114192862521676  0.0054212565559908  0.19720262530000093  1.0000
  O   O7        1.0  0.8114194235095339  0.505421776165008  0.3027968606605994  1.0000
  O   O8        1.0  0.6885812041444197  0.994578267043373  0.8027968132971492  1.0000
  O   O9        1.0  0.20631748075572182  0.32145682480241794  0.7726648454070426  1.0000
  O   O10       1.0  0.2936839548200396  0.17854315585727681  0.27266359445717814  1.0000
  O   O11       1.0  0.7936830096411143  0.6785426987972231  0.22733527674402146  1.0000
  O   O12       1.0  0.7063155799488001  0.8214572846073055  0.7273358441400005  1.0000
