data_image0
_chemical_formula_structural       Al4H16C56Cl12O20
_chemical_formula_sum              "Al4 H16 C56 Cl12 O20"
_cell_length_a       6.646403907415012
_cell_length_b       21.412191589782434
_cell_length_c       25.556467891265523
_cell_angle_alpha    83.95296687066799
_cell_angle_beta     89.95566682086357
_cell_angle_gamma    89.44628511162585

_space_group_name_H-M_alt    "P 1"
_space_group_IT_number       1

loop_
  _space_group_symop_operation_xyz
  'x, y, z'

loop_
  _atom_site_type_symbol
  _atom_site_label
  _atom_site_symmetry_multiplicity
  _atom_site_fract_x
  _atom_site_fract_y
  _atom_site_fract_z
  _atom_site_occupancy
  Al  Al1       1.0  0.20105365073427348  0.7502553413881402  0.2505421383551152  1.0000
  Al  Al2       1.0  0.7989293763278481  0.2497438416754818  0.7494569874613717  1.0000
  Al  Al3       1.0  0.7010825247647076  0.7498371493571554  0.25148059609499995  1.0000
  Al  Al4       1.0  0.29898169243794825  0.2501658434872382  0.7485169500888559  1.0000
  H   H1        1.0  0.3040413328283833  0.5573298731982348  0.4650290196712916  1.0000
  H   H2        1.0  0.6959223465526847  0.44265620738270445  0.5349705490963003  1.0000
  H   H3        1.0  0.8044274261228495  0.9613258202725632  0.0506353497546286  1.0000
  H   H4        1.0  0.19556603999897249  0.038678623779802  0.949366509424941  1.0000
  H   H5        1.0  0.33212489349321567  0.47765771989918454  0.5434425218040745  1.0000
  H   H6        1.0  0.6678402674135312  0.5223297130238082  0.4565574350723409  1.0000
  H   H7        1.0  0.838044428466496  0.03961952452596763  0.9715828932943394  1.0000
  H   H8        1.0  0.16194599771089457  0.9603867456631718  0.028419351648011605  1.0000
  H   H9        1.0  0.22758626846505337  0.6732971783301454  0.1121198758461048  1.0000
  H   H10       1.0  0.7724312284969698  0.3267104127851682  0.8878788271366531  1.0000
  H   H11       1.0  0.7320317857153498  0.8981364397617213  0.33598398453623446  1.0000
  H   H12       1.0  0.26797213832319494  0.10187289815298328  0.6640158899901963  1.0000
  H   H13       1.0  0.45444496813416885  0.6714751627609558  0.23767148554829023  1.0000
  H   H14       1.0  0.5455831958206615  0.32852367132434074  0.7623300061352796  1.0000
  H   H15       1.0  0.94670324623209  0.8282697196349887  0.22510030776935255  1.0000
  H   H16       1.0  0.05333395733691759  0.17172929610438817  0.7748956781053948  1.0000
  C   C1        1.0  0.45087230440609016  0.8182526255200814  0.31990285124492607  1.0000
  C   C2        1.0  0.5491555987835781  0.1817617173810149  0.6801017255261429  1.0000
  C   C3        1.0  0.9484057799938198  0.6763695866558805  0.18438447748268064  1.0000
  C   C4        1.0  0.051623785542396695  0.3236346577521871  0.8156224990446431  1.0000
  C   C5        1.0  0.44680848736036427  0.8296900606865097  0.17513798753888213  1.0000
  C   C6        1.0  0.5531805393715032  0.17031113016796703  0.8248560182315713  1.0000
  C   C7        1.0  0.9577928100260918  0.6722974556442127  0.32604532017137444  1.0000
  C   C8        1.0  0.0422142147390403  0.3277063179953926  0.6739541833489966  1.0000
  C   C9        1.0  0.18760959005175687  0.4876256637709134  0.5240932063283523  1.0000
  C   C10       1.0  0.8123630186081102  0.5123665255139898  0.4759059459869874  1.0000
  C   C11       1.0  0.690772242698955  0.021958470902823993  0.9842451178748703  1.0000
  C   C12       1.0  0.30921666487927263  0.978048925132768  0.0157555493093611  1.0000
  C   C13       1.0  0.015748811328094796  0.45506314187834124  0.5442172694866656  1.0000
  C   C14       1.0  0.9842223498283431  0.5449247440358534  0.4557866191236499  1.0000
  C   C15       1.0  0.5188722327112458  0.04414368887993453  0.9553459947806074  1.0000
  C   C16       1.0  0.4811182168696959  0.9558612740753532  0.0446554687446223  1.0000
  C   C17       1.0  0.8279305102890718  0.4681049382899118  0.5194211024027525  1.0000
  C   C18       1.0  0.17203610236251876  0.53188581061233  0.480578448253226  1.0000
  C   C19       1.0  0.3277654655547622  0.0214845475987673  0.9718488431028761  1.0000
  C   C20       1.0  0.6722264664672294  0.9785219095506223  0.028151828104832105  1.0000
  C   C21       1.0  0.030126426045370597  0.4103144258907534  0.5888893121826513  1.0000
  C   C22       1.0  0.9698432067782718  0.589674722149077  0.4111157511530905  1.0000
  C   C23       1.0  0.5362466816153527  0.08825541175191633  0.910349449019577  1.0000
  C   C24       1.0  0.4637362758463438  0.9117477875812768  0.08965123409738851  1.0000
  C   C25       1.0  0.9609810647887824  0.6279061764834566  0.3723457423811851  1.0000
  C   C26       1.0  0.0390170118405351  0.37209185557858865  0.6276588956076522  1.0000
  C   C27       1.0  0.45272432265439727  0.8739394856826763  0.1286463729177711  1.0000
  C   C28       1.0  0.5472632027794048  0.12606057810409513  0.8713531431864254  1.0000
  C   C29       1.0  0.8215505894473621  0.5475321398612821  0.09646932336047338  1.0000
  C   C30       1.0  0.17847762738674078  0.45246337606895565  0.903532574710681  1.0000
  C   C31       1.0  0.31934389149979125  0.8977752208334165  0.4434293504444539  1.0000
  C   C32       1.0  0.6806543195090171  0.10221732088059808  0.5565587910889604  1.0000
  C   C33       1.0  0.8049506337311029  0.5863429227904151  0.13734075578163643  1.0000
  C   C34       1.0  0.19506999404347874  0.41365718769660736  0.862657977048876  1.0000
  C   C35       1.0  0.30169239224607475  0.8577660182200688  0.40344826358668934  1.0000
  C   C36       1.0  0.6983088353036137  0.14222600459102352  0.5965402736010575  1.0000
  C   C37       1.0  0.952527241544466  0.6321284209161036  0.1426022429694527  1.0000
  C   C38       1.0  0.0474933679833356  0.3678721512653524  0.8574004209263677  1.0000
  C   C39       1.0  0.45199247443117224  0.8585459743543286  0.36440114415196234  1.0000
  C   C40       1.0  0.548008541876257  0.1414577189933439  0.6355952127408101  1.0000
  C   C41       1.0  0.11303287275357118  0.6384649155650949  0.106982649805154  1.0000
  C   C42       1.0  0.8869937798947446  0.36153452981535134  0.8930176594403322  1.0000
  C   C43       1.0  0.6149222331840818  0.8993456026600841  0.3656420929751434  1.0000
  C   C44       1.0  0.3850818106183524  0.10065762464154204  0.6343503331866103  1.0000
  C   C45       1.0  0.12585768401282138  0.6016985990313942  0.0655478216455094  1.0000
  C   C46       1.0  0.8741660405217502  0.39829533248833116  0.9344556553597841  1.0000
  C   C47       1.0  0.6271258365731002  0.9408901743740685  0.4035565000294739  1.0000
  C   C48       1.0  0.3728767481918354  0.05911025149961091  0.5964359370326804  1.0000
  C   C49       1.0  0.9809684686501755  0.554933256615982  0.05929937676066291  1.0000
  C   C50       1.0  0.019074803518151398  0.4450603573412835  0.9407103961801299  1.0000
  C   C51       1.0  0.4803040139648544  0.940950311018689  0.4437872237101104  1.0000
  C   C52       1.0  0.5196954831331623  0.05905441360740579  0.5562083423754346  1.0000
  C   C53       1.0  0.9940835888209918  0.5165814888752392  0.017972697054276  1.0000
  C   C54       1.0  0.005976333563552298  0.4834044718736976  0.9820461534847454  1.0000
  C   C55       1.0  0.4934622906809949  0.9820320498090286  0.4830777090924343  1.0000
  C   C56       1.0  0.5065115770333577  0.01797471158128872  0.5169245321667262  1.0000
  Cl  Cl1       1.0  0.64993131174171  0.4896260783604875  0.09045357270770178  1.0000
  Cl  Cl2       1.0  0.35007720882927623  0.5103779712345401  0.9095475030370181  1.0000
  Cl  Cl3       1.0  0.1467195425390599  0.8953027248425587  0.49336034683636143  1.0000
  Cl  Cl4       1.0  0.85324996478397  0.10469493414942123  0.5066399634359371  1.0000
  Cl  Cl5       1.0  0.6095927853934882  0.5736317814567968  0.18129990941334742  1.0000
  Cl  Cl6       1.0  0.39039761374917953  0.42637687792567647  0.8186979999207012  1.0000
  Cl  Cl7       1.0  0.1028338175707759  0.8070952885698474  0.4050906771370606  1.0000
  Cl  Cl8       1.0  0.8972048462562225  0.1929067177335355  0.594903723935481  1.0000
  Cl  Cl9       1.0  0.32065166125956074  0.6131343163188918  0.021346262568684396  1.0000
  Cl  Cl10      1.0  0.6793583861186079  0.3868682347304215  0.9786556058278535  1.0000
  Cl  Cl11      1.0  0.8233024144990181  0.9928832627897254  0.40149759904301874  1.0000
  Cl  Cl12      1.0  0.17669856714561397  0.0071216376508970855  0.5985042591276796  1.0000
  O   O1        1.0  0.6160728370079765  0.8151719688898924  0.19678304186530943  1.0000
  O   O2        1.0  0.3839237176961277  0.18482831826210605  0.8032145078645173  1.0000
  O   O3        1.0  0.12764864323820996  0.692883103260357  0.30940881585121355  1.0000
  O   O4        1.0  0.8724065398121751  0.30711890967456423  0.6905969923142053  1.0000
  O   O5        1.0  0.2841205698164941  0.8075543488902569  0.2986572491463376  1.0000
  O   O6        1.0  0.7159391587481139  0.19244762695181095  0.7013371542662483  1.0000
  O   O7        1.0  0.7781672097517217  0.6969339717327045  0.19751445118980374  1.0000
  O   O8        1.0  0.22182629802042436  0.3030687033913821  0.8024826955073224  1.0000
  O   O9        1.0  0.274318864018717  0.8095818471381548  0.19045129220118176  1.0000
  O   O10       1.0  0.7256988402189605  0.19041345874838098  0.8095447062573912  1.0000
  O   O11       1.0  0.7869901599088324  0.6865967755952626  0.3053763234686712  1.0000
  O   O12       1.0  0.21301241146099406  0.3134032191494144  0.6946235877824378  1.0000
  O   O13       1.0  0.11904263465576996  0.6905034729282562  0.20228225504511244  1.0000
  O   O14       1.0  0.8809886491574942  0.30948782767187316  0.7977235928715701  1.0000
  O   O15       1.0  0.6228451042762726  0.7999903804425443  0.3053831389369464  1.0000
  O   O16       1.0  0.3771318234600187  0.20001437682066844  0.6946124246414127  1.0000
  O   O17       1.0  0.45204065132803345  0.7123648396194326  0.25078692565040944  1.0000
  O   O18       1.0  0.5479829759611476  0.28763540279516076  0.7492145599979453  1.0000
  O   O19       1.0  0.9497183585865155  0.7885876600994023  0.24724009026561328  1.0000
  O   O20       1.0  0.05030076578443499  0.2114126416994964  0.7527570684959528  1.0000
