data_image0
_chemical_formula_structural       Ag6H28C28N10O22
_chemical_formula_sum              "Ag6 H28 C28 N10 O22"
_cell_length_a       8.35755653007031
_cell_length_b       11.438015866980104
_cell_length_c       11.925048245561236
_cell_angle_alpha    94.36403688812881
_cell_angle_beta     110.52235473910413
_cell_angle_gamma    111.42019861537787

_space_group_name_H-M_alt    "P 1"
_space_group_IT_number       1

loop_
  _space_group_symop_operation_xyz
  'x, y, z'

loop_
  _atom_site_type_symbol
  _atom_site_label
  _atom_site_symmetry_multiplicity
  _atom_site_fract_x
  _atom_site_fract_y
  _atom_site_fract_z
  _atom_site_occupancy
  Ag  Ag1       1.0  0.021057091588531304  0.03332003713959611  0.1193336477413069  1.0000
  Ag  Ag2       1.0  0.36819239081664523  0.4664642751787015  0.3806638747870251  1.0000
  Ag  Ag3       1.0  0.9789422306717056  0.9666784202280285  0.8806659764786176  1.0000
  Ag  Ag4       1.0  0.631808577132382  0.533537077241469  0.6193375535706238  1.0000
  Ag  Ag5       1.0  0.8706686021976677  0.2501603830927479  0.2500318340444779  1.0000
  Ag  Ag6       1.0  0.1293322774489241  0.7498390410210335  0.7499676957550321  1.0000
  H   H1        1.0  0.42120057053889304  0.0446554338045146  0.8760750927807022  1.0000
  H   H2        1.0  0.00019086421948319828  0.45531738282579665  0.62385469447171  1.0000
  H   H3        1.0  0.5788027023183772  0.9553449548797134  0.12392518125938785  1.0000
  H   H4        1.0  0.9998083282914222  0.5446810716135744  0.37614608059369914  1.0000
  H   H5        1.0  0.5927072904683826  0.2077862279464924  0.940183886582318  1.0000
  H   H6        1.0  0.9447828166397158  0.2922536830287967  0.5596432388393139  1.0000
  H   H7        1.0  0.4072934594288783  0.7922131932390288  0.05981679406267668  1.0000
  H   H8        1.0  0.05521637587118992  0.7077447714105816  0.44035753622609514  1.0000
  H   H9        1.0  0.25033218180291067  0.9760191905808213  0.6452583473007037  1.0000
  H   H10       1.0  0.12887797243485  0.523960400866919  0.8548527508955316  1.0000
  H   H11       1.0  0.7496663929354385  0.0239811972689026  0.3547423368163649  1.0000
  H   H12       1.0  0.8711225334507943  0.4760399884879122  0.14514730885255034  1.0000
  H   H13       1.0  0.7694704790286477  0.3091162604572588  0.7933547463653878  1.0000
  H   H14       1.0  0.166827613084486  0.19088752945525303  0.7065871737728244  1.0000
  H   H15       1.0  0.23052967905590546  0.6908821947346624  0.20664571651552424  1.0000
  H   H16       1.0  0.8331743463980459  0.8091109243135225  0.29341381558459295  1.0000
  H   H17       1.0  0.6066500080535846  0.2681436282144318  0.532915884425087  1.0000
  H   H18       1.0  0.30568977763962085  0.23183022356136004  0.9670588544949722  1.0000
  H   H19       1.0  0.39334990601935255  0.7318557951467923  0.46708395755891263  1.0000
  H   H20       1.0  0.6943105984967062  0.7681701628652107  0.032942356098594486  1.0000
  H   H21       1.0  0.18859809362364663  0.9551854403095493  0.40226269136619663  1.0000
  H   H22       1.0  0.3315713229691752  0.544874448489935  0.09786321712104498  1.0000
  H   H23       1.0  0.8113996452903791  0.04481494971587809  0.5977371540898845  1.0000
  H   H24       1.0  0.6684297747291834  0.4551269068584958  0.9021370603911193  1.0000
  H   H25       1.0  0.3193154671184074  0.09826125426304338  0.3669874768408405  1.0000
  H   H26       1.0  0.35434525734651595  0.4016996861939718  0.13302886281334741  1.0000
  H   H27       1.0  0.6806829778706173  0.9017391306584271  0.6330143581217199  1.0000
  H   H28       1.0  0.6456558403518357  0.5983016691544522  0.8669714146988169  1.0000
  C   C1        1.0  0.7087791003502629  0.0726348426177736  0.9222100747633846  1.0000
  C   C2        1.0  0.21397176382215102  0.42756229209805224  0.57795881706582  1.0000
  C   C3        1.0  0.2912227448699766  0.9273645822485577  0.07778914285163552  1.0000
  C   C4        1.0  0.7860283683025527  0.5724390624978213  0.4220417726308342  1.0000
  C   C5        1.0  0.5509558749040477  0.11750364564420583  0.8763154079122016  1.0000
  C   C6        1.0  0.05699809656617551  0.3825292410775987  0.6236843538468833  1.0000
  C   C7        1.0  0.44904487499322004  0.8824957755413226  0.12368527273280003  1.0000
  C   C8        1.0  0.9430018175067613  0.6174701822836253  0.3763154881371165  1.0000
  C   C9        1.0  0.36981788451200953  0.06023523134768989  0.6496750211973107  1.0000
  C   C10       1.0  0.1595848049433427  0.43966195188287577  0.8503421194370232  1.0000
  C   C11       1.0  0.6301822735725436  0.9397632238442384  0.35032544168360863  1.0000
  C   C12       1.0  0.8404169105275727  0.5603374700552024  0.14965824902348154  1.0000
  C   C13       1.0  0.6387531898512008  0.23739582513638885  0.7223203569527074  1.0000
  C   C14       1.0  0.17884839943061348  0.26256679220482937  0.7776637319840702  1.0000
  C   C15       1.0  0.3612463504607959  0.7626045634658922  0.2776800149798717  1.0000
  C   C16       1.0  0.8211495834950283  0.7374326296512947  0.22233673436892337  1.0000
  C   C17       1.0  0.5608261732020522  0.21700654163350924  0.5968210562023586  1.0000
  C   C18       1.0  0.24713932157062862  0.2830164094950263  0.9031734794823193  1.0000
  C   C19       1.0  0.4391743326835993  0.7829938477213219  0.40317900354572334  1.0000
  C   C20       1.0  0.7528635775257014  0.7169849444302443  0.09682732450634299  1.0000
  C   C21       1.0  0.25158537043275686  0.061079413390920906  0.4283119967734662  1.0000
  C   C22       1.0  0.2625642051647148  0.4389736832713212  0.07173020388557921  1.0000
  C   C23       1.0  0.7484132043055852  0.9389209744588033  0.5716886873436096  1.0000
  C   C24       1.0  0.737436892533644  0.5610276720771027  0.9282700736265923  1.0000
  C   C25       1.0  0.09430897817131972  0.1061662126929761  0.41480961149120077  1.0000
  C   C26       1.0  0.0737754935006123  0.393941158571316  0.0852050905872161  1.0000
  C   C27       1.0  0.9056882986793227  0.8938332142671044  0.5851888653553132  1.0000
  C   C28       1.0  0.9262259779586867  0.606059231536058  0.9147946569763759  1.0000
  N   N1        1.0  0.5164893452555714  0.1392594738971766  0.7528903303726509  1.0000
  N   N2        1.0  0.12390149694541457  0.36063185060103814  0.7470906371050744  1.0000
  N   N3        1.0  0.4835108128289818  0.8607389812947446  0.24711013250826852  1.0000
  N   N4        1.0  0.8760990089402296  0.6393685387537857  0.2529094226430146  1.0000
  N   N5        1.0  0.39439522080211015  0.10576371400309631  0.5537487902666598  1.0000
  N   N6        1.0  0.23507672973324373  0.3942768901850399  0.9462569955894438  1.0000
  N   N7        1.0  0.6056033539362387  0.8942366738466275  0.44625189385041614  1.0000
  N   N8        1.0  0.7649231843396932  0.605722533176184  0.05374284639456311  1.0000
  N   N9        1.0  0.5209942981414385  0.2501102247546356  0.25008469889380786  1.0000
  N   N10       1.0  0.479006207744213  0.7498901646001884  0.7499153608542741  1.0000
  O   O1        1.0  0.7641653625885709  0.0680530957512318  0.03491398865565294  1.0000
  O   O2        1.0  0.16101141017507092  0.4318934753605532  0.46517069947030615  1.0000
  O   O3        1.0  0.2358340894209903  0.9319453645446458  0.9650844847187869  1.0000
  O   O4        1.0  0.8389872943126022  0.568106915417424  0.534828833801285  1.0000
  O   O5        1.0  0.76692850334323  0.0437970532603345  0.8442289032134694  1.0000
  O   O6        1.0  0.37899497267123633  0.4565708377243993  0.6559285506172614  1.0000
  O   O7        1.0  0.23307511731513833  0.9562052695867961  0.1557709676937904  1.0000
  O   O8        1.0  0.6210056629637393  0.543429554558678  0.34407035828533594  1.0000
  O   O9        1.0  0.07804190683242497  0.14756250829055523  0.5080576113894395  1.0000
  O   O10       1.0  0.9227587004134675  0.3524661044921871  0.9920063186336562  1.0000
  O   O11       1.0  0.9219547782055103  0.8524359526759256  0.4919406476929923  1.0000
  O   O12       1.0  0.077241805472184  0.6475342848626368  0.007993741114432929  1.0000
  O   O13       1.0  0.9854143322432022  0.09294049481816559  0.30246271751420306  1.0000
  O   O14       1.0  0.09053735470799042  0.4073241217036596  0.19760343535605077  1.0000
  O   O15       1.0  0.014584154192711054  0.907057964725162  0.6975360680447268  1.0000
  O   O16       1.0  0.9094621856040064  0.5926762668986144  0.8023969365765282  1.0000
  O   O17       1.0  0.5539075973448249  0.2572487383678279  0.1534476130090141  1.0000
  O   O18       1.0  0.6436596676458917  0.24317731461013645  0.3467438325389978  1.0000
  O   O19       1.0  0.44609207271650303  0.7427516531626992  0.84655160807808  1.0000
  O   O20       1.0  0.35634083823975976  0.7568230747446876  0.6532562272090843  1.0000
  O   O21       1.0  0.3700511533707739  0.2498860271593912  0.250070894818812  1.0000
  O   O22       1.0  0.6299487607021703  0.7501133962018401  0.7499289471651879  1.0000
