data_image0
_chemical_formula_structural       Co3PH12C18N3O10
_chemical_formula_sum              "Co3 P1 H12 C18 N3 O10"
_cell_length_a       4.384875113372827
_cell_length_b       11.549840995121876
_cell_length_c       11.556607133999517
_cell_angle_alpha    118.39567246393909
_cell_angle_beta     97.16060160339502
_cell_angle_gamma    97.33009337734886

_space_group_name_H-M_alt    "P 1"
_space_group_IT_number       1

loop_
  _space_group_symop_operation_xyz
  'x, y, z'

loop_
  _atom_site_type_symbol
  _atom_site_label
  _atom_site_symmetry_multiplicity
  _atom_site_fract_x
  _atom_site_fract_y
  _atom_site_fract_z
  _atom_site_occupancy
  Co  Co1       1.0  0.8794323494090365  0.18221889969441918  0.00010881083069590303  1.0000
  Co  Co2       1.0  0.6996710004287365  0.8177204853689444  0.817700500356672  1.0000
  Co  Co3       1.0  0.8823393296230863  0.9994299461749563  0.1827954687991208  1.0000
  P   P1        1.0  0.3384006769509611  0.00011508250828030011  0.9997767154145834  1.0000
  H   H1        1.0  0.05989800181934872  0.5632729557559415  0.3763569025080145  1.0000
  H   H2        1.0  0.4966087227412856  0.8134963015766131  0.4371627521942615  1.0000
  H   H3        1.0  0.6815153943547969  0.623394291802164  0.1865964694270019  1.0000
  H   H4        1.0  0.9888145362260943  0.7589386344174825  0.58808084336642  1.0000
  H   H5        1.0  0.23114993990316912  0.8294606722022239  0.24145638952322201  1.0000
  H   H6        1.0  0.39970243372717806  0.41114124045289907  0.1701542983825561  1.0000
  H   H7        1.0  0.4647122376544885  0.5072573628904351  0.6858985799975628  1.0000
  H   H8        1.0  0.9576005228189286  0.178410893927321  0.49249146254975773  1.0000
  H   H9        1.0  0.7790959572336432  0.31375086920304074  0.8215777232302627  1.0000
  H   H10       1.0  0.530691759146876  0.29990784486959393  0.48195066693511274  1.0000
  H   H11       1.0  0.2303554540257196  0.18198028468668068  0.6998222461023147  1.0000
  H   H12       1.0  0.04826182726553446  0.5182272951568407  0.8185069789440931  1.0000
  C   C1        1.0  0.8544002779383888  0.29648539494634474  0.292474046531261  1.0000
  C   C2        1.0  0.5589886159794446  0.9964437464525417  0.7034448966607556  1.0000
  C   C3        1.0  0.5624833196353194  0.7075270046964731  0.004294654966358311  1.0000
  C   C4        1.0  0.8026803734133594  0.4161601821932948  0.4137492878916262  1.0000
  C   C5        1.0  0.3867993954941441  0.997872632498222  0.583926625777913  1.0000
  C   C6        1.0  0.38792617811951396  0.586314333850261  0.0025133933809797573  1.0000
  C   C7        1.0  0.9267254087321888  0.5471152137566548  0.4428713321223441  1.0000
  C   C8        1.0  0.3797172030388011  0.8960464287571737  0.4531347198274104  1.0000
  C   C9        1.0  0.48226065249960454  0.556920471389702  0.10407591819996748  1.0000
  C   C10       1.0  0.8860648633554716  0.6557679428803168  0.5593913808169829  1.0000
  C   C11       1.0  0.23098051609042586  0.9038373839504384  0.3444731833314305  1.0000
  C   C12       1.0  0.32556256307253056  0.4400673104346995  0.09597203685299151  1.0000
  C   C13       1.0  0.5968264904184721  0.5143428788171464  0.6148368719248579  1.0000
  C   C14       1.0  0.08268540776573731  0.10042948938054508  0.4855671656184839  1.0000
  C   C15       1.0  0.9818198686181604  0.38487370025258383  0.8995834293372981  1.0000
  C   C16       1.0  0.6345320969189885  0.4003480258934787  0.502372201771621  1.0000
  C   C17       1.0  0.2341300113929421  0.10207817330040568  0.5995427836666707  1.0000
  C   C18       1.0  0.13162626123772722  0.4976361847234898  0.898265734622278  1.0000
  N   N1        1.0  0.7222675272717893  0.64065495377087  0.6445332328923142  1.0000
  N   N2        1.0  0.08241056651464619  0.0039735093907396  0.3593726622205864  1.0000
  N   N3        1.0  0.077329670844442  0.35486181308151993  0.9958511170321529  1.0000
  O   O1        1.0  0.9060249249196345  0.3149149373236142  0.19608619668352384  1.0000
  O   O2        1.0  0.5948994195293125  0.8819126427275351  0.6850948959179206  1.0000
  O   O3        1.0  0.7121819478720681  0.8034924135923729  0.1189110438921616  1.0000
  O   O4        1.0  0.8481826094234535  0.1896946630004024  0.2993730996714703  1.0000
  O   O5        1.0  0.6575371475526666  0.1101123580531294  0.8101707194973713  1.0000
  O   O6        1.0  0.5503168616810469  0.7010362130491997  0.8908595650600047  1.0000
  O   O7        1.0  0.6997033706787549  0.0002876030364618  0.999455620713654  1.0000
  O   O8        1.0  0.2972245388774297  0.1376714046407841  0.01565120234189271  1.0000
  O   O9        1.0  0.15988407791208922  0.8783633202587781  0.8623271458165361  1.0000
  O   O10       1.0  0.2811737384039786  0.9840351283971028  0.12138666353727944  1.0000
