data_image0
_chemical_formula_structural       Ga2H16C8Cl6O4
_chemical_formula_sum              "Ga2 H16 C8 Cl6 O4"
_cell_length_a       6.339172010376621
_cell_length_b       6.463374021996938
_cell_length_c       12.48931616225315
_cell_angle_alpha    103.15518484006327
_cell_angle_beta     90.00114799162657
_cell_angle_gamma    119.36777285410206

_space_group_name_H-M_alt    "P 1"
_space_group_IT_number       1

loop_
  _space_group_symop_operation_xyz
  'x, y, z'

loop_
  _atom_site_type_symbol
  _atom_site_label
  _atom_site_symmetry_multiplicity
  _atom_site_fract_x
  _atom_site_fract_y
  _atom_site_fract_z
  _atom_site_occupancy
  Ga  Ga1       1.0  0.7846761495871777  1.2194335638937862e-06  0.7500031249646426  1.0000
  Ga  Ga2       1.0  0.2153348447560077  6.77357547985363e-08  0.24999812403417113  1.0000
  H   H1        1.0  0.9319060716847859  0.7875409280287968  0.5326130217411986  1.0000
  H   H2        1.0  0.8556476606448198  0.7875546930278501  0.032592834825585684  1.0000
  H   H3        1.0  0.06806549433879637  0.2124421056785977  0.4673879726862538  1.0000
  H   H4        1.0  0.14434149343870215  0.21245405121402425  0.9674129003722242  1.0000
  H   H5        1.0  0.6993813172479475  0.8141859095730125  0.46461292037162144  1.0000
  H   H6        1.0  0.11479566143625401  0.8141581975354765  0.9646052213833157  1.0000
  H   H7        1.0  0.3006098562093626  0.1858174087494007  0.5353881487145102  1.0000
  H   H8        1.0  0.8851928528884443  0.18585242220378717  0.035399141361558896  1.0000
  H   H9        1.0  0.31142073532569714  0.6680403435212979  0.534844882918236  1.0000
  H   H10       1.0  0.35662821943302686  0.6680393426222223  0.03486187225729509  1.0000
  H   H11       1.0  0.688568582553451  0.33196872893052637  0.46514647932790615  1.0000
  H   H12       1.0  0.6433581128699756  0.33195113875322585  0.9651360279745659  1.0000
  H   H13       1.0  0.26897364180968697  0.5332882832346968  0.649739043305253  1.0000
  H   H14       1.0  0.26429789623519884  0.533297260373132  0.1497554259273954  1.0000
  H   H15       1.0  0.7310143675271447  0.4667150167847184  0.35026282425561567  1.0000
  H   H16       1.0  0.735715038800599  0.46671172142759315  0.8502399289746664  1.0000
  C   C1        1.0  0.7360691295870578  0.6981994142728354  0.504911610541548  1.0000
  C   C2        1.0  0.9621744167969338  0.6982338402665531  0.0049249283343967675  1.0000
  C   C3        1.0  0.2639437696235661  0.30179687655568443  0.4950741875615989  1.0000
  C   C4        1.0  0.037835279594915436  0.30176550863453133  0.9950884677495608  1.0000
  C   C5        1.0  0.3524484555557378  0.5521048623001191  0.5731560193115257  1.0000
  C   C6        1.0  0.19967572332165412  0.552150981402363  0.07317947605463358  1.0000
  C   C7        1.0  0.6475080643913884  0.44781968634212177  0.42682181957557225  1.0000
  C   C8        1.0  0.8003499136986746  0.44790548761530147  0.926836090097801  1.0000
  Cl  Cl1       1.0  0.7305304981288999  0.21592959917451535  0.6528015548574402  1.0000
  Cl  Cl2       1.0  0.4854397957945197  0.215953794769888  0.1528075079428035  1.0000
  Cl  Cl3       1.0  0.26948609576393767  0.7840646156529659  0.3471943991916789  1.0000
  Cl  Cl4       1.0  0.5145835767286115  0.784047666980115  0.8471941353247417  1.0000
  Cl  Cl5       1.0  0.1278988669016172  1.2524616735691938e-05  0.7500039637314586  1.0000
  Cl  Cl6       1.0  0.8721069642118946  0.9999854045304414  0.24999084233868976  1.0000
  O   O1        1.0  0.6152717513078514  0.6750077996374984  0.6041812648978464  1.0000
  O   O2        1.0  0.059705434202790175  0.6750262153387396  0.1041402801410456  1.0000
  O   O3        1.0  0.38473626690245055  0.32500396669293247  0.3958536654334495  1.0000
  O   O4        1.0  0.9402910683449122  0.3249719871094072  0.8958425484016458  1.0000
