data_image0
_chemical_formula_structural       CuSiH16C24N4O8F6
_chemical_formula_sum              "Cu1 Si1 H16 C24 N4 O8 F6"
_cell_length_a       8.148658099658677
_cell_length_b       13.711227731168359
_cell_length_c       13.711266367290069
_cell_angle_alpha    90.00109925101623
_cell_angle_beta     89.99887921889625
_cell_angle_gamma    89.99902547038971

_space_group_name_H-M_alt    "P 1"
_space_group_IT_number       1

loop_
  _space_group_symop_operation_xyz
  'x, y, z'

loop_
  _atom_site_type_symbol
  _atom_site_label
  _atom_site_symmetry_multiplicity
  _atom_site_fract_x
  _atom_site_fract_y
  _atom_site_fract_z
  _atom_site_occupancy
  Cu  Cu1       1.0  0.5000212334551577  0.499986046115815  0.5000002064343718  1.0000
  Si  Si1       1.0  2.60254447468e-05  0.4999928451833213  0.500003105365245  1.0000
  H   H1        1.0  0.24260108301727715  0.6547961875161549  0.4999915147235683  1.0000
  H   H2        1.0  0.7574208176032188  0.6548039031704178  0.49998634200078135  1.0000
  H   H3        1.0  0.2426142868167602  0.34518277515799406  0.4999593715078774  1.0000
  H   H4        1.0  0.7574340194449718  0.34516277767748704  0.5000978759847428  1.0000
  H   H5        1.0  0.2426032889746566  0.5000143052396666  0.6548138035518534  1.0000
  H   H6        1.0  0.757425477944274  0.5000169156259773  0.6548137360565179  1.0000
  H   H7        1.0  0.2426083973573441  0.5000317562788369  0.3451925122145454  1.0000
  H   H8        1.0  0.7574281340917608  0.49990819254874447  0.34517566899663876  1.0000
  H   H9        1.0  0.7779761711120088  0.9138695903670424  0.4999865200006042  1.0000
  H   H10       1.0  0.22199382992283026  0.9138569694788857  0.500053194816175  1.0000
  H   H11       1.0  0.7779921830852816  0.08609907960097729  0.500136843307331  1.0000
  H   H12       1.0  0.22202579952461585  0.08611781715039514  0.49992783263601137  1.0000
  H   H13       1.0  0.7779926885863732  0.5000287823892791  0.9138764857510681  1.0000
  H   H14       1.0  0.22201648513976122  0.4999672958071884  0.9138804379200067  1.0000
  H   H15       1.0  0.7779867134841467  0.4998829985251802  0.0861097634267267  1.0000
  H   H16       1.0  0.22201909637013986  0.50007240135254  0.08613195113350969  1.0000
  C   C1        1.0  0.35582400423815846  0.6970135942004987  0.4999956392264124  1.0000
  C   C2        1.0  0.35151380422936285  0.798692329002037  0.5000090381595825  1.0000
  C   C3        1.0  0.4999951223345108  0.8522681391752375  0.5000108792185785  1.0000
  C   C4        1.0  0.6484854001277186  0.7986967244157415  0.5000043991147862  1.0000
  C   C5        1.0  0.6441941838274587  0.6970202193144955  0.4999939673811298  1.0000
  C   C6        1.0  0.49999113508033605  0.9551400358071901  0.5000220766492589  1.0000
  C   C7        1.0  0.5000022430578994  0.04483424517493261  0.5000330360677907  1.0000
  C   C8        1.0  0.5000154368284699  0.14770176562194595  0.5000311054666255  1.0000
  C   C9        1.0  0.3515325228831614  0.20127974386161182  0.4999909086475895  1.0000
  C   C10       1.0  0.35583846567037375  0.30295843678141676  0.4999911297355482  1.0000
  C   C11       1.0  0.6442061899396166  0.302949017341554  0.5000602024924774  1.0000
  C   C12       1.0  0.6484955273288977  0.20127028280902687  0.5000643075339326  1.0000
  C   C13       1.0  0.3558285969985563  0.500014890885197  0.6970353594445128  1.0000
  C   C14       1.0  0.3515280521839018  0.5000071351348936  0.798710894266641  1.0000
  C   C15       1.0  0.5000105118868846  0.5000025534951575  0.8522827654692691  1.0000
  C   C16       1.0  0.6484922849358058  0.5000071546295218  0.798708443204262  1.0000
  C   C17       1.0  0.6441987767302849  0.5000127640407044  0.6970329581880321  1.0000
  C   C18       1.0  0.5000075875598357  0.499996246980217  0.9551470787831987  1.0000
  C   C19       1.0  0.5000005177062902  0.49998970264648784  0.044850417108762  1.0000
  C   C20       1.0  0.5000074109598387  0.4999841253992657  0.14771327171829537  1.0000
  C   C21       1.0  0.3515280916464647  0.5000130734913597  0.2012970755449714  1.0000
  C   C22       1.0  0.35583387182209253  0.5000067346914108  0.30297256048304894  1.0000
  C   C23       1.0  0.6442003710026613  0.49994553210122206  0.3029606774271443  1.0000
  C   C24       1.0  0.6484898711650048  0.49994745325672346  0.20128368395860724  1.0000
  N   N1        1.0  0.5000116461373025  0.6492797519458055  0.4999899693941003  1.0000
  N   N2        1.0  0.5000234572795607  0.3506967164441832  0.5000257594312743  1.0000
  N   N3        1.0  0.5000114065705574  0.5000151928203137  0.6492927626413447  1.0000
  N   N4        1.0  0.5000163337387491  0.4999736740563919  0.3507076504737014  1.0000
  O   O1        1.0  0.7968281748784422  0.8435599675624345  0.500007616053864  1.0000
  O   O2        1.0  0.20316110218043093  0.8435460701268481  0.5000205391297712  1.0000
  O   O3        1.0  0.7968420925802776  0.1564092489597684  0.5001089647265289  1.0000
  O   O4        1.0  0.20317747668526212  0.15642816964425066  0.4999461202391444  1.0000
  O   O5        1.0  0.7968423511713354  0.5000083246734519  0.8435663134145983  1.0000
  O   O6        1.0  0.20317282412808174  0.5000009911294185  0.8435704846408711  1.0000
  O   O7        1.0  0.7968365097027643  0.49990035623059015  0.1564204464872674  1.0000
  O   O8        1.0  0.2031706616016536  0.5000520166151148  0.15644139374383312  1.0000
  F   F1        1.0  0.21533632316570114  0.4999728392694892  0.5000113381041871  1.0000
  F   F2        1.0  0.7847233246695781  0.4999926888662928  0.4999839693113373  1.0000
  F   F3        1.0  5.807296518870001e-05  0.5879009786768135  0.4121127232582324  1.0000
  F   F4        1.0  1.1332405590000339e-07  0.41210586236345403  0.5879095328387648  1.0000
  F   F5        1.0  2.69471153231e-05  0.5878990184530721  0.5878966324814671  1.0000
  F   F6        1.0  4.2284561011700003e-05  0.41209907029532644  0.4120957210508607  1.0000
