data_image0
_chemical_formula_structural       Zn4H12C38O16F12
_chemical_formula_sum              "Zn4 H12 C38 O16 F12"
_cell_length_a       7.7000270659818
_cell_length_b       10.620380778586396
_cell_length_c       12.552689924205643
_cell_angle_alpha    95.10460810263653
_cell_angle_beta     107.84652409614802
_cell_angle_gamma    89.99515828696747

_space_group_name_H-M_alt    "P 1"
_space_group_IT_number       1

loop_
  _space_group_symop_operation_xyz
  'x, y, z'

loop_
  _atom_site_type_symbol
  _atom_site_label
  _atom_site_symmetry_multiplicity
  _atom_site_fract_x
  _atom_site_fract_y
  _atom_site_fract_z
  _atom_site_occupancy
  Zn  Zn1       1.0  0.29928378304624914  0.6105078743458561  0.4696314606484151  1.0000
  Zn  Zn2       1.0  0.8296779067004182  0.8896025941423032  0.5303786197106463  1.0000
  Zn  Zn3       1.0  0.7007158999504456  0.3894934040743792  0.530369346318956  1.0000
  Zn  Zn4       1.0  0.1703216917277217  0.1103967752881871  0.4696196476470221  1.0000
  H   H1        1.0  0.8993181429913905  0.8348242643942072  0.21717197793442017  1.0000
  H   H2        1.0  0.6820301574934861  0.6649637841330289  0.7828539290446487  1.0000
  H   H3        1.0  0.10068149578893333  0.16517605660085624  0.7828271603323529  1.0000
  H   H4        1.0  0.31796948515102497  0.3350365427226336  0.21714600701362496  1.0000
  H   H5        1.0  0.6284813547897418  0.8628982172511144  0.056818648091201934  1.0000
  H   H6        1.0  0.5715690213666919  0.637126242435265  0.9433032413874828  1.0000
  H   H7        1.0  0.37151825136676564  0.13710116390054589  0.9431812148494886  1.0000
  H   H8        1.0  0.428429256861982  0.3628740826027084  0.05669644015792839  1.0000
  H   H9        1.0  0.32242459271317614  0.6046059074128178  0.18343543194311  1.0000
  H   H10       1.0  0.13910565108064082  0.8955355365694898  0.8166841410746386  1.0000
  H   H11       1.0  0.6775764182113593  0.3953944271211114  0.8165655564195404  1.0000
  H   H12       1.0  0.8608954328198949  0.10446668937242977  0.18331699352319225  1.0000
  C   C1        1.0  0.6007047852479062  0.6397569605661673  0.27960747160584287  1.0000
  C   C2        1.0  0.32123567774755907  0.8602797047304802  0.7204752891485456  1.0000
  C   C3        1.0  0.3992962218124489  0.3602433681071772  0.7203927189653072  1.0000
  C   C4        1.0  0.6787654061529765  0.1397225212114321  0.2795258454492854  1.0000
  C   C5        1.0  0.7657641891394322  0.7033584459722562  0.2897506512691024  1.0000
  C   C6        1.0  0.4760814334835787  0.7965683716997203  0.7102913859528003  1.0000
  C   C7        1.0  0.23423544964089876  0.2966418750228143  0.7102484869976706  1.0000
  C   C8        1.0  0.5239196139289534  0.20343290853820403  0.2897096755274404  1.0000
  C   C9        1.0  0.772575775691685  0.7838269262218771  0.20881632067066397  1.0000
  C   C10       1.0  0.5637272206153768  0.7160869191875248  0.7912366790623082  1.0000
  C   C11       1.0  0.22742250253699584  0.21617339881609604  0.7911833608747402  1.0000
  C   C12       1.0  0.4362724585171379  0.28391435337212556  0.20876333011355547  1.0000
  C   C13       1.0  0.6188347414505417  0.799523974758678  0.11830025331577333  1.0000
  C   C14       1.0  0.5005131854058861  0.7005224539052362  0.8818201245432108  1.0000
  C   C15       1.0  0.38116489732978215  0.20047634623639243  0.8816988849509997  1.0000
  C   C16       1.0  0.4994864937266286  0.2994788186544141  0.1181798846326529  1.0000
  C   C17       1.0  0.45533149609709517  0.7324739363035064  0.1043551303485302  1.0000
  C   C18       1.0  0.351054545504212  0.7676972052629835  0.8958069637782488  1.0000
  C   C19       1.0  0.5446667821315786  0.26752638873446694  0.895644551196881  1.0000
  C   C20       1.0  0.6489451374924827  0.232304073157259  0.10419384318912255  1.0000
  C   C21       1.0  0.44702988670086097  0.6555681789878774  0.18739254808936323  1.0000
  C   C22       1.0  0.25977850768978783  0.8445782084894657  0.812742952552931  1.0000
  C   C23       1.0  0.5529697598078301  0.3444321537283698  0.8126081857604248  1.0000
  C   C24       1.0  0.740222539722751  0.15542307174845857  0.18725810892730976  1.0000
  C   C25       1.0  0.5839777113159242  0.5507266720213195  0.3618410462644022  1.0000
  C   C26       1.0  0.22227424959853442  0.9492022177842758  0.6381523933565916  1.0000
  C   C27       1.0  0.41602193519276653  0.44927366069492775  0.638159687585386  1.0000
  C   C28       1.0  0.77772542953398  0.05079905477537489  0.3618476158192721  1.0000
  C   C29       1.0  0.9383521654145924  0.6916221006709334  0.3840280533093576  1.0000
  C   C30       1.0  0.5544531752477725  0.8082723797087469  0.6160023298699785  1.0000
  C   C31       1.0  0.06164876480556811  0.30837633073384296  0.6159711932351116  1.0000
  C   C32       1.0  0.4455478279483955  0.19172794310400576  0.3839970629096641  1.0000
  C   C33       1.0  0.29114877168594683  0.7501035406728248  0.00010418872108887887  1.0000
  C   C34       1.0  0.7088521988863976  0.24989584229652448  0.999895928732471  1.0000
  C   C35       1.0  0.18929250046466006  0.8669170123660449  0.03227288561413386  1.0000
  C   C36       1.0  0.15720434039324263  0.6332605160456166  0.9679158822724789  1.0000
  C   C37       1.0  0.8107070653396635  0.13308141722104233  0.9677261064174658  1.0000
  C   C38       1.0  0.8427952580349045  0.3667388533848737  0.032082385085189506  1.0000
  O   O1        1.0  0.42614092125009523  0.5224416075282932  0.3672031525845371  1.0000
  O   O2        1.0  0.05906694751712389  0.9775127726079872  0.6327927947625653  1.0000
  O   O3        1.0  0.573860085810253  0.4775587211450514  0.6327970379866131  1.0000
  O   O4        1.0  0.9409340595432242  0.022487556065357198  0.3672073958085775  1.0000
  O   O5        1.0  0.7308346353342331  0.5030632968392722  0.420827882319827  1.0000
  O   O6        1.0  0.31006989332473006  0.9967232484865745  0.5790192257332833  1.0000
  O   O7        1.0  0.26916501117446506  0.4969370358769822  0.5791728515299612  1.0000
  O   O8        1.0  0.6899297858077845  0.003278024073075901  0.4209807834425804  1.0000
  O   O9        1.0  0.06441708636299381  0.6324761881677574  0.3570894309573164  1.0000
  O   O10       1.0  0.7073811604216259  0.8674658191451742  0.6429668939148598  1.0000
  O   O11       1.0  0.9355838803451634  0.3675231889410071  0.6429098887047361  1.0000
  O   O12       1.0  0.29261851484670126  0.1325354475538916  0.3570323174694964  1.0000
  O   O13       1.0  0.9589641431224437  0.7453540747003443  0.48218878131136494  1.0000
  O   O14       1.0  0.47701320813986575  0.7545906349775605  0.5178224348686911  1.0000
  O   O15       1.0  0.04103686007372431  0.2546462481124081  0.5178106114682777  1.0000
  O   O16       1.0  0.5229864422330125  0.2454097035992788  0.4821790967726046  1.0000
  F   F1        1.0  0.28790061468793476  0.975220088914298  0.03742021581731335  1.0000
  F   F2        1.0  0.2508121320674165  0.5249944443944443  0.9627563102906578  1.0000
  F   F3        1.0  0.7120976309169225  0.024779296280279098  0.962580190402008  1.0000
  F   F4        1.0  0.749188838504935  0.47500493857491227  0.03724380716290191  1.0000
  F   F5        1.0  0.020689153209985975  0.8777786055316877  0.9569456866691298  1.0000
  F   F6        1.0  0.06384247686840891  0.6222810594857932  0.04320865551053998  1.0000
  F   F7        1.0  0.979309088530691  0.1222207738022973  0.04305392175868409  1.0000
  F   F8        1.0  0.9361570889359143  0.3777173701012941  0.9567903365210527  1.0000
  F   F9        1.0  0.16482999852273392  0.8628734202206233  0.13453784274432223  1.0000
  F   F10       1.0  0.030609797253461586  0.6373098645307137  0.8656505724278319  1.0000
  F   F11       1.0  0.8351682470821161  0.13712596497394708  0.8654625634750062  1.0000
  F   F12       1.0  0.9693924973825363  0.3626885686917447  0.13434892862949974  1.0000
