data_image0
_chemical_formula_structural       Cu2H30C54I2N6
_chemical_formula_sum              "Cu2 H30 C54 I2 N6"
_cell_length_a       9.715588035814548
_cell_length_b       9.945256723825912
_cell_length_c       15.151359226862942
_cell_angle_alpha    107.04085737037664
_cell_angle_beta     98.14229920157014
_cell_angle_gamma    98.13907489555532

_space_group_name_H-M_alt    "P 1"
_space_group_IT_number       1

loop_
  _space_group_symop_operation_xyz
  'x, y, z'

loop_
  _atom_site_type_symbol
  _atom_site_label
  _atom_site_symmetry_multiplicity
  _atom_site_fract_x
  _atom_site_fract_y
  _atom_site_fract_z
  _atom_site_occupancy
  Cu  Cu1       1.0  0.08551001648567083  0.6167376349170938  0.007529630814431736  1.0000
  Cu  Cu2       1.0  0.914492747402598  0.3832590380324561  0.992472299842412  1.0000
  H   H1        1.0  0.1423029483796512  0.7917565822364097  0.2056378024649917  1.0000
  H   H2        1.0  0.8576998683981787  0.20824546018202736  0.7943612041409199  1.0000
  H   H3        1.0  0.34973840010110996  0.9443788630951743  0.3288583428940727  1.0000
  H   H4        1.0  0.6502652708333728  0.0556274673191339  0.6711409072108341  1.0000
  H   H5        1.0  0.6176346609072496  0.8035302504553883  0.12804288121771637  1.0000
  H   H6        1.0  0.38236939656901114  0.19647285550826868  0.8719577660069721  1.0000
  H   H7        1.0  0.39862226553419333  0.6573524025128706  0.014113924382229498  1.0000
  H   H8        1.0  0.6013844871064935  0.34264853745858664  0.9858858996788914  1.0000
  H   H9        1.0  0.7573087803119736  0.9505298851234727  0.5248816252900427  1.0000
  H   H10       1.0  0.24269256022121516  0.04946465483262591  0.47511448217163393  1.0000
  H   H11       1.0  0.1301781702209013  0.2718190293145285  0.6770831523991989  1.0000
  H   H12       1.0  0.8698277149032096  0.7281722564571211  0.32291407643575826  1.0000
  H   H13       1.0  0.9189605011801447  0.2717623670144177  0.4059005926934916  1.0000
  H   H14       1.0  0.0810418761663456  0.7282375303857833  0.5940999408435703  1.0000
  H   H15       1.0  0.4722426383339383  0.6127518182433391  0.6771471346594284  1.0000
  H   H16       1.0  0.527767664177972  0.3872673390786687  0.322864440696705  1.0000
  H   H17       1.0  0.6741320902778513  0.7912583929420193  0.6676498771989616  1.0000
  H   H18       1.0  0.32587287424463096  0.20875437048640325  0.3323480894737899  1.0000
  H   H19       1.0  0.48135184143808385  0.7832539177411845  0.4043233746463884  1.0000
  H   H20       1.0  0.5186284817219474  0.2167396977626197  0.5956758642217326  1.0000
  H   H21       1.0  0.2704547297298348  0.6054933392928916  0.40185658731395096  1.0000
  H   H22       1.0  0.7295302895668314  0.3945034540055659  0.5981562424813733  1.0000
  H   H23       1.0  0.8913345036709046  0.6757630527271417  0.6919273734930587  1.0000
  H   H24       1.0  0.10865680952331762  0.3242337006639744  0.30807745875149817  1.0000
  H   H25       1.0  0.945314678985824  0.5433743943346626  0.8064123156552373  1.0000
  H   H26       1.0  0.05467892800743357  0.4566234162905543  0.19359227472276072  1.0000
  H   H27       1.0  0.15522607269208774  0.9173002393987626  0.015314287114136965  1.0000
  H   H28       1.0  0.8447719194777863  0.082698614613939  0.9846882748433858  1.0000
  H   H29       1.0  0.11333498816311055  0.06621717390142831  0.9101193102274298  1.0000
  H   H30       1.0  0.8866663227228528  0.9337773636059552  0.08988075406781362  1.0000
  C   C1        1.0  0.24980871396669363  0.7981723710990636  0.19186018537794786  1.0000
  C   C2        1.0  0.7501951410881208  0.2018296637838901  0.8081389171593972  1.0000
  C   C3        1.0  0.3649555182009152  0.8827150816341525  0.25980558853660807  1.0000
  C   C4        1.0  0.6350487614616186  0.11728909704267922  0.74019396548637  1.0000
  C   C5        1.0  0.5021542582270087  0.888068597626102  0.23877925856132987  1.0000
  C   C6        1.0  0.4978475301562427  0.11193345314404719  0.7612183331686142  1.0000
  C   C7        1.0  0.5142170355891694  0.8061075676780546  0.14792720639616874  1.0000
  C   C8        1.0  0.4857847527940821  0.1938944830920946  0.8520703853337682  1.0000
  C   C9        1.0  0.3927397914185136  0.724161476623685  0.08439591301959844  1.0000
  C   C10       1.0  0.6072638513324335  0.2758394863623295  0.9156029637749301  1.0000
  C   C11       1.0  0.6206438745097246  0.9694914290656486  0.3093682262448213  1.0000
  C   C12       1.0  0.37936123112593384  0.030511670178768203  0.6906311979667877  1.0000
  C   C13       1.0  0.7155075447824047  0.0377305717391678  0.3760407253094727  1.0000
  C   C14       1.0  0.2844936017480536  0.9622682629320497  0.6239568486642855  1.0000
  C   C15       1.0  0.8245982087391186  0.10541248095768205  0.4565197425475775  1.0000
  C   C16       1.0  0.17540604273987986  0.8945863302908563  0.5434794381650294  1.0000
  C   C17       1.0  0.8344306187405766  0.0451078428152059  0.5296401278774496  1.0000
  C   C18       1.0  0.16557343031696808  0.9548898973526366  0.47035750814781385  1.0000
  C   C19       1.0  0.9450298720776615  0.10444142576464084  0.6086370845382805  1.0000
  C   C20       1.0  0.05497206730117909  0.8955509616377454  0.3913606457859873  1.0000
  C   C21       1.0  0.044494068930241305  0.22646757465637532  0.6158494420125751  1.0000
  C   C22       1.0  0.9555101642476347  0.7735258699801051  0.38414804644513384  1.0000
  C   C23       1.0  0.035370959002811724  0.28602678845096113  0.5420643681360604  1.0000
  C   C24       1.0  0.9646316172876155  0.7139688146422357  0.4579340394166565  1.0000
  C   C25       1.0  0.9250423280655583  0.22560672017268493  0.4627968824355123  1.0000
  C   C26       1.0  0.07496235296236621  0.774394235277846  0.5372020902904567  1.0000
  C   C27       1.0  0.1419397947138705  0.400465219184575  0.544016915283976  1.0000
  C   C28       1.0  0.8580621283776683  0.5995325319730398  0.45598712360102683  1.0000
  C   C29       1.0  0.23826141727464295  0.49196474200001467  0.541971093901772  1.0000
  C   C30       1.0  0.761740474705974  0.5080383716884712  0.4580412319607563  1.0000
  C   C31       1.0  0.35406973166763583  0.5936240616669792  0.5397450721878772  1.0000
  C   C32       1.0  0.645931981133856  0.40638334796098263  0.4602667417699494  1.0000
  C   C33       1.0  0.4706502558375193  0.6480073477370425  0.6154622202867019  1.0000
  C   C34       1.0  0.5293548419295534  0.35200648105841736  0.3845465236850601  1.0000
  C   C35       1.0  0.5826268320005923  0.7469503559578212  0.6097791906386051  1.0000
  C   C36       1.0  0.4173755967717626  0.25306027589085295  0.39022274899146964  1.0000
  C   C37       1.0  0.475750854721433  0.7425958486031448  0.46360649560018186  1.0000
  C   C38       1.0  0.52423904353644  0.2574041375903419  0.5363955246486329  1.0000
  C   C39       1.0  0.358479317138972  0.6431387607071812  0.4618478766924527  1.0000
  C   C40       1.0  0.6415128255058848  0.3568622786392126  0.5381604964124237  1.0000
  C   C41       1.0  0.9599706779943277  0.0325422946168104  0.6763926075234041  1.0000
  C   C42       1.0  0.04003146874716636  0.9674511642744011  0.3236060080159434  1.0000
  C   C43       1.0  0.974273647868529  0.9627528498747043  0.7300041176152947  1.0000
  C   C44       1.0  0.02573016417913011  0.03724381635560551  0.26999659002846244  1.0000
  C   C45       1.0  0.9982644555635009  0.8830112503293605  0.7919134451213597  1.0000
  C   C46       1.0  0.0017329095771927083  0.11698438880876695  0.20808712066320117  1.0000
  C   C47       1.0  0.9497485437889567  0.7332045456594685  0.7632371165918389  1.0000
  C   C48       1.0  0.050242986650332014  0.2667932800367013  0.23676728192327096  1.0000
  C   C49       1.0  0.9789663501468271  0.659498835495974  0.8263284289916232  1.0000
  C   C50       1.0  0.0210262333930586  0.34049898388907707  0.17367408703815104  1.0000
  C   C51       1.0  0.09768708667830588  0.8679461753155023  0.9428997268821822  1.0000
  C   C52       1.0  0.9023104907662475  0.13205053571956432  0.05710106464519534  1.0000
  C   C53       1.0  0.07461497889384114  0.9504484571244944  0.8847575903683237  1.0000
  C   C54       1.0  0.9253828009721731  0.0495493249912755  0.11524474584638977  1.0000
  I   I1        1.0  0.8624172875676523  0.6295062490385563  0.09265034356337055  1.0000
  I   I2        1.0  0.1375833997666476  0.3704904389819533  0.9073513952305848  1.0000
  N   N1        1.0  0.2613557953132429  0.7190992702466589  0.10491537427856203  1.0000
  N   N2        1.0  0.7386494944427326  0.28089953346640323  0.8950839023654781  1.0000
  N   N3        1.0  0.05135737415331925  0.7246041506460938  0.9153681933302241  1.0000
  N   N4        1.0  0.9486401835264218  0.2753925587564936  0.08463523608619992  1.0000
  N   N5        1.0  0.5865376984478347  0.7948502031089361  0.5359069622209989  1.0000
  N   N6        1.0  0.4134539046458273  0.20515299368859982  0.4640918743541322  1.0000
