data_image0
_chemical_formula_structural       Zn4H28C44N28O20
_chemical_formula_sum              "Zn4 H28 C44 N28 O20"
_cell_length_a       6.857669041012975
_cell_length_b       10.745247976190942
_cell_length_c       18.817309403116607
_cell_angle_alpha    100.27509632010494
_cell_angle_beta     90.0001094248889
_cell_angle_gamma    90.00017002161206

_space_group_name_H-M_alt    "P 1"
_space_group_IT_number       1

loop_
  _space_group_symop_operation_xyz
  'x, y, z'

loop_
  _atom_site_type_symbol
  _atom_site_label
  _atom_site_symmetry_multiplicity
  _atom_site_fract_x
  _atom_site_fract_y
  _atom_site_fract_z
  _atom_site_occupancy
  Zn  Zn1       1.0  0.0281865293856853  0.5724590813176533  0.8325287554095553  1.0000
  Zn  Zn2       1.0  0.5281935556174489  0.9275387740067984  0.6674706258262688  1.0000
  Zn  Zn3       1.0  0.9718126853603976  0.4275404926682427  0.16747097809371073  1.0000
  Zn  Zn4       1.0  0.47180420090231917  0.0724589083565874  0.332528917076182  1.0000
  H   H1        1.0  0.38270238759607617  0.19181332294103728  0.18391914563070338  1.0000
  H   H2        1.0  0.882700882252024  0.3081877744833719  0.3160808575735672  1.0000
  H   H3        1.0  0.6173012018143138  0.8081862510496479  0.8160805878745947  1.0000
  H   H4        1.0  0.11729687427749268  0.6918136911218368  0.683919066529171  1.0000
  H   H5        1.0  0.23799388729298696  0.8316582394875668  0.006015366152311701  1.0000
  H   H6        1.0  0.7379926566691564  0.6683401989529825  0.4939838785713632  1.0000
  H   H7        1.0  0.7620111603339621  0.16833944288380556  0.9939841767535142  1.0000
  H   H8        1.0  0.2620050998606871  0.33166032453495825  0.5060170134566632  1.0000
  H   H9        1.0  0.15470508487686627  0.0731439804415004  0.8499517410062224  1.0000
  H   H10       1.0  0.6547120176094409  0.4268546023943074  0.6500481912554434  1.0000
  H   H11       1.0  0.8452912134301583  0.926856541198248  0.1500486194084445  1.0000
  H   H12       1.0  0.345288655350764  0.573142134161813  0.3499512563482767  1.0000
  H   H13       1.0  0.3653992335291818  0.8187174343415506  0.2256265998376463  1.0000
  H   H14       1.0  0.865396924255343  0.681283178540326  0.2743740167639714  1.0000
  H   H15       1.0  0.6345999812220952  0.1812830891479819  0.7743742921910481  1.0000
  H   H16       1.0  0.1346066651651228  0.3187192365749211  0.7256270658669024  1.0000
  H   H17       1.0  0.9828091174525821  0.27092491801581536  0.8638099985373132  1.0000
  H   H18       1.0  0.4828134643397775  0.2290734322998489  0.6361885476040355  1.0000
  H   H19       1.0  0.017191555512170005  0.7290746522784985  0.136188671741273  1.0000
  H   H20       1.0  0.5171828339620461  0.7709261398362627  0.36381065428520276  1.0000
  H   H21       1.0  0.33852117498607737  0.5758050821123605  0.9584415866660406  1.0000
  H   H22       1.0  0.8385246164788781  0.9241943952279568  0.5415571141968271  1.0000
  H   H23       1.0  0.6614780397534118  0.42419354052330493  0.041556456699119296  1.0000
  H   H24       1.0  0.1614789729384185  0.07580518799569089  0.4584452773718652  1.0000
  H   H25       1.0  0.30785898123673405  0.2369617392584971  0.0698602401627042  1.0000
  H   H26       1.0  0.8078578581468959  0.26303635676287473  0.430139407792133  1.0000
  H   H27       1.0  0.6921431499497783  0.7630368889201407  0.9301393980418453  1.0000
  H   H28       1.0  0.19214135659779427  0.7369632153764272  0.5698597940984627  1.0000
  C   C1        1.0  0.3691815047054945  0.08952008393092828  0.1774112200925089  1.0000
  C   C2        1.0  0.8691775903773757  0.4104800362113181  0.32258814366953453  1.0000
  C   C3        1.0  0.6308206264834552  0.9104794900581652  0.8225885134121143  1.0000
  C   C4        1.0  0.13082162437495978  0.5895214312420831  0.677412312046556  1.0000
  C   C5        1.0  0.1338251471680252  0.8278764329676918  0.8675699822247226  1.0000
  C   C6        1.0  0.6338439328912813  0.6721254425916072  0.6324314729389044  1.0000
  C   C7        1.0  0.8661726093604329  0.17212408867365528  0.13243037819061948  1.0000
  C   C8        1.0  0.36615236541364027  0.3278731911204176  0.3675697601009773  1.0000
  C   C9        1.0  0.2374031671186216  0.9258432046938121  0.9927389598029349  1.0000
  C   C10       1.0  0.737401893316516  0.5741551071411736  0.5072600836750922  1.0000
  C   C11       1.0  0.7625960476250168  0.07415542348162768  0.007260678400264499  1.0000
  C   C12       1.0  0.26259294676557937  0.42584352472265863  0.4927406177514371  1.0000
  C   C13       1.0  0.19097033519793166  0.9415400745678751  0.9228059523879394  1.0000
  C   C14       1.0  0.6909751841654952  0.5584600271664896  0.5771932386687196  1.0000
  C   C15       1.0  0.8090288795467657  0.05845949757143389  0.0771932495026491  1.0000
  C   C16       1.0  0.3090211141394263  0.441538606545535  0.4228079943711619  1.0000
  C   C17       1.0  0.2300300102243611  0.16565152351255819  0.9590614811502646  1.0000
  C   C18       1.0  0.7300315742001258  0.33434722065122463  0.5409374576791279  1.0000
  C   C19       1.0  0.7699692045231001  0.8343480523199317  0.0409387839656787  1.0000
  C   C20       1.0  0.2699661823206937  0.6656514056760229  0.45906164891071194  1.0000
  C   C21       1.0  0.1885403146251292  0.062241380010341615  0.905116403182916  1.0000
  C   C22       1.0  0.688544095404211  0.4377591667248878  0.5948832194162534  1.0000
  C   C23       1.0  0.8114574419033287  0.9377591416310053  0.094883957232426  1.0000
  C   C24       1.0  0.3114551193408133  0.5622394632971393  0.40511695039961637  1.0000
  C   C25       1.0  0.2796476891105897  0.0309054222895142  0.0455225113433713  1.0000
  C   C26       1.0  0.7796418135681833  0.46909449984713786  0.4544762378436572  1.0000
  C   C27       1.0  0.7203573585184699  0.9690941480095886  0.954476158937247  1.0000
  C   C28       1.0  0.22035594296027475  0.5309060217942089  0.5455241225716847  1.0000
  C   C29       1.0  0.3585180013066561  0.8991669507811012  0.1980272172024655  1.0000
  C   C30       1.0  0.8585154625549406  0.6008326975210068  0.3019722344975122  1.0000
  C   C31       1.0  0.6414841298784779  0.10083167555094258  0.8019718893893992  1.0000
  C   C32       1.0  0.14148666864164736  0.3991687717821791  0.698028752832613  1.0000
  C   C33       1.0  0.09310031312599419  0.3290195066543616  0.8950065121797408  1.0000
  C   C34       1.0  0.5931043690825675  0.17097988332758968  0.6049923950727417  1.0000
  C   C35       1.0  0.906897443399707  0.6709810112937972  0.10499278501024628  1.0000
  C   C36       1.0  0.4068933874420749  0.8290196906567071  0.39500733842984903  1.0000
  C   C37       1.0  0.27289804536039947  0.48265584828909885  0.9457684208229934  1.0000
  C   C38       1.0  0.7729025848721489  0.017345825380964196  0.5542303120165499  1.0000
  C   C39       1.0  0.7271011693853495  0.517344667814072  0.054230344754984096  1.0000
  C   C40       1.0  0.22710100454725787  0.982655645770414  0.4457712069269276  1.0000
  C   C41       1.0  0.2779213961558398  0.15286342987540993  0.029641164795854998  1.0000
  C   C42       1.0  0.7779179546055487  0.3471364903284169  0.470358114405407  1.0000
  C   C43       1.0  0.7220807350341686  0.8471370880775451  0.9703581323961571  1.0000
  C   C44       1.0  0.22207980192153087  0.6528640294663361  0.5296417143972575  1.0000
  N   N1        1.0  0.1261395231758797  0.4516390562094372  0.8961778239470847  1.0000
  N   N2        1.0  0.6261430052039925  0.04835946034601331  0.603821018618973  1.0000
  N   N3        1.0  0.8738611497888656  0.5483605140848694  0.1038208463315016  1.0000
  N   N4        1.0  0.3738576677638504  0.9516391715242137  0.39617968281025634  1.0000
  N   N5        1.0  0.3956044556375958  0.021825375919533496  0.22958555842280498  1.0000
  N   N6        1.0  0.8956049589709352  0.4781757479272242  0.2704139251246858  1.0000
  N   N7        1.0  0.6043933008870468  0.9781741980647639  0.7704141750797859  1.0000
  N   N8        1.0  0.1043957140028411  0.5218257195277758  0.7295865305920799  1.0000
  N   N9        1.0  0.31952726165268064  0.008871417306110598  0.11639319663760261  1.0000
  N   N10       1.0  0.8195196624932564  0.49112764638910983  0.3836054942006939  1.0000
  N   N11       1.0  0.6804777859763789  0.9911281529929922  0.8836054736430085  1.0000
  N   N12       1.0  0.18047955225907936  0.5088738210642916  0.6163949615154038  1.0000
  N   N13       1.0  0.21602257658445007  0.2888502580389343  0.9421694875140645  1.0000
  N   N14       1.0  0.716026574046175  0.21114845728565967  0.5578299699499496  1.0000
  N   N15       1.0  0.7839766381602471  0.7111493141003747  0.057829714376531186  1.0000
  N   N16       1.0  0.28397118247603  0.788850170888189  0.4421696682525749  1.0000
  N   N17       1.0  0.3308009550326857  0.3861029238021627  0.975256374119965  1.0000
  N   N18       1.0  0.8308043305826088  0.1138988804174872  0.5247434755968428  1.0000
  N   N19       1.0  0.669198259715827  0.6138975959941889  0.0247434546833745  1.0000
  N   N20       1.0  0.16919634238767145  0.8861006972631885  0.47525732113246016  1.0000
  N   N21       1.0  0.3111839277727455  0.8872110302929813  0.129353658954841  1.0000
  N   N22       1.0  0.8111774257628708  0.6127875666449824  0.3706451219711155  1.0000
  N   N23       1.0  0.688819661633822  0.11278759604065408  0.8706454476377059  1.0000
  N   N24       1.0  0.1888247054337242  0.3872139026582032  0.6293558653590097  1.0000
  N   N25       1.0  0.6505260165496407  0.48575606656829234  0.8106394197115421  1.0000
  N   N26       1.0  0.15052818600042167  0.014244395034239696  0.689359636050412  1.0000
  N   N27       1.0  0.34947611463792316  0.514243505574207  0.1893597821803965  1.0000
  N   N28       1.0  0.8494695705356746  0.9857580219212068  0.3106419781904393  1.0000
  O   O1        1.0  0.7591923979392945  0.3933500688333567  0.7851440114685743  1.0000
  O   O2        1.0  0.2591951275094715  0.10665251877131245  0.714854272357968  1.0000
  O   O3        1.0  0.240809733250714  0.6066504491195984  0.2148552857234448  1.0000
  O   O4        1.0  0.7408055454639706  0.8933498908009626  0.28514521543351634  1.0000
  O   O5        1.0  0.7347342541249302  0.591273850418581  0.841482661995606  1.0000
  O   O6        1.0  0.23473809052837413  0.9087272985459122  0.6585182597500462  1.0000
  O   O7        1.0  0.2652664188464087  0.4087266712259634  0.1585176984210861  1.0000
  O   O8        1.0  0.765258207788726  0.0912760642183912  0.3414834497902035  1.0000
  O   O9        1.0  0.09005357852299062  0.8394100154514844  0.8048870309029679  1.0000
  O   O10       1.0  0.5900945091491748  0.6605936632415847  0.6951167007633501  1.0000
  O   O11       1.0  0.909948552665959  0.1605895585376089  0.195112702601655  1.0000
  O   O12       1.0  0.40990324737717987  0.3394049704720317  0.30488453227720663  1.0000
  O   O13       1.0  0.47071562888336144  0.4806325113719723  0.8079734850232256  1.0000
  O   O14       1.0  0.9707194339479553  0.019367705915350093  0.692025772124957  1.0000
  O   O15       1.0  0.5292865023042025  0.5193670607705271  0.19202571686871286  1.0000
  O   O16       1.0  0.029279780818931993  0.9806356660851134  0.3079785954800371  1.0000
  O   O17       1.0  0.1304681463965238  0.7233809685556877  0.893391106635377  1.0000
  O   O18       1.0  0.630472699946786  0.7766199464364406  0.6066081236603011  1.0000
  O   O19       1.0  0.8695281519118863  0.2766195549306545  0.1066097853919743  1.0000
  O   O20       1.0  0.3695250565833844  0.2233796349342256  0.3933937362930138  1.0000
