data_image0
_chemical_formula_structural       Zn2H42C46N4O8
_chemical_formula_sum              "Zn2 H42 C46 N4 O8"
_cell_length_a       9.591700053885576
_cell_length_b       10.727889386088345
_cell_length_c       11.06855657449957
_cell_angle_alpha    96.97919960030859
_cell_angle_beta     104.50452818431289
_cell_angle_gamma    115.82561630619176

_space_group_name_H-M_alt    "P 1"
_space_group_IT_number       1

loop_
  _space_group_symop_operation_xyz
  'x, y, z'

loop_
  _atom_site_type_symbol
  _atom_site_label
  _atom_site_symmetry_multiplicity
  _atom_site_fract_x
  _atom_site_fract_y
  _atom_site_fract_z
  _atom_site_occupancy
  Zn  Zn1       1.0  0.4697970209424724  0.4517327371654148  0.11959898881566737  1.0000
  Zn  Zn2       1.0  0.5301972460416237  0.5482646407336772  0.8804014407902159  1.0000
  H   H1        1.0  0.021095544027680484  0.21121511277234362  0.1367685266055432  1.0000
  H   H2        1.0  0.9789063462554279  0.7887843763429885  0.8632292644737518  1.0000
  H   H3        1.0  0.9292999089673158  0.3081587805127981  0.19050840596410265  1.0000
  H   H4        1.0  0.0707053251068359  0.691842847578883  0.8094894453586648  1.0000
  H   H5        1.0  0.9861771611943977  0.20552241509585656  0.2869145021689903  1.0000
  H   H6        1.0  0.013825921097392677  0.7944792165689877  0.7130828878225444  1.0000
  H   H7        1.0  0.22492971327805822  0.47263792880960404  0.22258263041355514  1.0000
  H   H8        1.0  0.7750764685413998  0.5273615428525249  0.7774142726119422  1.0000
  H   H9        1.0  0.19314219253639928  0.4754159866941452  0.37321529463233105  1.0000
  H   H10       1.0  0.8068613666351396  0.5245845693326457  0.6267820738896289  1.0000
  H   H11       1.0  0.718654165404395  0.3531375440724744  0.262812604984326  1.0000
  H   H12       1.0  0.2813488248266581  0.646861963870066  0.7371890381931224  1.0000
  H   H13       1.0  0.8387200545242948  0.24103830399963747  0.4137583489748238  1.0000
  H   H14       1.0  0.16128521563500434  0.7589633550127175  0.5862449344967543  1.0000
  H   H15       1.0  0.7226939355391053  0.1561685270355042  0.5825523474640518  1.0000
  H   H16       1.0  0.2773107416229408  0.8438320632788179  0.41745158923046694  1.0000
  H   H17       1.0  0.4878633905989673  0.18550229656843695  0.6106412002111767  1.0000
  H   H18       1.0  0.5121397217637736  0.8144993608636286  0.38936071657102633  1.0000
  H   H19       1.0  0.19466668964156497  0.3627660820753889  0.5192622571422589  1.0000
  H   H20       1.0  0.805338678592662  0.6372377058127157  0.4807376785015336  1.0000
  H   H21       1.0  0.33943472265384145  0.3323873689759723  0.6260738384040181  1.0000
  H   H22       1.0  0.6605683836947094  0.6676142833026476  0.37392717302005  1.0000
  H   H23       1.0  0.15074029074001769  0.0398710744412867  0.34341054411312644  1.0000
  H   H24       1.0  0.8492595698924105  0.9601305677367404  0.6565870592396904  1.0000
  H   H25       1.0  0.0630087658572478  0.20451983190407935  0.6745444878605156  1.0000
  H   H26       1.0  0.9369921586379847  0.7954817981804754  0.3254515354416511  1.0000
  H   H27       1.0  0.35643796598148475  0.0634147513270378  0.731425671268795  1.0000
  H   H28       1.0  0.6435626278224619  0.936590124498878  0.2685742685402275  1.0000
  H   H29       1.0  0.3626268570574709  0.0217286074453753  0.8825890883967134  1.0000
  H   H30       1.0  0.6373685782599096  0.9782612291001627  0.11740801351655242  1.0000
  H   H31       1.0  0.5282983990060117  0.9033629271824495  0.8814312145453725  1.0000
  H   H32       1.0  0.471702910308224  0.0966355035417479  0.1185690404731403  1.0000
  H   H33       1.0  0.7979491840748453  0.9216785764388647  0.9035704771980021  1.0000
  H   H34       1.0  0.2020539042311356  0.0783230603794252  0.0964278181516676  1.0000
  H   H35       1.0  0.027070693617460475  0.14483166924690488  0.8910390629661292  1.0000
  H   H36       1.0  0.9729282132554785  0.8551721242072361  0.10895858332581541  1.0000
  H   H37       1.0  0.7092527461912609  0.33336231815538053  0.8383979507407276  1.0000
  H   H38       1.0  0.29074057304753603  0.6666372161732639  0.16160342716242576  1.0000
  H   H39       1.0  0.9843634836540076  0.3881280863030484  0.7439160734107587  1.0000
  H   H40       1.0  0.015628869796912994  0.6118735889948184  0.2560835367152591  1.0000
  H   H41       1.0  0.0010389424276339473  0.482434850339672  0.8927513237901153  1.0000
  H   H42       1.0  0.9989592673589414  0.5175657403872406  0.10724941819442782  1.0000
  C   C1        1.0  0.02261408516086047  0.2749230805289713  0.22286293377406  1.0000
  C   C2        1.0  0.9773894740106713  0.7250774754978195  0.7771344347479071  1.0000
  C   C3        1.0  0.19329713441911875  0.4074675098393996  0.2902570858354778  1.0000
  C   C4        1.0  0.8067064307666101  0.5925330513408369  0.7097411880446244  1.0000
  C   C5        1.0  0.325191407032392  0.3688187198419044  0.334847993453316  1.0000
  C   C6        1.0  0.6748111003047228  0.6311818585852438  0.6651527658355718  1.0000
  C   C7        1.0  0.5338159466939132  0.3280879760523447  0.3508214725470822  1.0000
  C   C8        1.0  0.46618896270313576  0.6719169029341431  0.6491812006406761  1.0000
  C   C9        1.0  0.6688225059163102  0.3155325030497238  0.3374213319049844  1.0000
  C   C10       1.0  0.33118214718897576  0.6844680666508225  0.662578983357001  1.0000
  C   C11       1.0  0.7347464551752837  0.25384773313896863  0.4226032200370184  1.0000
  C   C12       1.0  0.26525773307863426  0.7461539225065223  0.5773989274108047  1.0000
  C   C13       1.0  0.6692586168297793  0.20564362347098347  0.5189253550403734  1.0000
  C   C14       1.0  0.3307456995700235  0.7943601868174711  0.48107797137033964  1.0000
  C   C15       1.0  0.536853497375368  0.2198632968160083  0.5348307215077952  1.0000
  C   C16       1.0  0.4631500978813037  0.7801372901314496  0.4651720791629756  1.0000
  C   C17       1.0  0.47174862360649433  0.2821528225899855  0.4496891116568378  1.0000
  C   C18       1.0  0.5282567686844928  0.7178509859118948  0.5503144454194953  1.0000
  C   C19       1.0  0.2501845550741635  0.29234419142338913  0.5273320492376286  1.0000
  C   C20       1.0  0.7498191442716333  0.7076585295532639  0.4726683089634918  1.0000
  C   C21       1.0  0.1209635643345024  0.1398933231992316  0.5099486500822437  1.0000
  C   C22       1.0  0.8790340223838768  0.860106173062427  0.4900482183345715  1.0000
  C   C23       1.0  0.0851088237146271  0.0235177587022619  0.4124607908511281  1.0000
  C   C24       1.0  0.9148919966914875  0.9764817373531047  0.5875376749206822  1.0000
  C   C25       1.0  0.03482645283806819  0.11467811523050392  0.5973735119222354  1.0000
  C   C26       1.0  0.9651661212008305  0.885318175143361  0.40262371880843517  1.0000
  C   C27       1.0  0.4395105204424254  0.2442419672328882  0.8896364485650067  1.0000
  C   C28       1.0  0.5604813925952499  0.7557511513344224  0.11036931000706567  1.0000
  C   C29       1.0  0.4283281478921809  0.1016373060213169  0.8356993088231092  1.0000
  C   C30       1.0  0.5716650311723511  0.8983600633574653  0.16429907940088373  1.0000
  C   C31       1.0  0.5979377420811218  0.1165439397582873  0.8553149236244337  1.0000
  C   C32       1.0  0.4020598747082076  0.8834555822705994  0.14468647158305709  1.0000
  C   C33       1.0  0.6257581632104633  0.0017194435197537992  0.8750024689386464  1.0000
  C   C34       1.0  0.37424159333285417  0.9982800646290781  0.124997576883814  1.0000
  C   C35       1.0  0.7791767695287033  0.012321664443483402  0.8871328850821598  1.0000
  C   C36       1.0  0.22082297498622705  0.9876778333984578  0.11286535002403043  1.0000
  C   C37       1.0  0.9072531310396456  0.13738352604836732  0.8801369191716047  1.0000
  C   C38       1.0  0.09274399082737254  0.8626170561582358  0.1198617814310481  1.0000
  C   C39       1.0  0.8825150060828336  0.2543140456009496  0.8626948453949481  1.0000
  C   C40       1.0  0.11748103989299354  0.7456865383922279  0.13730362454209197  1.0000
  C   C41       1.0  0.7284168231352196  0.24235421254535788  0.8515552181814313  1.0000
  C   C42       1.0  0.2715780308319253  0.7576442288983218  0.148443652843369  1.0000
  C   C43       1.0  0.010567207187143825  0.39054417255324125  0.8471293989713402  1.0000
  C   C44       1.0  0.9894332584709175  0.6094585486297106  0.15286936187479222  1.0000
  C   C45       1.0  0.1894991806434518  0.4275033253945039  0.9050067031559051  1.0000
  C   C46       1.0  0.8105007780639112  0.5725004456592658  0.09498755236911896  1.0000
  N   N1        1.0  0.4390522596710298  0.3808217796073592  0.28038241762665445  1.0000
  N   N2        1.0  0.5609502416518949  0.6191787936663431  0.7196174363040982  1.0000
  N   N3        1.0  0.3415219205686668  0.3107287833193412  0.437803858225692  1.0000
  N   N4        1.0  0.65848345367975  0.689275009722209  0.5621969827762355  1.0000
  O   O1        1.0  0.42771000509210916  0.26617512272621724  0.0011067026347788855  1.0000
  O   O2        1.0  0.5722917612114172  0.7338201704789569  0.9989086483976876  1.0000
  O   O3        1.0  0.46622395741051287  0.3331211397670515  0.820289623584479  1.0000
  O   O4        1.0  0.5337646539354494  0.6668698758980299  0.17972241225105984  1.0000
  O   O5        1.0  0.23655735108859938  0.4135461945372896  0.018175940909046055  1.0000
  O   O6        1.0  0.7634348385126585  0.5864436319076559  0.9818177529329617  1.0000
  O   O7        1.0  0.27875879090353806  0.47337876302960064  0.835749434203855  1.0000
  O   O8        1.0  0.7212332821988595  0.5266185823685348  0.16424419656384964  1.0000
