data_image0
_chemical_formula_structural       Li2H16C4I2N4
_chemical_formula_sum              "Li2 H16 C4 I2 N4"
_cell_length_a       4.899585618699708
_cell_length_b       5.958405980443963
_cell_length_c       10.243118263071963
_cell_angle_alpha    89.99986365241286
_cell_angle_beta     90.00042807632255
_cell_angle_gamma    102.62054725035851

_space_group_name_H-M_alt    "P 1"
_space_group_IT_number       1

loop_
  _space_group_symop_operation_xyz
  'x, y, z'

loop_
  _atom_site_type_symbol
  _atom_site_label
  _atom_site_symmetry_multiplicity
  _atom_site_fract_x
  _atom_site_fract_y
  _atom_site_fract_z
  _atom_site_occupancy
  Li  Li1       1.0  0.6444824121188049  0.10317265412615481  0.7499992578256567  1.0000
  Li  Li2       1.0  0.35551720399886466  0.8968278718530909  0.2500010391531688  1.0000
  H   H1        1.0  0.784476688022707  0.24147719677691987  0.5104600528223315  1.0000
  H   H2        1.0  0.2155262887051919  0.7585271591379482  0.0104595702867698  1.0000
  H   H3        1.0  0.2155213160429739  0.7585250295634013  0.4895412204176495  1.0000
  H   H4        1.0  0.7844741953061459  0.24147680633460306  0.9895397504260401  1.0000
  H   H5        1.0  0.864334418164475  0.44434065091423486  0.6214038111605831  1.0000
  H   H6        1.0  0.13567142501989338  0.5556601309911996  0.121404297634335  1.0000
  H   H7        1.0  0.1356651979532018  0.555659875065011  0.3785964858182496  1.0000
  H   H8        1.0  0.8643306710582906  0.4443421341189263  0.8785959993477376  1.0000
  H   H9        1.0  0.3024815200430524  0.2620257950423621  0.5139551813295853  1.0000
  H   H10       1.0  0.6975206419859034  0.7379751165302436  0.013956453212990999  1.0000
  H   H11       1.0  0.6975156160992455  0.737972991807368  0.4860431631155819  1.0000
  H   H12       1.0  0.3024814540997056  0.2620271485792074  0.9860448200342873  1.0000
  H   H13       1.0  0.38029699927952276  0.4712503357660509  0.6389386016228755  1.0000
  H   H14       1.0  0.6197091107550249  0.5287504218146494  0.138939882304058  1.0000
  H   H15       1.0  0.6197046628332571  0.5287502095991102  0.361059742829184  1.0000
  H   H16       1.0  0.3802925513874627  0.4712501235478043  0.8610623672088379  1.0000
  C   C1        1.0  0.4660510423023823  0.40451317065598147  0.551267256392606  1.0000
  C   C2        1.0  0.5339532996049812  0.5954859887953176  0.0512691145267254  1.0000
  C   C3        1.0  0.5339485738078621  0.5954873553239466  0.44873206432100693  1.0000
  C   C4        1.0  0.46604792857210947  0.4045128368221854  0.9487311824561573  1.0000
  I   I1        1.0  0.08122881053937182  0.8636201490220895  0.7500006555966365  1.0000
  I   I2        1.0  0.9187687595757553  0.136380357571916  0.2500006176437566  1.0000
  N   N1        1.0  0.7077030253495166  0.31029130266060884  0.5908348065285836  1.0000
  N   N2        1.0  0.29230235263912613  0.6897095216497603  0.0908356697671593  1.0000
  N   N3        1.0  0.29229572285963457  0.6897057838266889  0.4091645141858464  1.0000
  N   N4        1.0  0.7077013555059041  0.3102910430979406  0.9091656034841761  1.0000
