data_image0
_chemical_formula_structural       Li3H39C42N18
_chemical_formula_sum              "Li3 H39 C42 N18"
_cell_length_a       8.95219241155201
_cell_length_b       8.95216907902104
_cell_length_c       15.29785349237763
_cell_angle_alpha    89.9985165421337
_cell_angle_beta     90.00109005900667
_cell_angle_gamma    119.99988886618128

_space_group_name_H-M_alt    "P 1"
_space_group_IT_number       1

loop_
  _space_group_symop_operation_xyz
  'x, y, z'

loop_
  _atom_site_type_symbol
  _atom_site_label
  _atom_site_symmetry_multiplicity
  _atom_site_fract_x
  _atom_site_fract_y
  _atom_site_fract_z
  _atom_site_occupancy
  Li  Li1       1.0  0.4418940043620692  0.8929335499209258  0.1227933192622359  1.0000
  Li  Li2       1.0  0.10707309269775334  0.5489589437576613  0.7894594849724115  1.0000
  Li  Li3       1.0  0.45103745889812064  0.5581065227300498  0.4561250222896547  1.0000
  H   H1        1.0  0.5895369663120889  0.3937863847478624  0.8768265819439236  1.0000
  H   H2        1.0  0.6062139265266994  0.1957650961897243  0.5435010177360695  1.0000
  H   H3        1.0  0.804243242824299  0.4104630658181137  0.21016484035353494  1.0000
  H   H4        1.0  0.5341006366030784  0.2135540812234283  0.010528322912208  1.0000
  H   H5        1.0  0.7864476423301028  0.32056544160355566  0.6771976107113815  1.0000
  H   H6        1.0  0.6794580881771708  0.46590323740002754  0.3438667976828285  1.0000
  H   H7        1.0  0.5172014791626934  0.2618696433642924  0.730003311473979  1.0000
  H   H8        1.0  0.7381299965491974  0.2553410137181444  0.3966767806254268  1.0000
  H   H9        1.0  0.7446471174645382  0.4827776942855309  0.0633381335449101  1.0000
  H   H10       1.0  0.19197494288169284  0.31468883000991354  0.28100543005318457  1.0000
  H   H11       1.0  0.6853258292965166  0.8772745746721  0.9476824154518653  1.0000
  H   H12       1.0  0.12269709546637843  0.8080322520033718  0.6143480762933109  1.0000
  H   H13       1.0  0.0208931080350609  0.1480628593565498  0.3427346610370848  1.0000
  H   H14       1.0  0.8519555479086377  0.8728279433520851  0.009407296902331599  1.0000
  H   H15       1.0  0.12715659771764365  0.9791137489218755  0.6760711517739251  1.0000
  H   H16       1.0  0.39235138672465536  0.9443573325458983  0.7100220982167968  1.0000
  H   H17       1.0  0.05564000735887488  0.4479916851359961  0.37668702057361964  1.0000
  H   H18       1.0  0.5519740052468978  0.6076182319779023  0.0433529203719871  1.0000
  H   H19       1.0  0.8074943606671354  0.23825839438254806  0.031481616544049  1.0000
  H   H20       1.0  0.7617383296984527  0.5692314484188116  0.6981593160176943  1.0000
  H   H21       1.0  0.43077085333918325  0.19251042669827004  0.3648246719180435  1.0000
  H   H22       1.0  0.11814727072463421  0.37321073207949945  0.12268628645351497  1.0000
  H   H23       1.0  0.626777654705329  0.744917064933695  0.7893732999137839  1.0000
  H   H24       1.0  0.2550694486628373  0.8818545955290631  0.45603323292090886  1.0000
  H   H25       1.0  0.714729979141275  0.9818211058068941  0.273325741118299  1.0000
  H   H26       1.0  0.018218151518254837  0.7329135169230626  0.9399904814409369  1.0000
  H   H27       1.0  0.2670876494712147  0.28528147883879734  0.6066576402811563  1.0000
  H   H28       1.0  0.37883504437409954  0.23499388101629393  0.18934323305070677  1.0000
  H   H29       1.0  0.765007412479754  0.14381938456521232  0.856008229218517  1.0000
  H   H30       1.0  0.8561611395399709  0.6211813841949123  0.5226792737446928  1.0000
  H   H31       1.0  0.903610804829313  0.8221365744278375  0.2821004738475565  1.0000
  H   H32       1.0  0.17787938215265342  0.0814735140586862  0.9487694281821177  1.0000
  H   H33       1.0  0.9185217256145464  0.09641542179468124  0.6154155577360569  1.0000
  H   H34       1.0  0.08640237552571514  0.6919757702769117  0.19552463464007988  1.0000
  H   H35       1.0  0.3080227956655648  0.3944228873457972  0.8621876626649224  1.0000
  H   H36       1.0  0.605574226254397  0.9136141230693224  0.528836660216875  1.0000
  H   H37       1.0  0.276229047658596  0.5767576823789468  0.9768832424573687  1.0000
  H   H38       1.0  0.4232456563828394  0.6994731675166223  0.6435409406678616  1.0000
  H   H39       1.0  0.3005400533732543  0.7237781644683708  0.3102116101635559  1.0000
  C   C1        1.0  0.5347033920843459  0.2548684628756207  0.8707853043374598  1.0000
  C   C2        1.0  0.745132175392321  0.279846813488632  0.5374545544015206  1.0000
  C   C3        1.0  0.7201560821014114  0.4652907991912444  0.2041186647033228  1.0000
  C   C4        1.0  0.5059520374604033  0.15541557057707672  0.9455571715776117  1.0000
  C   C5        1.0  0.8445879960212679  0.3505538777231366  0.6122265006442402  1.0000
  C   C6        1.0  0.6494572910679891  0.49404171980517486  0.2788952110612684  1.0000
  C   C7        1.0  0.3918028770468001  0.8994135676557352  0.849825055524768  1.0000
  C   C8        1.0  0.10059792174676833  0.49239791044192327  0.5164902083942877  1.0000
  C   C9        1.0  0.5075909146860198  0.6081803792184106  0.1831579039461531  1.0000
  C   C10       1.0  0.4938314799017717  0.17930279995793094  0.78677778465768  1.0000
  C   C11       1.0  0.8206982588429454  0.31453835961949034  0.45345077016180824  1.0000
  C   C12       1.0  0.6854514495105306  0.5061492967330637  0.12011291267767629  1.0000
  C   C13       1.0  0.07787594874272229  0.18546875258913786  0.27733270898175283  1.0000
  C   C14       1.0  0.8145527415122444  0.8923985854963092  0.9440040726701254  1.0000
  C   C15       1.0  0.10758302399416654  0.922134708449839  0.6106681808252646  1.0000
  C   C16       1.0  0.43556709712748876  0.9770086077574972  0.9347013252700548  1.0000
  C   C17       1.0  0.022991607659768855  0.4585669933759958  0.6013672999005308  1.0000
  C   C18       1.0  0.5414347245801919  0.5644204833036426  0.26803765197025337  1.0000
  C   C19       1.0  0.42268837077214266  0.0019570130197124336  0.775082972840316  1.0000
  C   C20       1.0  0.9980420133175867  0.42073169851093417  0.44174538943038033  1.0000
  C   C21       1.0  0.5792443774159608  0.5772884773366725  0.10841275606137658  1.0000
  C   C22       1.0  0.8334949270601939  0.20346131244725285  0.0952478334432314  1.0000
  C   C23       1.0  0.7965363481973783  0.6300249381119656  0.7619202823838549  1.0000
  C   C24       1.0  0.3699726480487087  0.16650692240425974  0.4285890317816694  1.0000
  C   C25       1.0  0.9883073052970771  0.27216207769137646  0.1386738751933692  1.0000
  C   C26       1.0  0.727838437992567  0.7161329949458236  0.8053567147318786  1.0000
  C   C27       1.0  0.28386032525602894  0.011703359786444939  0.4720193468480858  1.0000
  C   C28       1.0  0.7781082940064579  0.06941343101560439  0.21902603606981327  1.0000
  C   C29       1.0  0.9306078646559613  0.7086929246184966  0.8856953143005556  1.0000
  C   C30       1.0  0.2913028748943702  0.22190532145528863  0.5523617484566685  1.0000
  C   C31       1.0  0.2765524513071185  0.10345429105744593  0.2014885007481624  1.0000
  C   C32       1.0  0.8965439668760452  0.1730831936119229  0.8681516198044789  1.0000
  C   C33       1.0  0.8269053227265176  0.7234608264632597  0.5348186018938748  1.0000
  C   C34       1.0  0.028816405434589982  0.8868375687144125  0.2506305702144545  1.0000
  C   C35       1.0  0.11317430262175783  0.14197026667656593  0.91729818184713  1.0000
  C   C36       1.0  0.8580097070912911  0.9711952817013056  0.58395516586463  1.0000
  C   C37       1.0  0.1207061534437203  0.8247417372052653  0.2072346137148813  1.0000
  C   C38       1.0  0.17526460631521706  0.2959640119807646  0.873895194046419  1.0000
  C   C39       1.0  0.7040340402804971  0.879301215790292  0.540559373939729  1.0000
  C   C40       1.0  0.32540249284901535  0.7033852339509181  0.9470986403862938  1.0000
  C   C41       1.0  0.2966184509719981  0.6220235449854742  0.61376148097726  1.0000
  C   C42       1.0  0.37797802878377956  0.6745880274028195  0.2804298038441928  1.0000
  N   N1        1.0  0.9511418122372675  0.18669067495408595  0.2182475706355262  1.0000
  N   N2        1.0  0.8133216521431593  0.7644393881861049  0.8849228894422511  1.0000
  N   N3        1.0  0.23554472824854858  0.04886567316287229  0.5515848612543408  1.0000
  N   N4        1.0  0.2755039025049798  0.9605925330585451  0.177585189096412  1.0000
  N   N5        1.0  0.0394061091299847  0.314897757617878  0.8442463442674821  1.0000
  N   N6        1.0  0.6850828296021163  0.7245095719384979  0.5109105289915306  1.0000
  N   N7        1.0  0.12969176768830692  0.0646150307499767  0.24686754654722878  1.0000
  N   N8        1.0  0.9353952474913785  0.06506137446807277  0.9135348377140529  1.0000
  N   N9        1.0  0.9349188462256989  0.8703251213475268  0.5801983139992757  1.0000
  N   N10       1.0  0.7030090424745907  0.07706661916272851  0.1458133280829657  1.0000
  N   N11       1.0  0.9229462470104721  0.6259416349363036  0.8124849734471127  1.0000
  N   N12       1.0  0.3740627425086132  0.297000304209142  0.47915006215578865  1.0000
  N   N13       1.0  0.3934989915197066  0.8484450052554421  0.9958903874159475  1.0000
  N   N14       1.0  0.15155670275078853  0.5450633900123805  0.6625524151308042  1.0000
  N   N15       1.0  0.45494488993929844  0.6064940151232037  0.329221252914337  1.0000
  N   N16       1.0  0.3196762972003242  0.7227605724300901  0.8595528463112032  1.0000
  N   N17       1.0  0.277238919342807  0.596916681316074  0.5262146403029462  1.0000
  N   N18       1.0  0.4030712864448276  0.6803060665327579  0.19288232363474825  1.0000
