data_image0
_chemical_formula_structural       Zn2H34C46N2Cl4O10
_chemical_formula_sum              "Zn2 H34 C46 N2 Cl4 O10"
_cell_length_a       13.968397788604314
_cell_length_b       15.32226237169994
_cell_length_c       17.142500788367105
_cell_angle_alpha    90.66408664837554
_cell_angle_beta     79.5310337831173
_cell_angle_gamma    87.8855452154509

_space_group_name_H-M_alt    "P 1"
_space_group_IT_number       1

loop_
  _space_group_symop_operation_xyz
  'x, y, z'

loop_
  _atom_site_type_symbol
  _atom_site_label
  _atom_site_symmetry_multiplicity
  _atom_site_fract_x
  _atom_site_fract_y
  _atom_site_fract_z
  _atom_site_occupancy
  Zn  Zn1       1.0  0.6030537384426823  0.4987474432881029  0.5003848729617104  1.0000
  Zn  Zn2       1.0  0.39953651941458895  0.5023989683935568  0.5033271133873143  1.0000
  H   H1        1.0  0.3918249411284549  0.41435055411285043  0.28570851184561974  1.0000
  H   H2        1.0  0.6093638654443295  0.40229042891735395  0.9798615076847029  1.0000
  H   H3        1.0  0.6860533513783195  0.4525156146907393  0.08178113830548031  1.0000
  H   H4        1.0  0.3078306031244864  0.4606408217320564  0.9207068946157051  1.0000
  H   H5        1.0  0.6067083390187591  0.36505020453013504  0.8562265032926959  1.0000
  H   H6        1.0  0.3903622591059629  0.3699139011073599  0.14640665640314413  1.0000
  H   H7        1.0  0.6460951666526712  0.9315453688166786  0.5339114495009696  1.0000
  H   H8        1.0  0.36156789895832725  0.06953717659033738  0.5679150076521394  1.0000
  H   H9        1.0  0.6385185964160415  0.7692066077352705  0.5328648189352734  1.0000
  H   H10       1.0  0.366543279159785  0.23209932477080747  0.5615416471830343  1.0000
  H   H11       1.0  0.3625920766511824  0.9485663678836076  0.4680384279514271  1.0000
  H   H12       1.0  0.6054757368229318  0.40890059422333286  0.7175649044111906  1.0000
  H   H13       1.0  0.6520567198347393  0.0494954970785102  0.4293124303289986  1.0000
  H   H14       1.0  0.018353740991742  0.5237979886017  0.2754122296263333  1.0000
  H   H15       1.0  0.017431101513558596  0.44253862790279197  0.34891055913189467  1.0000
  H   H16       1.0  0.1945257178238435  0.4884011476537112  0.2241261145346201  1.0000
  H   H17       1.0  0.19693729580593103  0.41008816885270255  0.2988194835492024  1.0000
  H   H18       1.0  0.0759025110440703  0.32072850859029967  0.2430172724330788  1.0000
  H   H19       1.0  0.18022513597719578  0.33732748933605455  0.169604168795729  1.0000
  H   H20       1.0  0.07061192005888732  0.39931673796747463  0.1685219079208125  1.0000
  H   H21       1.0  0.9939783524116593  0.2308672413145416  0.45054472997777134  1.0000
  H   H22       1.0  0.879702728185194  0.27651628608747103  0.43525557919082297  1.0000
  H   H23       1.0  0.2747904833657842  0.5504440583206148  0.3855603298740604  1.0000
  H   H24       1.0  0.9149907366133119  0.20455090710228777  0.5941941147444183  1.0000
  H   H25       1.0  0.8003818929333021  0.2321466714093532  0.5689904870954763  1.0000
  H   H26       1.0  0.8295642319924781  0.1121340010434722  0.462452215126028  1.0000
  H   H27       1.0  0.8314071173109171  0.0697419342147896  0.5581077395535416  1.0000
  H   H28       1.0  0.9424645874092477  0.08333257032162321  0.49101615839200013  1.0000
  H   H29       1.0  0.7569492767081697  0.36347768255712515  0.5116474624590169  1.0000
  H   H30       1.0  0.22244639113242207  0.459277950634565  0.6157329639001786  1.0000
  H   H31       1.0  0.7527742882612359  0.630143975087343  0.4775826247447768  1.0000
  H   H32       1.0  0.04308059272965182  0.4498943349142266  0.6147034073751455  1.0000
  H   H33       1.0  0.9340481143119278  0.6362882740251551  0.4742328040703683  1.0000
  H   H34       1.0  0.38552741686239494  0.4071693263047537  0.022525942079084916  1.0000
  C   C1        1.0  0.4996498110219322  0.6690138002113244  0.5036111681178639  1.0000
  C   C2        1.0  0.5914503525036993  0.1796281210841357  0.4573960208464384  1.0000
  C   C3        1.0  0.42300010967105106  0.9100914555114343  0.4841349334319744  1.0000
  C   C4        1.0  0.589811243718664  0.08877745820373661  0.460412007630886  1.0000
  C   C5        1.0  0.5043903146289566  0.9517580487236899  0.5015980318865729  1.0000
  C   C6        1.0  0.506974554045982  0.0480936102943161  0.5001588951112836  1.0000
  C   C7        1.0  0.12247552663674809  0.5272289273200033  0.4299145721418043  1.0000
  C   C8        1.0  0.9003601579299529  0.41928144209072116  0.5034994461601555  1.0000
  C   C9        1.0  0.22094880742940148  0.5293322845341991  0.4353618094112832  1.0000
  C   C10       1.0  0.7998648495296053  0.42184558438570724  0.5043918768793888  1.0000
  C   C11       1.0  0.1909758878305041  0.47738179063792785  0.564146646640701  1.0000
  C   C12       1.0  0.510594629328466  0.33021357157310405  0.4969495790127638  1.0000
  C   C13       1.0  0.7976251997453049  0.5722674681779482  0.485152338966671  1.0000
  C   C14       1.0  0.0922224368637998  0.47289165155966373  0.5629149282610442  1.0000
  C   C15       1.0  0.897224848889266  0.574836359154901  0.48385805208351945  1.0000
  C   C16       1.0  0.5284896784355908  0.4850638864884829  0.3489144963390132  1.0000
  C   C17       1.0  0.4668179122359177  0.4833386306663244  0.6543261051923395  1.0000
  C   C18       1.0  0.05569081808138779  0.49877211878732214  0.4955215311390759  1.0000
  C   C19       1.0  0.9501294354035893  0.49816189439968633  0.49456162943089044  1.0000
  C   C20       1.0  0.5377999834460354  0.4580389529022499  0.26346521091304  1.0000
  C   C21       1.0  0.45762761389946144  0.4580775582782692  0.7396162140368148  1.0000
  C   C22       1.0  0.4558854507893883  0.4222326741115269  0.2398800813336095  1.0000
  C   C23       1.0  0.5827791215918836  0.900173127110172  0.5189764021726831  1.0000
  C   C24       1.0  0.5405324897444501  0.4192122071149811  0.7631532371539507  1.0000
  C   C25       1.0  0.4552342141126076  0.3979008294972245  0.1619628732815528  1.0000
  C   C26       1.0  0.5410230798214927  0.39547353138741675  0.8407575385359536  1.0000
  C   C27       1.0  0.5375415160952883  0.41067384900267706  0.10276632177463091  1.0000
  C   C28       1.0  0.45773557927432046  0.4120145644584953  0.8998147566986817  1.0000
  C   C29       1.0  0.6212458022055644  0.4423588069502173  0.12632395682366848  1.0000
  C   C30       1.0  0.37334332103030476  0.447263152169029  0.8763273264071074  1.0000
  C   C31       1.0  0.6217412840826738  0.4655983834168538  0.2051643935422689  1.0000
  C   C32       1.0  0.37300216960795035  0.46977771705172705  0.7977647740545635  1.0000
  C   C33       1.0  0.5376843991506559  0.40092850844803973  0.018150991511198814  1.0000
  C   C34       1.0  0.4260806890512114  0.10044382326214672  0.5363732342486075  1.0000
  C   C35       1.0  0.45738477991321247  0.4025355688659857  0.9842888997756988  1.0000
  C   C36       1.0  0.0637374564660576  0.4886511151644655  0.3118147312972397  1.0000
  C   C37       1.0  0.150323908441834  0.4405150019062489  0.26040131720424137  1.0000
  C   C38       1.0  0.11740828713180211  0.3707624567286559  0.2075011280705041  1.0000
  C   C39       1.0  0.9250830478604969  0.2630958156257108  0.48027189442207424  1.0000
  C   C40       1.0  0.8740963587786582  0.20512421128903213  0.5450125009299782  1.0000
  C   C41       1.0  0.8690095220878717  0.11234640247472072  0.5123525434170801  1.0000
  C   C42       1.0  0.5784664948961477  0.8097983685780293  0.5188247293212314  1.0000
  C   C43       1.0  0.42883356360291464  0.19090467089474572  0.533446300568734  1.0000
  C   C44       1.0  0.4972823007789414  0.7670129702785858  0.5016845485845352  1.0000
  C   C45       1.0  0.5116884091795271  0.23231030239935538  0.4948480614836299  1.0000
  C   C46       1.0  0.41926655409956487  0.8191399150256586  0.48380923630350026  1.0000
  N   N1        1.0  0.25376716456010223  0.5050441266509224  0.5010502073448606  1.0000
  N   N2        1.0  0.750615753446148  0.4971417461757142  0.4960602084564272  1.0000
  Cl  Cl1       1.0  0.2659327632932643  0.517771508770828  0.7774397282542935  1.0000
  Cl  Cl2       1.0  0.7275517690657195  0.5088296756927946  0.22588866198287152  1.0000
  Cl  Cl3       1.0  0.3173377764062196  0.775585096221505  0.45616830832025806  1.0000
  Cl  Cl4       1.0  0.6920527492339585  0.2255548337953073  0.40002536711931924  1.0000
  O   O1        1.0  0.5838829245400063  0.6308989048370536  0.48760071808248284  1.0000
  O   O2        1.0  0.9545630419027447  0.3452029948121266  0.509861634962931  1.0000
  O   O3        1.0  0.4342527494971976  0.3690867856902074  0.4821619182588535  1.0000
  O   O4        1.0  0.41937348074308306  0.6317681412109836  0.5219514210946554  1.0000
  O   O5        1.0  0.5844188509618392  0.3655187737216041  0.5156983848645069  1.0000
  O   O6        1.0  0.6022217374311579  0.4739840738244184  0.38183839260419467  1.0000
  O   O7        1.0  0.39330235592291973  0.47451565782900224  0.6210793557831167  1.0000
  O   O8        1.0  0.44447286308182044  0.5150845787850784  0.3824552092051334  1.0000
  O   O9        1.0  0.5497998473949154  0.5092914885297405  0.6214562594419561  1.0000
  O   O10       1.0  0.09382753169324327  0.5558564902386037  0.361892757293603  1.0000
