data_image0
_chemical_formula_structural       AlH24C30N3O6
_chemical_formula_sum              "Al1 H24 C30 N3 O6"
_cell_length_a       3.957981722507398
_cell_length_b       15.80834721881348
_cell_length_c       15.892594748358457
_cell_angle_alpha    59.866614051515306
_cell_angle_beta     87.60137186298786
_cell_angle_gamma    84.76106662632604

_space_group_name_H-M_alt    "P 1"
_space_group_IT_number       1

loop_
  _space_group_symop_operation_xyz
  'x, y, z'

loop_
  _atom_site_type_symbol
  _atom_site_label
  _atom_site_symmetry_multiplicity
  _atom_site_fract_x
  _atom_site_fract_y
  _atom_site_fract_z
  _atom_site_occupancy
  Al  Al1       1.0  0.9645098934679481  0.5021361674688406  0.5014415293713128  1.0000
  H   H1        1.0  0.5374472176355666  0.8567725372856786  0.5975832433042143  1.0000
  H   H2        1.0  0.29871873202220917  0.5974251044950661  0.8612342370881976  1.0000
  H   H3        1.0  0.34117024527099454  0.0484038502559017  0.6005437505571863  1.0000
  H   H4        1.0  0.7196624762111484  0.0427529558130786  0.8523819377988248  1.0000
  H   H5        1.0  0.6530286633023366  0.8524986080244474  0.04765865610075793  1.0000
  H   H6        1.0  0.34407303786071697  0.5988437662591867  0.050287567439127635  1.0000
  H   H7        1.0  0.48550299140855907  0.4279068820824535  0.7874455538527059  1.0000
  H   H8        1.0  0.056627793312991115  0.4642901271917523  0.7504873000753137  1.0000
  H   H9        1.0  0.19074432701451363  0.4522168947086558  0.8619663165743602  1.0000
  H   H10       1.0  0.32968147043772694  0.7868120431772284  0.43314107996011597  1.0000
  H   H11       1.0  0.7621081795170069  0.7435826731305398  0.4580901107404642  1.0000
  H   H12       1.0  0.616845403903028  0.8577666399503062  0.44949316238165665  1.0000
  H   H13       1.0  0.210446479338195  0.1956915416790963  0.45592762914153445  1.0000
  H   H14       1.0  0.5097601762410234  0.28345623086354993  0.427958327802891  1.0000
  H   H15       1.0  0.09653053059833644  0.30186840580941515  0.46603573850346447  1.0000
  H   H16       1.0  0.5334047689337494  0.2814279660244594  0.7872303226201967  1.0000
  H   H17       1.0  0.9347007598487379  0.2924791545205281  0.730762761412187  1.0000
  H   H18       1.0  0.8668307213706042  0.1875419100679991  0.8461092508694036  1.0000
  H   H19       1.0  0.6987923450122367  0.8616958702844643  0.1836981207603828  1.0000
  H   H20       1.0  0.9393856295085002  0.7554593200420643  0.2726455121715646  1.0000
  H   H21       1.0  0.5131356865394707  0.7777612595118057  0.2961243585972611  1.0000
  H   H22       1.0  0.03728647960259221  0.4743863831696516  0.2723290595891328  1.0000
  H   H23       1.0  0.4633184376884927  0.4299878728677271  0.30257316244517807  1.0000
  H   H24       1.0  0.2986078880527003  0.4537746079110931  0.18935916864077743  1.0000
  C   C1        1.0  0.4675407218673796  0.5787315921730142  0.3508971375500566  1.0000
  C   C2        1.0  0.42592926388658003  0.5756120233994437  0.5793970068213242  1.0000
  C   C3        1.0  0.5048762860476258  0.3491318053934195  0.5748173655374913  1.0000
  C   C4        1.0  0.5142796349160573  0.9275034182376561  0.7868366320864337  1.0000
  C   C5        1.0  0.44480227231682085  0.7852734637123294  0.7883018034604705  1.0000
  C   C6        1.0  0.4936516817890181  0.7846531488250222  0.9307032354321904  1.0000
  C   C7        1.0  0.4778241439236409  0.7307939155066308  0.5822687250797502  1.0000
  C   C8        1.0  0.48139329056645863  0.780059678445994  0.6343770588320652  1.0000
  C   C9        1.0  0.42119306452843847  0.732181888929766  0.7347037725136617  1.0000
  C   C10       1.0  0.3490893279870733  0.6335859277877989  0.783333843023982  1.0000
  C   C11       1.0  0.3430994286076229  0.5817256470565085  0.7337609583234368  1.0000
  C   C12       1.0  0.4118658580798638  0.6310286146002467  0.6332037758601744  1.0000
  C   C13       1.0  0.425774280354318  0.0881864529199987  0.6343252509003818  1.0000
  C   C14       1.0  0.42088242765768047  0.1902359949444943  0.5813492381083877  1.0000
  C   C15       1.0  0.5252040994770438  0.23903172632557104  0.6284176567599218  1.0000
  C   C16       1.0  0.636804169790267  0.18698213532017857  0.7260465570891341  1.0000
  C   C17       1.0  0.636030813553937  0.08490548424600063  0.776712208346595  1.0000
  C   C18       1.0  0.5290904454671761  0.03499569381106941  0.7318907740048317  1.0000
  C   C19       1.0  0.5833648473817022  0.7770950513659757  0.08910062475256102  1.0000
  C   C20       1.0  0.585409771395298  0.728420574245149  0.19059288741058814  1.0000
  C   C21       1.0  0.48238210842587387  0.6312460179456493  0.2426182577404816  1.0000
  C   C22       1.0  0.3926567620217227  0.5837712194095064  0.19191353915530832  1.0000
  C   C23       1.0  0.40719672209778696  0.6343977797580179  0.0905494709584502  1.0000
  C   C24       1.0  0.4960660232326505  0.7312112263521087  0.03831937003869266  1.0000
  C   C25       1.0  0.2644186787937456  0.4758617126190003  0.7865043930764698  1.0000
  C   C26       1.0  0.5508741293646152  0.7827751325718212  0.47494591944672476  1.0000
  C   C27       1.0  0.30255242915036007  0.24569679162834027  0.47722433519793844  1.0000
  C   C28       1.0  0.7497338951710828  0.2398070064136206  0.775315368961323  1.0000
  C   C29       1.0  0.688165530343113  0.7838258656240172  0.23839599161449604  1.0000
  C   C30       1.0  0.29333266944727404  0.47987787362067996  0.24170555757279294  1.0000
  N   N1        1.0  0.4713063813339461  0.8825800133021247  0.7357057252025072  1.0000
  N   N2        1.0  0.44384591274849344  0.7334799287644245  0.8862052001266746  1.0000
  N   N3        1.0  0.5380423251347749  0.8811035694935754  0.8845103795530777  1.0000
  O   O1        1.0  0.25208623526598467  0.39307661589195675  0.5935998564410883  1.0000
  O   O2        1.0  0.24078552349764956  0.5182734229939356  0.39358677633012473  1.0000
  O   O3        1.0  0.18970014324619913  0.5950056898018445  0.5186574989939743  1.0000
  O   O4        1.0  0.7365691048968159  0.3930215880806075  0.5140834502570115  1.0000
  O   O5        1.0  0.6775279519268266  0.512329402613517  0.5971037926958189  1.0000
  O   O6        1.0  0.6822768720241186  0.5963032744797803  0.39709943832853856  1.0000
