data_image0
_chemical_formula_structural       Al2H14C28O10F2
_chemical_formula_sum              "Al2 H14 C28 O10 F2"
_cell_length_a       6.70168478452326
_cell_length_b       11.13549049376887
_cell_length_c       17.59545412615899
_cell_angle_alpha    83.13140041469424
_cell_angle_beta     83.30415710990974
_cell_angle_gamma    71.97938842758309

_space_group_name_H-M_alt    "P 1"
_space_group_IT_number       1

loop_
  _space_group_symop_operation_xyz
  'x, y, z'

loop_
  _atom_site_type_symbol
  _atom_site_label
  _atom_site_symmetry_multiplicity
  _atom_site_fract_x
  _atom_site_fract_y
  _atom_site_fract_z
  _atom_site_occupancy
  Al  Al1       1.0  0.4969570024384425  0.49821759065863347  0.5032366550581531  1.0000
  Al  Al2       1.0  0.9966719044526751  0.4978239893245586  0.5029105111246539  1.0000
  H   H1        1.0  0.2948083727125024  0.36122389046825276  0.5693028368057469  1.0000
  H   H2        1.0  0.687003852973554  0.6502521079588277  0.45755646196155925  1.0000
  H   H3        1.0  0.6515054448856928  0.4816454000692331  0.2857394598060098  1.0000
  H   H4        1.0  0.7452463771532082  0.47991897075984713  0.14474998500169536  1.0000
  H   H5        1.0  0.1012919256620536  0.5071978035289461  0.11335762705185465  1.0000
  H   H6        1.0  0.8986243883289474  0.48945325939702383  0.8920441084696552  1.0000
  H   H7        1.0  0.3432615152240644  0.5168870966202802  0.7215719789762576  1.0000
  H   H8        1.0  0.252372872590442  0.5193865718786055  0.8626331144426944  1.0000
  H   H9        1.0  0.21284690600914763  0.24339529220183917  0.4002997278235015  1.0000
  H   H10       1.0  0.5399953908890254  0.13289866408449308  0.3263522315668014  1.0000
  H   H11       1.0  0.4285900046711576  0.7741091803579108  0.3967106471953984  1.0000
  H   H12       1.0  0.6469100163141803  0.8971514469684152  0.32373619347596627  1.0000
  H   H13       1.0  0.7719505301662934  0.8761493109088646  0.5522055807232888  1.0000
  H   H14       1.0  0.6528374097447341  0.11295902728169686  0.5476180883539217  1.0000
  C   C1        1.0  0.8606588554956999  0.2726629565062241  0.49309673225732115  1.0000
  C   C2        1.0  0.7094496220299504  0.49708307493416004  0.6415242524842245  1.0000
  C   C3        1.0  0.13668031865125832  0.7260251351868731  0.49913643741279423  1.0000
  C   C4        1.0  0.2848156969442853  0.49857697274135404  0.3646463371584546  1.0000
  C   C5        1.0  0.32911209061609265  0.49352180426045317  0.2797364050547203  1.0000
  C   C6        1.0  0.5339489752852629  0.48587722594437827  0.24694448938665667  1.0000
  C   C7        1.0  0.585670557242004  0.4853056366266203  0.1684260490595619  1.0000
  C   C8        1.0  0.4306427319675593  0.49356772538771293  0.11847643740426154  1.0000
  C   C9        1.0  0.22495334163086517  0.5001594731979182  0.15017055775059163  1.0000
  C   C10       1.0  0.1787424610431075  0.49970428838640396  0.22905679352851394  1.0000
  C   C11       1.0  0.4790679450252495  0.4970755256170705  0.037981775035291314  1.0000
  C   C12       1.0  0.5208856952473726  0.5013853940012821  0.9684874161879341  1.0000
  C   C13       1.0  0.568321907274381  0.5043781050709981  0.8879502381386999  1.0000
  C   C14       1.0  0.7739441523040185  0.4965721958883903  0.855663331008323  1.0000
  C   C15       1.0  0.8188459075493314  0.495872137233988  0.77673957772101  1.0000
  C   C16       1.0  0.6670726346614089  0.5025115499940895  0.7265201379297965  1.0000
  C   C17       1.0  0.46226668754473377  0.511745080603653  0.7599381109712909  1.0000
  C   C18       1.0  0.4119482302491022  0.5130456006729601  0.8384981191572154  1.0000
  C   C19       1.0  0.9354948507530595  0.13344203533248586  0.4851668024603131  1.0000
  C   C20       1.0  0.13288520689925323  0.07228746076381039  0.4449638778495528  1.0000
  C   C21       1.0  0.8055937926892086  0.06351301851850617  0.5200192478378016  1.0000
  C   C22       1.0  0.26135562497714204  0.14062464476395317  0.4011870739388997  1.0000
  C   C23       1.0  0.44400888747603773  0.07853715796143489  0.359523169198333  1.0000
  C   C24       1.0  0.0671421382901158  0.8672829418644736  0.4882319704280464  1.0000
  C   C25       1.0  0.8716674029473314  0.9307505256769416  0.5221639682409603  1.0000
  C   C26       1.0  0.19822347468005566  0.9361618256980647  0.44548902919262207  1.0000
  C   C27       1.0  0.3846553687636316  0.876079734713727  0.400110607803363  1.0000
  C   C28       1.0  0.505205377117555  0.945434736538523  0.35838717056068975  1.0000
  O   O1        1.0  0.664304945221069  0.32761408139984377  0.4894539374855855  1.0000
  O   O2        1.0  0.8840513894263682  0.5078156809801014  0.6095279863863611  1.0000
  O   O3        1.0  0.9977484046578767  0.6708489123972255  0.49538400298400403  1.0000
  O   O4        1.0  0.42882213021768234  0.5174681240852477  0.3987279896151676  1.0000
  O   O5        1.0  0.3279083247638895  0.6709196406532952  0.5124146748699232  1.0000
  O   O6        1.0  0.11154980124177177  0.4853768786979983  0.39638902546160193  1.0000
  O   O7        1.0  0.995295276074387  0.325946253915312  0.5057315022270643  1.0000
  O   O8        1.0  0.5623536581649302  0.4807323620284977  0.6078099591039108  1.0000
  O   O9        1.0  0.26610434009535316  0.4396815702296166  0.5363932261831224  1.0000
  O   O10       1.0  0.7261578248137965  0.5590848370082995  0.46993142739548704  1.0000
  F   F1        1.0  0.9767392663140982  0.5088527174965378  0.2558212298883405  1.0000
  F   F2        1.0  0.0211374235146239  0.48524811488172737  0.749565860481795  1.0000
