data_image0
_chemical_formula_structural       Cu3H12C18N2O12
_chemical_formula_sum              "Cu3 H12 C18 N2 O12"
_cell_length_a       5.6866507704540865
_cell_length_b       9.609971745366654
_cell_length_c       10.033840711354866
_cell_angle_alpha    66.2052668719553
_cell_angle_beta     80.87250712648154
_cell_angle_gamma    85.44851533003067

_space_group_name_H-M_alt    "P 1"
_space_group_IT_number       1

loop_
  _space_group_symop_operation_xyz
  'x, y, z'

loop_
  _atom_site_type_symbol
  _atom_site_label
  _atom_site_symmetry_multiplicity
  _atom_site_fract_x
  _atom_site_fract_y
  _atom_site_fract_z
  _atom_site_occupancy
  Cu  Cu1       1.0  0.5247880715892351  0.8388939143015933  0.12777458466955952  1.0000
  Cu  Cu2       1.0  0.47684420754769263  0.16065664237945046  0.8724572703605987  1.0000
  Cu  Cu3       1.0  0.9992993868151597  0.001231708161817801  0.9993744983659171  1.0000
  H   H1        1.0  0.6963871640021323  0.5703778515710953  0.5432772251357889  1.0000
  H   H2        1.0  0.304176871537166  0.42977465529166653  0.4564010696706617  1.0000
  H   H3        1.0  0.13495624128292863  0.5601562082982028  0.8599736378852754  1.0000
  H   H4        1.0  0.865278464243346  0.4397660824647218  0.13999994190006504  1.0000
  H   H5        1.0  0.23831477506000454  0.9063550939224784  0.41600432393932607  1.0000
  H   H6        1.0  0.7616597536381561  0.0939872621649727  0.584093711967256  1.0000
  H   H7        1.0  0.7689180635873993  0.8028179760264749  0.8706078391599448  1.0000
  H   H8        1.0  0.23010785010146148  0.1969570906022682  0.1287173416094447  1.0000
  H   H9        1.0  0.9495147912257238  0.7127923981629894  0.988243400421261  1.0000
  H   H10       1.0  0.05029413625017299  0.2878592984388463  0.010896700824964982  1.0000
  H   H11       1.0  0.35974421057849787  0.8984599346410819  0.8920577608151987  1.0000
  H   H12       1.0  0.6367961702376875  0.0998684740257119  0.11066719423894261  1.0000
  C   C1        1.0  0.9590321186199873  0.7456437299773883  0.4647559831322851  1.0000
  C   C2        1.0  0.04110186729906219  0.2546431462964593  0.5352424414915191  1.0000
  C   C3        1.0  0.8848926417731419  0.8156064333820937  0.3144280100700669  1.0000
  C   C4        1.0  0.11567582569886531  0.18468389531723522  0.6854347692951138  1.0000
  C   C5        1.0  0.8396893999310677  0.6177953779738914  0.5711606482511584  1.0000
  C   C6        1.0  0.16068525328248026  0.3823797809771109  0.4286394646540899  1.0000
  C   C7        1.0  0.9011540781073321  0.5505099063815422  0.7134160564938129  1.0000
  C   C8        1.0  0.09921924083210601  0.4495412698391235  0.2864082395134773  1.0000
  C   C9        1.0  0.7671066123131779  0.414276717068745  0.8275722823206095  1.0000
  C   C10       1.0  0.23356545357831485  0.5855030110138699  0.17188040045154915  1.0000
  C   C11       1.0  0.0851438500878388  0.6106105462245071  0.7495669495626416  1.0000
  C   C12       1.0  0.9150015532617103  0.3894259350376005  0.2503908896988635  1.0000
  C   C13       1.0  0.20497164713355429  0.7393837894231015  0.6419750078058754  1.0000
  C   C14       1.0  0.7951085666107361  0.2607941781123842  0.3580780802497898  1.0000
  C   C15       1.0  0.3864195341917664  0.803121550984237  0.6816796983813943  1.0000
  C   C16       1.0  0.613706976433754  0.19695050282577853  0.3184971937228979  1.0000
  C   C17       1.0  0.1440014016490139  0.8072360156703553  0.4988366057198661  1.0000
  C   C18       1.0  0.8560696846711552  0.1930444782774359  0.5013061377171867  1.0000
  N   N1        1.0  0.531692815803261  0.8546391572419267  0.7179730006615017  1.0000
  N   N2        1.0  0.4685034678719902  0.145311980346257  0.28222587534617116  1.0000
  O   O1        1.0  0.6840133182205079  0.7747617513257269  0.30297608792624686  1.0000
  O   O2        1.0  0.31709880967675025  0.22430411998922756  0.6969888969161032  1.0000
  O   O3        1.0  0.028403020243388304  0.9083428565957947  0.21216815395630553  1.0000
  O   O4        1.0  0.9712027337854535  0.09263848047175573  0.7879976944659149  1.0000
  O   O5        1.0  0.631506228427078  0.3551481098229843  0.7742512923634309  1.0000
  O   O6        1.0  0.37052488326457933  0.6442445919425738  0.22474624236748036  1.0000
  O   O7        1.0  0.7953263314374794  0.36874654827587977  0.9605012183960396  1.0000
  O   O8        1.0  0.20444125745326855  0.6310286206431713  0.03911720022183115  1.0000
  O   O9        1.0  0.8107873457205559  0.7847788157737058  0.9671935835739023  1.0000
  O   O10       1.0  0.18968703800153014  0.21629475540331106  0.03151980105471349  1.0000
  O   O11       1.0  0.33812203561016213  0.9491000850543334  0.9613111259118766  1.0000
  O   O12       1.0  0.6590441549800019  0.04957323843024141  0.041208616809463194  1.0000
