data_image0
_chemical_formula_structural       Zn2H16C40S2N2O14
_chemical_formula_sum              "Zn2 H16 C40 S2 N2 O14"
_cell_length_a       13.869981491492714
_cell_length_b       14.478634467237171
_cell_length_c       15.209223652840581
_cell_angle_alpha    92.60691906054838
_cell_angle_beta     88.25984919744172
_cell_angle_gamma    88.91283642505748

_space_group_name_H-M_alt    "P 1"
_space_group_IT_number       1

loop_
  _space_group_symop_operation_xyz
  'x, y, z'

loop_
  _atom_site_type_symbol
  _atom_site_label
  _atom_site_symmetry_multiplicity
  _atom_site_fract_x
  _atom_site_fract_y
  _atom_site_fract_z
  _atom_site_occupancy
  Zn  Zn1       1.0  0.3973480474340931  0.49983341690107597  0.5009108821167914  1.0000
  Zn  Zn2       1.0  0.6025170464774163  0.4982159452983127  0.49956757951684244  1.0000
  H   H1        1.0  0.45967634606756763  0.37537034722564044  0.7657063510262816  1.0000
  H   H2        1.0  0.7486584048875359  0.5895842720318427  0.6131163089170641  1.0000
  H   H3        1.0  0.09822920779801342  0.3549764821832894  0.3184175229401661  1.0000
  H   H4        1.0  0.9022449423760011  0.6500487367559628  0.6809464156368605  1.0000
  H   H5        1.0  0.08137323044464043  0.6496004754626911  0.6808731199175426  1.0000
  H   H6        1.0  0.91947147510826  0.3578358297983256  0.316807779723554  1.0000
  H   H7        1.0  0.5990034116404673  0.6668961663831112  0.6321047062440499  1.0000
  H   H8        1.0  0.5771609313217638  0.2866124803464914  0.3174978874756604  1.0000
  H   H9        1.0  0.5343548706902368  0.632129505839579  0.2349989483227475  1.0000
  H   H10       1.0  0.4397139555916142  0.2842968565509024  0.8952379737143872  1.0000
  H   H11       1.0  0.5469517346954476  0.7264034515400085  0.104560697013568  1.0000
  H   H12       1.0  0.4453036919618399  0.2689598922771879  0.054038916864342895  1.0000
  H   H13       1.0  0.5468289690700132  0.740458796980043  0.9452654624556587  1.0000
  H   H14       1.0  0.24269629376512114  0.5883569545901252  0.6120511343667803  1.0000
  H   H15       1.0  0.7581989772297676  0.41724562823222294  0.3873366017986157  1.0000
  H   H16       1.0  0.2527648247181206  0.4104146724383354  0.3902860252461551  1.0000
  C   C1        1.0  0.5010400936236225  0.49065858976617  0.3307561783141537  1.0000
  C   C2        1.0  0.5340917430751092  0.6737139807160659  0.9726076985539436  1.0000
  C   C3        1.0  0.20043555926994125  0.5505351993836243  0.563453502620213  1.0000
  C   C4        1.0  0.8002170008998208  0.4546339493511127  0.4363604616089419  1.0000
  C   C5        1.0  0.20629212348870857  0.44945394392217247  0.4384896651663297  1.0000
  C   C6        1.0  0.7943593320479752  0.5527628241135645  0.5629429980402847  1.0000
  C   C7        1.0  0.10552288426554672  0.44819570730364694  0.4344879884469393  1.0000
  C   C8        1.0  0.895175220368998  0.5559051920358442  0.5655916777657027  1.0000
  C   C9        1.0  0.09937701125774373  0.5547282965499534  0.5660024087091672  1.0000
  C   C10       1.0  0.9012829456548775  0.45088021840157927  0.43315877623241755  1.0000
  C   C11       1.0  0.05137924172746011  0.5020736334802081  0.4999379682066873  1.0000
  C   C12       1.0  0.4952439614027569  0.5125280021809218  0.6689737548394419  1.0000
  C   C13       1.0  0.9493977693589672  0.5031027944654839  0.4994630338032168  1.0000
  C   C14       1.0  0.0557504365573536  0.39587986592283636  0.3681873913701139  1.0000
  C   C15       1.0  0.9448971607335397  0.609131296299914  0.6313039332162519  1.0000
  C   C16       1.0  0.04348331289391181  0.6087775761147894  0.631279159712058  1.0000
  C   C17       1.0  0.9571847434339632  0.3974278372460134  0.36740524219814574  1.0000
  C   C18       1.0  0.4932979698542611  0.6821696772123786  0.5063642131709828  1.0000
  C   C19       1.0  0.5090857590117963  0.31999736868802137  0.5045030849741607  1.0000
  C   C20       1.0  0.49407332986295693  0.7813330918796881  0.5078287168234468  1.0000
  C   C21       1.0  0.5091349603944196  0.2207195791311207  0.5093705780899782  1.0000
  C   C22       1.0  0.49779169329300305  0.8660054831748737  0.5089341286145058  1.0000
  C   C23       1.0  0.4979441394597545  0.5087132414866032  0.9526514976409004  1.0000
  C   C24       1.0  0.5076235046539852  0.1360157609242805  0.5099307388059557  1.0000
  C   C25       1.0  0.5015672317323664  0.9584049253425917  0.5097445636901625  1.0000
  C   C26       1.0  0.5050887738926307  0.0435551088981256  0.510081222089859  1.0000
  C   C27       1.0  0.5169027972845586  0.5988404329290232  0.8200720974153838  1.0000
  C   C28       1.0  0.4872311827742665  0.40810164110288843  0.17708130166552397  1.0000
  C   C29       1.0  0.4957028703717797  0.5190933395812891  0.768106228409522  1.0000
  C   C30       1.0  0.5043324057727433  0.48707726709251614  0.2312919321214935  1.0000
  C   C31       1.0  0.47575226977624413  0.4363084204366601  0.807215659960498  1.0000
  C   C32       1.0  0.5206306660083586  0.5711920909762043  0.1926700562208197  1.0000
  C   C33       1.0  0.4768613773336697  0.42926236802424  0.8985067649317529  1.0000
  C   C34       1.0  0.49965215930115653  0.5003270275466605  0.0458404571017326  1.0000
  C   C35       1.0  0.5186781514823907  0.5794618394960552  0.1013100202617281  1.0000
  C   C36       1.0  0.5171498670429246  0.5956045202855478  0.9136090437565018  1.0000
  C   C37       1.0  0.4825807357057813  0.4130845010322232  0.0841910503117589  1.0000
  C   C38       1.0  0.4571012798745785  0.34383969340636605  0.9380301055673146  1.0000
  C   C39       1.0  0.534469840942279  0.665578205095471  0.061641410392702795  1.0000
  C   C40       1.0  0.4600303331040224  0.33550956274056176  0.026794835845642205  1.0000
  S   S1        1.0  0.5356521294109272  0.7038742180356439  0.7622294494970917  1.0000
  S   S2        1.0  0.4681924018338749  0.2972058174662066  0.22156011278373464  1.0000
  N   N1        1.0  0.25087956844838294  0.49934211215286683  0.5013715721326477  1.0000
  N   N2        1.0  0.7493608900761759  0.5037802059777761  0.499661753146647  1.0000
  O   O1        1.0  0.4195332835857784  0.4790945607404425  0.3678585119461388  1.0000
  O   O2        1.0  0.5715255208424851  0.7754461165327201  0.8202868821787915  1.0000
  O   O3        1.0  0.622362939683569  0.6761285469389336  0.6948010568061987  1.0000
  O   O4        1.0  0.366277976490423  0.284494855213353  0.23347652710186403  1.0000
  O   O5        1.0  0.5285711063815413  0.22857381952668018  0.17374624349232454  1.0000
  O   O6        1.0  0.5097959541513646  0.30821702651096683  0.3188067677997424  1.0000
  O   O7        1.0  0.5746564269246691  0.4863530273852702  0.6310019390165422  1.0000
  O   O8        1.0  0.4159305604350579  0.527793129289222  0.6325881004948004  1.0000
  O   O9        1.0  0.5792057855488368  0.5108107871006807  0.3685878322050868  1.0000
  O   O10       1.0  0.4188823028681412  0.641658205826509  0.4805010932683801  1.0000
  O   O11       1.0  0.5893931185639547  0.3558012570016515  0.48313052342010115  1.0000
  O   O12       1.0  0.4288765508730352  0.36192696122506607  0.521401933782137  1.0000
  O   O13       1.0  0.5712660627242202  0.6418319577881989  0.5314024800280495  1.0000
  O   O14       1.0  0.45014988089045  0.7205614482452062  0.7131250361614435  1.0000
