data_image0
_chemical_formula_structural       Cd2P4H56C52S8N4O8
_chemical_formula_sum              "Cd2 P4 H56 C52 S8 N4 O8"
_cell_length_a       8.042163393
_cell_length_b       10.406167290920962
_cell_length_c       17.5735
_cell_angle_alpha    90.0
_cell_angle_beta     90.0
_cell_angle_gamma    100.4047513143174

_space_group_name_H-M_alt    "P 1"
_space_group_IT_number       1

loop_
  _space_group_symop_operation_xyz
  'x, y, z'

loop_
  _atom_site_type_symbol
  _atom_site_label
  _atom_site_symmetry_multiplicity
  _atom_site_fract_x
  _atom_site_fract_y
  _atom_site_fract_z
  _atom_site_occupancy
  Cd  Cd1       1.0  0.49999978904929776  0.0  0.5  1.0000
  Cd  Cd2       1.0  1.243446512e-06  0.0  0.0  1.0000
  P   P1        1.0  0.6921259520764805  0.8344910007116297  0.6122354681765145  1.0000
  P   P2        1.0  0.8078737117320571  0.1655096387574275  0.1122354681765145  1.0000
  P   P3        1.0  0.30787369436102807  0.16550866172296  0.3877645318234855  1.0000
  P   P4        1.0  0.19212694983023226  0.8344890466426945  0.8877639627848737  1.0000
  H   H1        1.0  0.005178645316114199  0.011646250849992197  0.580884285998806  1.0000
  H   H2        1.0  0.49482065359077154  0.9883563426880001  0.0808825788829779  1.0000
  H   H3        1.0  0.9948197576748824  0.9883534115845976  0.4191162830398056  1.0000
  H   H4        1.0  0.5051784343654192  0.011646250849992197  0.9191157140011939  1.0000
  H   H5        1.0  0.0872782587441918  0.0013121572895614  0.6758551227700806  1.0000
  H   H6        1.0  0.4127208118409698  0.9986894592139706  0.1758562608472971  1.0000
  H   H7        1.0  0.9127226311398288  0.9986875051450352  0.32414430819130746  1.0000
  H   H8        1.0  0.5872757892221969  0.0013131343240289  0.8241460153071358  1.0000
  H   H9        1.0  0.9037954576988412  0.0736850084189413  0.6602981762312581  1.0000
  H   H10       1.0  0.5962034193066473  0.926317585119051  0.1602976071926463  1.0000
  H   H11       1.0  0.09620418873866747  0.9263146540156483  0.3397018237687419  1.0000
  H   H12       1.0  0.4037944252030314  0.0736850084189413  0.8397018237687418  1.0000
  H   H13       1.0  0.7560330993451956  0.7096250187586363  0.7568463880274265  1.0000
  H   H14       1.0  0.7439650926951061  0.2903746436759604  0.2568458189888219  1.0000
  H   H15       1.0  0.24396654709231314  0.2903746436759604  0.2431541810111781  1.0000
  H   H16       1.0  0.25603681231369524  0.7096240417241688  0.7431530429339616  1.0000
  H   H17       1.0  0.633462303830413  0.4928415881927606  0.8111696588613526  1.0000
  H   H18       1.0  0.8665358882098886  0.5071580742418291  0.3111696588613526  1.0000
  H   H19       1.0  0.3665348557140788  0.5071580742418291  0.1888303411386474  1.0000
  H   H20       1.0  0.13346477335240078  0.4928406111582929  0.6888303411386474  1.0000
  H   H21       1.0  0.35858475274726936  0.38862522970575236  0.6023529746493281  1.0000
  H   H22       1.0  0.14141533296266565  0.6113754097633117  0.1023524056107235  1.0000
  H   H23       1.0  0.6414146653685081  0.6113734556943767  0.3976475943892765  1.0000
  H   H24       1.0  0.8585845417965743  0.38862522970575236  0.8976470253506719  1.0000
  H   H25       1.0  0.47942630801910713  0.604841003246136  0.5489469940535443  1.0000
  H   H26       1.0  0.020575021137339878  0.39515963622292816  0.0489458559763278  1.0000
  H   H27       1.0  0.5205733384184015  0.3951586591884606  0.4510535749850604  1.0000
  H   H28       1.0  0.9794275688366483  0.6048419802806038  0.951052436907844  1.0000
  H   H29       1.0  0.1919388085662916  0.2628623301117869  0.689021538111362  1.0000
  H   H30       1.0  0.3080600336971315  0.7371383093572701  0.189021538111362  1.0000
  H   H31       1.0  0.8080585792999243  0.7371383093572701  0.310978461888638  1.0000
  H   H32       1.0  0.6919398410621013  0.2628623301117869  0.810978461888638  1.0000
  H   H33       1.0  0.25698519569562  0.1426372618783773  0.7491985091188411  1.0000
  H   H34       1.0  0.24301263144302954  0.8573643546251544  0.2491979400802364  1.0000
  H   H35       1.0  0.7430121921705959  0.8573633775906869  0.25080205991976356  1.0000
  H   H36       1.0  0.7569859998696984  0.14263628484390978  0.7508020599197636  1.0000
  H   H37       1.0  0.3598241882179138  0.1806810299653705  0.6591043332290099  1.0000
  H   H38       1.0  0.14017341059900454  0.8193196095036939  0.1591043332290099  1.0000
  H   H39       1.0  0.640172971326578  0.8193186324692261  0.34089623580960177  1.0000
  H   H40       1.0  0.8598237489454874  0.1806800529309029  0.8408962358096019  1.0000
  H   H41       1.0  0.19378047850281627  0.838617017266962  0.6039980652687262  1.0000
  H   H42       1.0  0.3062181354388827  0.16138264516762746  0.1039980652687262  1.0000
  H   H43       1.0  0.8062174678447249  0.1613806910986995  0.3960019347312738  1.0000
  H   H44       1.0  0.693783439410325  0.8386199483703648  0.8960019347312738  1.0000
  H   H45       1.0  0.9885644731057326  0.632718727701068  0.6100532051099634  1.0000
  H   H46       1.0  0.5114351907028053  0.3672819117679892  0.1100549122257917  1.0000
  H   H47       1.0  0.011435173331776093  0.36728093473352885  0.389945656812813  1.0000
  H   H48       1.0  0.48856592750293965  0.632718727701068  0.889945656812813  1.0000
  H   H49       1.0  0.16088739428236917  0.5427709805742323  0.3853182348422308  1.0000
  H   H50       1.0  0.3391147216771273  0.45722770482589675  0.8853188038808426  1.0000
  H   H51       1.0  0.8391132672799201  0.45722770482589675  0.6146817651577692  1.0000
  H   H52       1.0  0.6608863965286177  0.5427729346431605  0.1146817651577692  1.0000
  H   H53       1.0  0.34497654285475926  0.7594909038997313  0.3868239110023595  1.0000
  H   H54       1.0  0.15502455797996356  0.24050875853486525  0.8868233419637548  1.0000
  H   H55       1.0  0.6550231035827494  0.24050875853486525  0.6131766580362451  1.0000
  H   H56       1.0  0.8449767885475127  0.7594928579686666  0.11317665803624519  1.0000
  C   C1        1.0  0.9731950577921964  0.997654779713116  0.6414789313454888  1.0000
  C   C2        1.0  0.5268011039985439  0.0023468367904087  0.141476655191056  1.0000
  C   C3        1.0  0.026804588645312297  0.0023448827214735996  0.3585216376931157  1.0000
  C   C4        1.0  0.47319402529638666  0.997654779713116  0.8585216376931155  1.0000
  C   C5        1.0  0.6220982699722271  0.6727849571353345  0.6496178905738788  1.0000
  C   C6        1.0  0.8779026372828227  0.3272156823337298  0.1496178905738788  1.0000
  C   C7        1.0  0.3779023915900623  0.3272137282647947  0.3503821094261212  1.0000
  C   C8        1.0  0.12210525663679309  0.6727820260319319  0.850382109426121  1.0000
  C   C9        1.0  0.6671047736846205  0.6401832710310913  0.7235684411187293  1.0000
  C   C10       1.0  0.8328944334804618  0.3598154143690308  0.2235678720801175  1.0000
  C   C11       1.0  0.3328983747706856  0.3598154143690308  0.2764309898426589  1.0000
  C   C12       1.0  0.1671099584213565  0.6401832710310913  0.7764315588812707  1.0000
  C   C13       1.0  0.5990231612940846  0.5191775522583271  0.7541030528921409  1.0000
  C   C14       1.0  0.9009752590679412  0.4808230872107373  0.2541030528921411  1.0000
  C   C15       1.0  0.4009764851434241  0.4808221101762697  0.2458969471078589  1.0000
  C   C16       1.0  0.0990231439230556  0.5191765752238595  0.7458963780692542  1.0000
  C   C17       1.0  0.4843880223737145  0.42887318755092707  0.711813810567044  1.0000
  C   C18       1.0  0.015609576443203781  0.5711274519181301  0.211813810567044  1.0000
  C   C19       1.0  0.5156091371707703  0.5711264748836626  0.2881867584715607  1.0000
  C   C20       1.0  0.9843900699943049  0.42887221051645946  0.788186189432956  1.0000
  C   C21       1.0  0.4423157863726672  0.4590420578316383  0.6372452840925291  1.0000
  C   C22       1.0  0.05768577110551121  0.5409595586718865  0.1372452840925291  1.0000
  C   C23       1.0  0.5576840883865728  0.5409585816374259  0.3627535778302544  1.0000
  C   C24       1.0  0.9423176056715263  0.4590401037627032  0.8627552849460827  1.0000
  C   C25       1.0  0.5112176289308863  0.5809876837619328  0.6069849489287833  1.0000
  C   C26       1.0  0.9887820348776514  0.4190129557071244  0.1069849489287833  1.0000
  C   C27       1.0  0.4887807740601104  0.419011978672664  0.3930150510712167  1.0000
  C   C28       1.0  0.011221570221117399  0.5809876837619328  0.8930139129939931  1.0000
  C   C29       1.0  0.300542501182953  0.22054403623043578  0.7080792101744109  1.0000
  C   C30       1.0  0.1994563410804773  0.7794566032386214  0.2080792101744109  1.0000
  C   C31       1.0  0.6994559018080507  0.7794556262041538  0.2919213588642009  1.0000
  C   C32       1.0  0.8005420619105195  0.22054305919596828  0.7919207898255889  1.0000
  C   C33       1.0  0.1794824912888728  0.7710638771646714  0.5561197257233914  1.0000
  C   C34       1.0  0.32051883786757435  0.2289367623043859  0.0561202947619961  1.0000
  C   C35       1.0  0.8205181702734168  0.2289348082354508  0.4438802742766086  1.0000
  C   C36       1.0  0.679481265213397  0.771064854199139  0.9438797052380039  1.0000
  C   C37       1.0  0.0668200218732338  0.6530557001375215  0.5595106267960261  1.0000
  C   C38       1.0  0.4331808506397508  0.3469429852626007  0.059511195834637896  1.0000
  C   C39       1.0  0.933181426492105  0.3469410311936656  0.4404893732039738  1.0000
  C   C40       1.0  0.5668192524412136  0.653058631240924  0.9404893732039739  1.0000
  C   C41       1.0  0.05691747941207838  0.5643937303696304  0.4987065752411297  1.0000
  C   C42       1.0  0.4430836214226447  0.4356059320649663  0.9987071442797414  1.0000
  C   C43       1.0  0.943083182150211  0.4356049550304988  0.5012934247588703  1.0000
  C   C44       1.0  0.5569177251048387  0.5643956844385655  0.0012934247588703  1.0000
  C   C45       1.0  0.15995290491289887  0.6043954755290527  0.43527868665889  1.0000
  C   C46       1.0  0.3400504544931096  0.3956032098710692  0.9352786866588899  1.0000
  C   C47       1.0  0.8400490000959024  0.3956032098710692  0.5647218823797218  1.0000
  C   C48       1.0  0.6599543940521642  0.6043974295979877  0.06472074430249819  1.0000
  C   C49       1.0  0.2656388499054856  0.7258056865712774  0.4358107377585583  1.0000
  C   C50       1.0  0.2343622509292302  0.2741939758633123  0.9358107377585582  1.0000
  C   C51       1.0  0.7343605682102918  0.2741929988288447  0.5641898312800535  1.0000
  C   C52       1.0  0.7656403390447579  0.7258076406402125  0.0641898312800535  1.0000
  S   S1        1.0  0.7201162975048944  0.8317416257207028  0.4989285002987458  1.0000
  S   S2        1.0  0.7798846097501553  0.16825901374835436  0.9989285002987458  1.0000
  S   S3        1.0  0.2798833489326142  0.1682580367138868  0.501072068739866  1.0000
  S   S4        1.0  0.22011526500908468  0.8317416257207028  0.0010709306626424  1.0000
  S   S5        1.0  0.540487933819449  0.9565177205027097  0.6492150112385104  1.0000
  S   S6        1.0  0.9595127451138694  0.04348194193187989  0.1492150112385104  1.0000
  S   S7        1.0  0.4595114842963355  0.043480964897412384  0.3507849887614896  1.0000
  S   S8        1.0  0.04048938821665619  0.9565177205027097  0.8507844197228778  1.0000
  N   N1        1.0  0.2779988307781096  0.8076372083784094  0.49545224343471966  1.0000
  N   N2        1.0  0.22200001148532067  0.1923634310906479  0.9954522434347197  1.0000
  N   N3        1.0  0.7219998005346184  0.1923634310906479  0.5045483256038921  1.0000
  N   N4        1.0  0.7780000915956435  0.8076381854128768  0.0045483256038921  1.0000
  O   O1        1.0  0.8737145012816895  0.8697980952557742  0.654442199903265  1.0000
  O   O2        1.0  0.6262836907586121  0.13020156717882259  0.1544416308646532  1.0000
  O   O3        1.0  0.12628514515581907  0.13020156717882259  0.3455578000967349  1.0000
  O   O4        1.0  0.3737134687858799  0.8697980952557742  0.8455572310581303  1.0000
  O   O5        1.0  0.42078545516003624  0.31498223376890166  0.7482607334907669  1.0000
  O   O6        1.0  0.07921338710339398  0.6850184057001555  0.24826073349076694  1.0000
  O   O7        1.0  0.5792129478309604  0.685017428665688  0.2517398355478448  1.0000
  O   O8        1.0  0.9207850158876099  0.3149812567344341  0.7517392665092331  1.0000
