data_image0
_chemical_formula_structural       K2V2H30C24S4O16
_chemical_formula_sum              "K2 V2 H30 C24 S4 O16"
_cell_length_a       9.312299375851778
_cell_length_b       10.68155776566729
_cell_length_c       10.76876502721593
_cell_angle_alpha    117.26261072690154
_cell_angle_beta     94.93603138655068
_cell_angle_gamma    110.37911625839044

_space_group_name_H-M_alt    "P 1"
_space_group_IT_number       1

loop_
  _space_group_symop_operation_xyz
  'x, y, z'

loop_
  _atom_site_type_symbol
  _atom_site_label
  _atom_site_symmetry_multiplicity
  _atom_site_fract_x
  _atom_site_fract_y
  _atom_site_fract_z
  _atom_site_occupancy
  K   K1        1.0  0.24197816498294608  0.497612384579327  0.45285082088642553  1.0000
  K   K2        1.0  0.7580905914106071  0.5023867169797498  0.5471546617894776  1.0000
  V   V1        1.0  0.9888080908753525  0.05722502571232009  0.16058912823454827  1.0000
  V   V2        1.0  0.011206555897096805  0.9428094234233129  0.8394115873968888  1.0000
  H   H1        1.0  0.5694539596268767  0.11561329163004072  0.3489416819526952  1.0000
  H   H2        1.0  0.43053948843351014  0.8843741695209602  0.6510572790623004  1.0000
  H   H3        1.0  0.6194893469565913  0.8999626003919945  0.15927269639560404  1.0000
  H   H4        1.0  0.3804983779217963  0.1000002021740869  0.84072291224134  1.0000
  H   H5        1.0  0.42877530518499896  0.7259897736453736  0.9075266223687921  1.0000
  H   H6        1.0  0.5711908291020933  0.2739801164973557  0.09246683361676133  1.0000
  H   H7        1.0  0.2461678538254048  0.0164593424649198  0.6054926775197205  1.0000
  H   H8        1.0  0.7538340626314481  0.9835516362756637  0.3945037559401003  1.0000
  H   H9        1.0  0.2024605599181299  0.06947423351570592  0.474773406973938  1.0000
  H   H10       1.0  0.7975480781110136  0.9305180343704649  0.5252066422690619  1.0000
  H   H11       1.0  0.3888211785864684  0.06023279789307882  0.5100044701627483  1.0000
  H   H12       1.0  0.6111830807587142  0.9397546825954138  0.48998976725985716  1.0000
  H   H13       1.0  0.9851460581058904  0.7982899099172515  0.49807312980453855  1.0000
  H   H14       1.0  0.014861840695743912  0.2017009996352215  0.5019359576177609  1.0000
  H   H15       1.0  0.9101376163193535  0.6286474484190168  0.31623649460568987  1.0000
  H   H16       1.0  0.08985895527911944  0.37134701155154204  0.683770549594698  1.0000
  H   H17       1.0  0.9185282588519996  0.8108774099084215  0.34221966678616417  1.0000
  H   H18       1.0  0.08148108077150343  0.18912872323321758  0.6577983449257803  1.0000
  H   H19       1.0  0.5467025369754523  0.6646006458806539  0.16491711411651266  1.0000
  H   H20       1.0  0.45329352226614367  0.33540211909705425  0.8350778978933422  1.0000
  H   H21       1.0  0.4330396914119135  0.6713959162363423  0.2949601350091983  1.0000
  H   H22       1.0  0.5669558501305829  0.3286080508711536  0.7050307428744845  1.0000
  H   H23       1.0  0.5796262222278656  0.5956380686394169  0.2842444193687755  1.0000
  H   H24       1.0  0.42036284141744323  0.4043635285895064  0.7157504446497286  1.0000
  H   H25       1.0  0.17173870797032725  0.5406605141929219  0.11418849189101377  1.0000
  H   H26       1.0  0.8282602439883534  0.4593608773648796  0.8858347558098603  1.0000
  H   H27       1.0  0.25643195204962416  0.5261393149333742  0.9662698168389529  1.0000
  H   H28       1.0  0.7435477575483206  0.47387276882633966  0.033741184108954846  1.0000
  H   H29       1.0  0.09653902738492803  0.3549767068886852  0.9433286731464537  1.0000
  H   H30       1.0  0.9034346825247612  0.645041234460848  0.05668639541063677  1.0000
  C   C1        1.0  0.24307849311146873  0.9557431474007173  0.06327072344007696  1.0000
  C   C2        1.0  0.7569170794814397  0.04424901663924171  0.9367277652264935  1.0000
  C   C3        1.0  0.35039919740086833  0.05661412013605371  0.20619814080976084  1.0000
  C   C4        1.0  0.6495932480924651  0.9433663098327756  0.7937975300476482  1.0000
  C   C5        1.0  0.48556468423147  0.03488760909706912  0.23892422353907972  1.0000
  C   C6        1.0  0.5144315338987084  0.9650963668070744  0.7610677884590163  1.0000
  C   C7        1.0  0.5129199708074597  0.9146895893042173  0.13377423187415652  1.0000
  C   C8        1.0  0.48707409305658445  0.0852943897447034  0.8662176143108768  1.0000
  C   C9        1.0  0.406985425932568  0.8172704689061093  0.9930484373633706  1.0000
  C   C10       1.0  0.5930064357354043  0.18272056941642495  0.006942748487837535  1.0000
  C   C11       1.0  0.2718840325022712  0.836339822636724  0.9544479251642034  1.0000
  C   C12       1.0  0.7281152763348472  0.16366058752872453  0.0455471919245198  1.0000
  C   C13       1.0  0.32928048661786846  0.1886151155643105  0.32452167851381125  1.0000
  C   C14       1.0  0.6707284800242307  0.8113899806397954  0.6754744720151609  1.0000
  C   C15       1.0  0.16879419788445926  0.7308984204711494  0.7986361252101376  1.0000
  C   C16       1.0  0.8312006794604938  0.26910662020767256  0.20137097829227463  1.0000
  C   C17       1.0  0.26172547929864004  0.009642334701418101  0.5031046007296639  1.0000
  C   C18       1.0  0.7382776185909068  0.9903569036784676  0.49688934654712846  1.0000
  C   C19       1.0  0.9756484095892758  0.7568168858365638  0.3824569102740299  1.0000
  C   C20       1.0  0.02435514916572861  0.24317636841342252  0.6175538400487782  1.0000
  C   C21       1.0  0.4906184437784803  0.6073779410411293  0.22222815453628206  1.0000
  C   C22       1.0  0.5093749301798383  0.3926260175240159  0.7777644084202395  1.0000
  C   C23       1.0  0.20208246483728942  0.4650252920025935  0.0210801483881511  1.0000
  C   C24       1.0  0.7978999051886008  0.5349879424212105  0.9789343706967844  1.0000
  S   S1        1.0  0.17233330300813784  0.8073082368153593  0.35804967302544105  1.0000
  S   S2        1.0  0.8276691985908613  0.19268503653771774  0.6419582180619801  1.0000
  S   S3        1.0  0.3413467540444018  0.4114801646975509  0.08800907931686919  1.0000
  S   S4        1.0  0.6586444589887606  0.5885237911688107  0.9119842432695366  1.0000
  O   O1        1.0  0.11260086085633277  0.9754667276294318  0.029247825115923966  1.0000
  O   O2        1.0  0.8874048743865544  0.024538373291846896  0.970748076693454  1.0000
  O   O3        1.0  0.1838427835962761  0.1790281706570696  0.32230812884113663  1.0000
  O   O4        1.0  0.8161629401093151  0.8209792862028635  0.677686991166027  1.0000
  O   O5        1.0  0.446509763228228  0.30285092062990776  0.42804863958152606  1.0000
  O   O6        1.0  0.5534950258173056  0.6971424664497192  0.5719409084599578  1.0000
  O   O7        1.0  0.06693159789755043  0.767691765379837  0.7471218451680743  1.0000
  O   O8        1.0  0.9330691965938345  0.2323215416539597  0.2528783507977509  1.0000
  O   O9        1.0  0.18232881934874015  0.6094520277320614  0.7177647851204656  1.0000
  O   O10       1.0  0.8176704513150029  0.3905507149977795  0.2822332519378393  1.0000
  O   O11       1.0  0.8785787976594365  0.9222179793719932  0.18710648306003475  1.0000
  O   O12       1.0  0.12144447283657199  0.0778164630280784  0.8128939703807136  1.0000
  O   O13       1.0  0.2495345131408017  0.728002184569519  0.4077566451240387  1.0000
  O   O14       1.0  0.7504722406207736  0.27199576515346996  0.5922546411998298  1.0000
  O   O15       1.0  0.26281685977138386  0.3414536155781462  0.17245208828099126  1.0000
  O   O16       1.0  0.7371873201295075  0.6585432594471285  0.8275436491475007  1.0000
