data_image0
_chemical_formula_structural       H20Pb2C24Br4N8O2
_chemical_formula_sum              "H20 Pb2 C24 Br4 N8 O2"
_cell_length_a       7.376000289647615
_cell_length_b       10.263047452272088
_cell_length_c       10.824493646082725
_cell_angle_alpha    92.06535528719449
_cell_angle_beta     100.97824713134729
_cell_angle_gamma    103.60197811151797

_space_group_name_H-M_alt    "P 1"
_space_group_IT_number       1

loop_
  _space_group_symop_operation_xyz
  'x, y, z'

loop_
  _atom_site_type_symbol
  _atom_site_label
  _atom_site_symmetry_multiplicity
  _atom_site_fract_x
  _atom_site_fract_y
  _atom_site_fract_z
  _atom_site_occupancy
  H   H1        1.0  0.17347027788911626  0.6071562734506629  0.05946937757290273  1.0000
  H   H2        1.0  0.8265218472639971  0.3928420027471304  0.9405141493163074  1.0000
  H   H3        1.0  0.39668288239437993  0.801445595524619  0.1989080558103566  1.0000
  H   H4        1.0  0.6033082954694037  0.198532327976082  0.8010986873901444  1.0000
  H   H5        1.0  0.7363741404177232  0.826284691139165  0.03798604219045389  1.0000
  H   H6        1.0  0.2636202460834483  0.17370883344937477  0.9620482803905759  1.0000
  H   H7        1.0  0.8306485559433269  0.6184283073428817  0.9810357191811507  1.0000
  H   H8        1.0  0.169337656690594  0.381569410274949  0.01897288125572061  1.0000
  H   H9        1.0  0.8233323383660006  0.44383311558922867  0.2642899645591755  1.0000
  H   H10       1.0  0.17666867490893168  0.5561721610331105  0.7357165778618369  1.0000
  H   H11       1.0  0.4078773814584907  0.5797547423373219  0.4692895326728036  1.0000
  H   H12       1.0  0.5921336267372865  0.42025131181409864  0.5307082203187508  1.0000
  H   H13       1.0  0.04714451372608149  0.8344150996969687  0.4694933368118157  1.0000
  H   H14       1.0  0.9528626367472339  0.16558355895775637  0.5305273626481367  1.0000
  H   H15       1.0  0.7765241859380937  0.6664721606685831  0.33359076940853083  1.0000
  H   H16       1.0  0.22348415260780996  0.3335390563751517  0.6664209204538523  1.0000
  H   H17       1.0  0.8160971511229677  0.051784725225218216  0.13994059498120495  1.0000
  H   H18       1.0  0.18393021316287425  0.9482292786584737  0.8600488620131304  1.0000
  H   H19       1.0  0.8991226635143263  0.2671244884163713  0.231678592326361  1.0000
  H   H20       1.0  0.10088988938947813  0.7328776086581074  0.7683190474285412  1.0000
  Pb  Pb1       1.0  0.4427581603702605  0.12206250908032254  0.355828258217585  1.0000
  Pb  Pb2       1.0  0.5572574053456663  0.8779431726440733  0.644106239890455  1.0000
  C   C1        1.0  0.017047576817326233  0.922500212649716  0.1481969211667149  1.0000
  C   C2        1.0  0.982955100718712  0.07749272037552397  0.8518162507007433  1.0000
  C   C3        1.0  0.12245186349331048  0.6939077922644543  0.08421619001063621  1.0000
  C   C4        1.0  0.8775407049318317  0.3060877841866301  0.9157801294750315  1.0000
  C   C5        1.0  0.2489144074810952  0.8029985243052238  0.16094427053351273  1.0000
  C   C6        1.0  0.7510810388073991  0.19698867435811002  0.839060082688363  1.0000
  C   C7        1.0  0.8811744216683478  0.8167860550668922  0.07280390512847394  1.0000
  C   C8        1.0  0.11882173183458632  0.18320832388327096  0.9272159192616769  1.0000
  C   C9        1.0  0.9350846474389911  0.7008309872349301  0.04056926248847503  1.0000
  C   C10       1.0  0.06490655728484282  0.2991649452450887  0.9594380056060176  1.0000
  C   C11       1.0  0.9631746188904129  0.0465515166722952  0.176992780595171  1.0000
  C   C12       1.0  0.03684330959879393  0.9534502887777521  0.8230129480722752  1.0000
  C   C13       1.0  0.17742747827554692  0.3678242942092425  0.3323764523752075  1.0000
  C   C14       1.0  0.8225827468251906  0.632179390675944  0.6676274819793947  1.0000
  C   C15       1.0  0.12306125987426948  0.49464841423144174  0.36066981160096395  1.0000
  C   C16       1.0  0.876939100599728  0.5053504544092109  0.6393435301214796  1.0000
  C   C17       1.0  0.9423100049042362  0.5189606144083427  0.3223418668451644  1.0000
  C   C18       1.0  0.057689892492774675  0.48104123710183433  0.677671653117784  1.0000
  C   C19       1.0  0.2665311092997841  0.5962751558001856  0.4366789746689578  1.0000
  C   C20       1.0  0.7334735414276776  0.40372406078575557  0.5633303379262742  1.0000
  C   C21       1.0  0.06505616474243685  0.7370138569161213  0.4370691472539719  1.0000
  C   C22       1.0  0.934947239812992  0.26298597327311757  0.562946524944806  1.0000
  C   C23       1.0  0.9142546670304765  0.6425085444511042  0.3607889496387174  1.0000
  C   C24       1.0  0.0857483214596755  0.3574943716374078  0.6392250651984456  1.0000
  Br  Br1       1.0  0.29815571821069403  0.07107184604539192  0.6074641723843401  1.0000
  Br  Br2       1.0  0.7017350828551515  0.9288466123016831  0.3924236707426375  1.0000
  Br  Br3       1.0  0.5818628802700517  0.23459899555439992  0.13545301962099643  1.0000
  Br  Br4       1.0  0.4181485875921068  0.7654832111290162  0.8644907820782706  1.0000
  N   N1        1.0  0.0898476969881301  0.14694976433764143  0.24154541465389204  1.0000
  N   N2        1.0  0.9101620435535621  0.8530482078076816  0.7584709474306452  1.0000
  N   N3        1.0  0.039463455661341115  0.26262312002319993  0.2648869300205164  1.0000
  N   N4        1.0  0.9605436205935046  0.7373750494492057  0.7351244698066993  1.0000
  N   N5        1.0  0.23865579518165703  0.7139290636959431  0.47518159981798663  1.0000
  N   N6        1.0  0.7613450988868917  0.28606697661980723  0.524828810260786  1.0000
  N   N7        1.0  0.1984218587445242  0.9143878865238905  0.19271721311567802  1.0000
  N   N8        1.0  0.801579699212695  0.0856012867514906  0.8072908832578067  1.0000
  O   O1        1.0  0.3438787969029633  0.3578136283355491  0.37073101346588544  1.0000
  O   O2        1.0  0.6561385687611364  0.6421992633813504  0.6292551799219981  1.0000
