data_image0
_chemical_formula_structural       Ag2H14C20N6Cl2O4
_chemical_formula_sum              "Ag2 H14 C20 N6 Cl2 O4"
_cell_length_a       6.392939245248246
_cell_length_b       7.886210107464788
_cell_length_c       11.4292436559192
_cell_angle_alpha    104.41205675468822
_cell_angle_beta     108.47357359991452
_cell_angle_gamma    96.15493403410954

_space_group_name_H-M_alt    "P 1"
_space_group_IT_number       1

loop_
  _space_group_symop_operation_xyz
  'x, y, z'

loop_
  _atom_site_type_symbol
  _atom_site_label
  _atom_site_symmetry_multiplicity
  _atom_site_fract_x
  _atom_site_fract_y
  _atom_site_fract_z
  _atom_site_occupancy
  Ag  Ag1       1.0  0.4818622831406073  0.8025304138649219  0.46113163821693337  1.0000
  Ag  Ag2       1.0  0.5181288687040038  0.19747486610211248  0.5388547411878334  1.0000
  H   H1        1.0  0.2061262471942626  0.10902061619817263  0.07894687794124167  1.0000
  H   H2        1.0  0.7938878308949242  0.8909843653350294  0.9210398621988813  1.0000
  H   H3        1.0  0.04359478857573144  0.8882572118145761  0.5523253553950551  1.0000
  H   H4        1.0  0.9564284275309518  0.1117686469739283  0.447681840396548  1.0000
  H   H5        1.0  0.6426416658202925  0.3909605980212589  0.3043996362087284  1.0000
  H   H6        1.0  0.35736980016604036  0.6090624896529847  0.6956270294454895  1.0000
  H   H7        1.0  0.9383670693342266  0.27722932239685605  0.21577924589751513  1.0000
  H   H8        1.0  0.06162237538309507  0.7227602834216285  0.7842360071834092  1.0000
  H   H9        1.0  0.21697314539817816  0.4021326250760779  0.29026408773742657  1.0000
  H   H10       1.0  0.7830297801903325  0.597865569257536  0.70974162052142  1.0000
  H   H11       1.0  0.6591684266440011  0.36541043093726705  0.03066766237132153  1.0000
  H   H12       1.0  0.3407998872460851  0.6345739714265904  0.969344082380992  1.0000
  H   H13       1.0  0.6231685414812276  0.43690533135612253  0.8280610864568699  1.0000
  H   H14       1.0  0.37683287936192034  0.5630791514838266  0.17196069143401618  1.0000
  C   C1        1.0  0.3357981484247857  0.0620781758201829  0.04410643597589826  1.0000
  C   C2        1.0  0.6642119716249296  0.9379307427973275  0.9558784701019217  1.0000
  C   C3        1.0  0.3181140769818427  0.04630438118702069  0.9170091522547847  1.0000
  C   C4        1.0  0.6819085862220432  0.9537018974318842  0.08297924619929373  1.0000
  C   C5        1.0  0.4841579567161388  0.9843896943652196  0.8709785817552881  1.0000
  C   C6        1.0  0.5158559224749979  0.0156150033543199  0.12900282841552266  1.0000
  C   C7        1.0  0.4864459251817336  0.9715734793905783  0.7375449623223032  1.0000
  C   C8        1.0  0.5135729257814177  0.0284246958584049  0.2624398172629512  1.0000
  C   C9        1.0  0.9822000304296947  0.7601469896433457  0.4774585202596951  1.0000
  C   C10       1.0  0.017812882085969813  0.23986439252158936  0.5225482457098493  1.0000
  C   C11       1.0  0.7753726038356702  0.5107898775079462  0.35130593126524434  1.0000
  C   C12       1.0  0.22462821223000864  0.489219076289416  0.6487019101138927  1.0000
  C   C13       1.0  0.04306433839253289  0.40899699258141453  0.23811974606481096  1.0000
  C   C14       1.0  0.956913810583728  0.5910044128592488  0.7619146175797551  1.0000
  C   C15       1.0  0.02091714336287958  0.45744994724064014  0.11532196313940796  1.0000
  C   C16       1.0  0.979043186516044  0.5425308207934023  0.8846694875416217  1.0000
  C   C17       1.0  0.8095499934364838  0.4250268260075528  0.017976798955260154  1.0000
  C   C18       1.0  0.19040487969984093  0.5749523928258783  0.9820091109204652  1.0000
  C   C19       1.0  0.7886818392407449  0.46710845947794877  0.903819950066669  1.0000
  C   C20       1.0  0.21129426417184047  0.5328761047169339  0.09617213312233018  1.0000
  N   N1        1.0  0.7785656052124779  0.6528688837017855  0.44518662746275334  1.0000
  N   N2        1.0  0.22145024905177726  0.3471346003975597  0.5548220795785566  1.0000
  N   N3        1.0  0.9694903894554088  0.5323575861736671  0.32866783507439107  1.0000
  N   N4        1.0  0.030499407633804793  0.46763990210688894  0.6713460360845146  1.0000
  N   N5        1.0  0.10382997062526302  0.6918290089274778  0.40907012814191995  1.0000
  N   N6        1.0  0.8961607748226469  0.30816093183593557  0.5909270100608521  1.0000
  Cl  Cl1       1.0  0.08196580046111278  0.09754694477655329  0.8184353734324145  1.0000
  Cl  Cl2       1.0  0.918053770078721  0.9024661796270905  0.18155615347963297  1.0000
  O   O1        1.0  0.4273578654336418  0.09776523219294118  0.6929862463833698  1.0000
  O   O2        1.0  0.5726511363177806  0.9022330371689123  0.30699774408085984  1.0000
  O   O3        1.0  0.550041747179833  0.8363079709553533  0.6828686146084093  1.0000
  O   O4        1.0  0.44998770316303904  0.16369856027015572  0.3171262321144823  1.0000
