data_image0
_chemical_formula_structural       Dy2H42C56O24
_chemical_formula_sum              "Dy2 H42 C56 O24"
_cell_length_a       9.613925174699366
_cell_length_b       11.427782070296242
_cell_length_c       12.459269175038592
_cell_angle_alpha    75.27449237801103
_cell_angle_beta     73.89232843802029
_cell_angle_gamma    73.35611744070619

_space_group_name_H-M_alt    "P 1"
_space_group_IT_number       1

loop_
  _space_group_symop_operation_xyz
  'x, y, z'

loop_
  _atom_site_type_symbol
  _atom_site_label
  _atom_site_symmetry_multiplicity
  _atom_site_fract_x
  _atom_site_fract_y
  _atom_site_fract_z
  _atom_site_occupancy
  Dy  Dy1       1.0  0.7822968367832103  0.9551742741741979  0.0536400089509997  1.0000
  Dy  Dy2       1.0  0.2177024994718124  0.044825817374984915  0.9463604801242907  1.0000
  H   H1        1.0  0.5948388593053195  0.7666000660295894  0.43691199592029034  1.0000
  H   H2        1.0  0.40516073218952187  0.23339909349532922  0.5630878547434932  1.0000
  H   H3        1.0  0.4378728241010135  0.7636689377871023  0.6348741818779473  1.0000
  H   H4        1.0  0.5621297656453023  0.23633117749837862  0.3651263800429447  1.0000
  H   H5        1.0  0.20512824948221445  0.9283920758324273  0.6698374945962655  1.0000
  H   H6        1.0  0.7948719120577009  0.07160895504733843  0.33016339064374023  1.0000
  H   H7        1.0  0.12464990677112549  0.08869609121975232  0.5093578631652065  1.0000
  H   H8        1.0  0.875350765248413  0.9113030756114854  0.49064174525179277  1.0000
  H   H9        1.0  0.3000364013869259  0.2713152272525506  0.3934152791414505  1.0000
  H   H10       1.0  0.6999645020380642  0.7286830039197199  0.6065820916921394  1.0000
  H   H11       1.0  0.13542525138053915  0.4862284405786356  0.39007697492407795  1.0000
  H   H12       1.0  0.8645797069862623  0.5137707500257919  0.6099192657479264  1.0000
  H   H13       1.0  0.861415379851394  0.39632842173955407  0.21664859622842403  1.0000
  H   H14       1.0  0.13857992529618463  0.6036707140121679  0.7833546221803613  1.0000
  H   H15       1.0  0.031206870708068397  0.18378411035312336  0.21437240111551858  1.0000
  H   H16       1.0  0.9687886896793357  0.8162140933743348  0.7856301788817673  1.0000
  H   H17       1.0  0.4854313038936696  0.5113915627240929  0.6690370121093139  1.0000
  H   H18       1.0  0.5145688338118716  0.4886094645209625  0.33096227395878225  1.0000
  H   H19       1.0  0.654874980696583  0.4802175951326789  0.4830844806799276  1.0000
  H   H20       1.0  0.34512542416596387  0.5197825019054676  0.5169149665626236  1.0000
  H   H21       1.0  0.8619842650395241  0.2899246706839875  0.4702243232329692  1.0000
  H   H22       1.0  0.13801508313267868  0.7100754226825503  0.5297769654282759  1.0000
  H   H23       1.0  0.8923494083582144  0.13008780466498143  0.6454081758793818  1.0000
  H   H24       1.0  0.10765019505381442  0.8699113566772925  0.35459247437035657  1.0000
  H   H25       1.0  0.244314715703382  0.3551416619449768  0.9900499816568525  1.0000
  H   H26       1.0  0.7556838071839421  0.6448574920909778  0.009950910839670342  1.0000
  H   H27       1.0  0.05749589558903516  0.5448253995089943  0.048825056199618154  1.0000
  H   H28       1.0  0.942504521190692  0.4551746993465002  0.9511751906288808  1.0000
  H   H29       1.0  0.3720748624147133  0.769194999803354  0.8672563253533383  1.0000
  H   H30       1.0  0.6279250200715012  0.23080323314935922  0.13274528565680294  1.0000
  H   H31       1.0  0.5589854852775387  0.5809202052049687  0.8114139727538615  1.0000
  H   H32       1.0  0.4410127704527864  0.419079879037902  0.18858675856821347  1.0000
  H   H33       1.0  0.6474885773866885  0.8897239912567732  0.8927805912490142  1.0000
  H   H34       1.0  0.35251156031885233  0.11027703598828255  0.10721869481908897  1.0000
  H   H35       1.0  0.5511934603462335  0.8501932385245752  0.013118398886383855  1.0000
  H   H36       1.0  0.448805584917416  0.14980777959681296  0.986880329842549  1.0000
  H   H37       1.0  0.8979320002880087  0.819402975802312  0.25901792085716824  1.0000
  H   H38       1.0  0.1020686717315371  0.18059619102892552  0.7409816875598308  1.0000
  H   H39       1.0  0.9871731054831866  0.9267365828408392  0.19806352762913068  1.0000
  H   H40       1.0  0.012827287462172888  0.07326351237995962  0.8019351200274585  1.0000
  H   H41       1.0  0.7096110883339863  0.6894593607656816  0.26318539720119105  1.0000
  H   H42       1.0  0.29039255810265974  0.31054075819140803  0.736813323301  1.0000
  C   C1        1.0  0.5531729883808866  0.9317886779893388  0.24924288990834487  1.0000
  C   C2        1.0  0.44682876416335654  0.06821049614821112  0.7507564762618698  1.0000
  C   C3        1.0  0.45021043199627536  0.9288984904668214  0.36286544277002253  1.0000
  C   C4        1.0  0.5497875446598569  0.0711025221656101  0.6371343277916424  1.0000
  C   C5        1.0  0.49096742978039015  0.8362328838432805  0.4542181203562236  1.0000
  C   C6        1.0  0.5090340556068541  0.16376722050117823  0.5457810846395361  1.0000
  C   C7        1.0  0.40412996669355994  0.835011625337309  0.5641493068732188  1.0000
  C   C8        1.0  0.5958701590948008  0.16498940009039137  0.43584917960892255  1.0000
  C   C9        1.0  0.27293110278038296  0.9265835737838375  0.5839557692474955  1.0000
  C   C10       1.0  0.7270703945240483  0.07341653237796923  0.41604423533422624  1.0000
  C   C11       1.0  0.22807326617802906  0.018190172914309202  0.49428016122401164  1.0000
  C   C12       1.0  0.7719255000114416  0.981811773596647  0.5057176067445184  1.0000
  C   C13       1.0  0.31628752240617075  0.019741864260268503  0.3842001223265611  1.0000
  C   C14       1.0  0.6837120571714835  0.9802572934473021  0.6157989287512677  1.0000
  C   C15       1.0  0.1735992722978281  0.21708857135551798  0.3034921419689525  1.0000
  C   C16       1.0  0.8264003072798259  0.7829105863520457  0.6965069091088761  1.0000
  C   C17       1.0  0.20433387911012346  0.3002219910296163  0.3543302866976106  1.0000
  C   C18       1.0  0.795668128673938  0.6997762510836696  0.6456684410610976  1.0000
  C   C19       1.0  0.11234198876732647  0.4190512438509871  0.35298534845940566  1.0000
  C   C20       1.0  0.8876610876242523  0.5809470037512554  0.6470123374665633  1.0000
  C   C21       1.0  0.9883384086094227  0.454410593645193  0.30349663981560565  1.0000
  C   C22       1.0  0.011663076777821817  0.5455895106992659  0.6965025651801611  1.0000
  C   C23       1.0  0.9577527371385481  0.36907275161427583  0.25473911388485954  1.0000
  C   C24       1.0  0.0422460648229546  0.6309254740321252  0.745262739372066  1.0000
  C   C25       1.0  0.050838219671668135  0.2507796505320313  0.2536263694513039  1.0000
  C   C26       1.0  0.9491605703726549  0.7492185732970144  0.7463746842196741  1.0000
  C   C27       1.0  0.8934273883578636  0.5823504184676765  0.3020748543161814  1.0000
  C   C28       1.0  0.10657514180253003  0.4176496877310427  0.6979217096749367  1.0000
  C   C29       1.0  0.7312093037540207  0.12852094390654403  0.8543431503657644  1.0000
  C   C30       1.0  0.26879272784392316  0.8714810281580514  0.1456554900343149  1.0000
  C   C31       1.0  0.7108772314976901  0.2305269306888534  0.7555993040994764  1.0000
  C   C32       1.0  0.28912075707562923  0.7694740837609262  0.24440126604814338  1.0000
  C   C33       1.0  0.5965433552079276  0.3405071229284005  0.7624156435437611  1.0000
  C   C34       1.0  0.40345598104709507  0.6594929686207822  0.23758484553152204  1.0000
  C   C35       1.0  0.5772406251076418  0.4295321852939225  0.6638086692870288  1.0000
  C   C36       1.0  0.4227595364322738  0.5704688455858432  0.3361922159529768  1.0000
  C   C37       1.0  0.6724726058790794  0.41092891375252094  0.5594884747453505  1.0000
  C   C38       1.0  0.32752754374364906  0.5890721153098895  0.4405116109087004  1.0000
  C   C39       1.0  0.7882422193437149  0.3043282155783871  0.5518086111378153  1.0000
  C   C40       1.0  0.21175793027901346  0.6956728134840233  0.4481914745162355  1.0000
  C   C41       1.0  0.8057620567688062  0.21559932815701194  0.6493270811135831  1.0000
  C   C42       1.0  0.19423619896151212  0.7844007560858589  0.35067365020849184  1.0000
  C   C43       1.0  0.40807059577740284  0.4594296399790778  0.8936739211460037  1.0000
  C   C44       1.0  0.5919287404776198  0.5405704515701049  0.10632656792928687  1.0000
  C   C45       1.0  0.26990487616498626  0.4465278611378309  0.9643125186005362  1.0000
  C   C46       1.0  0.7300931243255205  0.5534731551293035  0.03568885113304528  1.0000
  C   C47       1.0  0.08200158443224134  0.7800914789650121  0.9838719861595564  1.0000
  C   C48       1.0  0.9179974727485954  0.21990954097373105  0.016127542155324158  1.0000
  C   C49       1.0  0.20114600556403422  0.6689855347849659  0.9591205131788954  1.0000
  C   C50       1.0  0.7988544231328804  0.3310145658878839  0.04088053323555834  1.0000
  C   C51       1.0  0.1674040658735905  0.551489532832207  0.9966277187870247  1.0000
  C   C52       1.0  0.832594747984622  0.4485124209481485  0.003373247525317375  1.0000
  C   C53       1.0  0.3432944359411679  0.6790121095464984  0.8935180206362574  1.0000
  C   C54       1.0  0.6567057136815606  0.320988919515912  0.10648206501779363  1.0000
  C   C55       1.0  0.44773843930214235  0.5741376649377374  0.8609615004460309  1.0000
  C   C56       1.0  0.5522608969528804  0.4258624266114452  0.13903898862925954  1.0000
  O   O1        1.0  0.6533613553182746  0.8614455740767257  0.9727761861285558  1.0000
  O   O2        1.0  0.3466387943044539  0.13855545498567787  0.027223899525495174  1.0000
  O   O3        1.0  0.8880649973634929  0.9060768940039455  0.21481841989893255  1.0000
  O   O4        1.0  0.11193514034204807  0.09392413324111003  0.7851808661691634  1.0000
  O   O5        1.0  0.561895989514568  0.035502868057825814  0.18183775949604097  1.0000
  O   O6        1.0  0.4381036138974538  0.9644962932844411  0.8181628907536974  1.0000
  O   O7        1.0  0.6388625283360698  0.8311153590661465  0.21841962827668457  1.0000
  O   O8        1.0  0.3611389570511747  0.16888474527831226  0.7815795767190821  1.0000
  O   O9        1.0  0.84872234096364  0.03855063539657521  0.8474395576958498  1.0000
  O   O10       1.0  0.1512750894817926  0.9614485095157196  0.15256077746150243  1.0000
  O   O11       1.0  0.634358768450312  0.1261805693299181  0.9482012390344536  1.0000
  O   O12       1.0  0.36564057972189784  0.8738195240366198  0.05180004962678443  1.0000
  O   O13       1.0  0.11104763088555086  0.8880113487418132  0.9567441440117789  1.0000
  O   O14       1.0  0.8889538545016932  0.11198875560264548  0.04325506098398784  1.0000
  O   O15       1.0  0.7640536854650082  0.5980068218789969  0.27421600506720967  1.0000
  O   O16       1.0  0.23594888044694062  0.40199328977177373  0.7257829576817727  1.0000
  O   O17       1.0  0.9317012207079003  0.6662618155320815  0.3252187965786603  1.0000
  O   O18       1.0  0.06830242572874569  0.3337383034250081  0.6747799239235305  1.0000
  O   O19       1.0  0.5033550381445621  0.35035923049532164  0.86648163957544  1.0000
  O   O20       1.0  0.49664292659438997  0.6496417803197547  0.13351733140027722  1.0000
  O   O21       1.0  0.26926403853301656  0.10226469883286883  0.2918312994925714  1.0000
  O   O22       1.0  0.7307350067511179  0.8977325929719128  0.7081691157668999  1.0000
  O   O23       1.0  0.9495600221811524  0.766736603337954  0.028392693197424896  1.0000
  O   O24       1.0  0.05044120796627278  0.23326443303077582  0.9716071502098415  1.0000
