data_image0
_chemical_formula_structural       Cd4H72C104N16O20
_chemical_formula_sum              "Cd4 H72 C104 N16 O20"
_cell_length_a       13.01118601303377
_cell_length_b       14.446387547772266
_cell_length_c       16.875599835543046
_cell_angle_alpha    107.72848085369397
_cell_angle_beta     90.00003899541268
_cell_angle_gamma    90.00023344451586

_space_group_name_H-M_alt    "P 1"
_space_group_IT_number       1

loop_
  _space_group_symop_operation_xyz
  'x, y, z'

loop_
  _atom_site_type_symbol
  _atom_site_label
  _atom_site_symmetry_multiplicity
  _atom_site_fract_x
  _atom_site_fract_y
  _atom_site_fract_z
  _atom_site_occupancy
  Cd  Cd1       1.0  0.9761014919275582  0.5944332716888068  0.10984892151204655  1.0000
  Cd  Cd2       1.0  0.4761029583977674  0.40556982588555  0.3901507838613156  1.0000
  Cd  Cd3       1.0  0.023898439131890794  0.40556690291521846  0.8901504753830096  1.0000
  Cd  Cd4       1.0  0.5238977412318988  0.5944303440183418  0.6098503895191953  1.0000
  H   H1        1.0  0.9334484583959721  0.26921876114593596  0.6284164112305249  1.0000
  H   H2        1.0  0.4334490697956142  0.7307816904933089  0.8715831352934488  1.0000
  H   H3        1.0  0.06655147266201308  0.7307806851658682  0.37158338711033423  1.0000
  H   H4        1.0  0.566551629834052  0.26921847941057553  0.1284180380870623  1.0000
  H   H5        1.0  0.4612865025804425  0.46369029652529986  0.1529087219557397  1.0000
  H   H6        1.0  0.9612888271032956  0.5363105577532535  0.3470903870765696  1.0000
  H   H7        1.0  0.5387126599063734  0.5363084230598998  0.8470908856686848  1.0000
  H   H8        1.0  0.0387126410930563  0.46368889169633576  0.6529082269423301  1.0000
  H   H9        1.0  0.7947181314920397  0.39576193677915933  0.6626084189749194  1.0000
  H   H10       1.0  0.2947196788525304  0.6042379253362353  0.8373903088279208  1.0000
  H   H11       1.0  0.2052833367048308  0.6042375095359204  0.3373913793671904  1.0000
  H   H12       1.0  0.7052810207768729  0.3957622461349145  0.16261027239098516  1.0000
  H   H13       1.0  0.7871603306423507  0.8175029962779662  0.9521435943811555  1.0000
  H   H14       1.0  0.287160487315461  0.18249973583075976  0.547857660425976  1.0000
  H   H15       1.0  0.21283806328045068  0.18249790191323  0.0478571775516698  1.0000
  H   H16       1.0  0.7128386751758312  0.8175004309353398  0.452144697276502  1.0000
  H   H17       1.0  0.22483639440030603  0.5972779588592586  0.10768395402524072  1.0000
  H   H18       1.0  0.724836619245444  0.40272479799802585  0.39231434739904364  1.0000
  H   H19       1.0  0.7751635366574163  0.4027214890198038  0.8923152521540134  1.0000
  H   H20       1.0  0.2751633118120225  0.5972746514482875  0.6076842666185912  1.0000
  H   H21       1.0  0.7291977491497119  0.5781600023041378  0.1017004359616607  1.0000
  H   H22       1.0  0.22920006481394495  0.4218384143576656  0.3982961361303978  1.0000
  H   H23       1.0  0.2708021819117121  0.4218408974575922  0.8982997438108102  1.0000
  H   H24       1.0  0.7708006348137387  0.5781610303885214  0.6017042543726987  1.0000
  H   H25       1.0  0.9315282425837523  0.7316617997052219  0.9999670120285915  1.0000
  H   H26       1.0  0.43152874409950925  0.26834009720218427  0.5000329127910064  1.0000
  H   H27       1.0  0.0684709199042643  0.2683376497394575  3.1601988425172485e-05  1.0000
  H   H28       1.0  0.5684711869572681  0.7316586192501403  0.4999678791572606  1.0000
  H   H29       1.0  0.8156083228609317  0.9853980963496977  0.4651579757030291  1.0000
  H   H30       1.0  0.3156069420104686  0.014602143493931399  0.0348385267730009  1.0000
  H   H31       1.0  0.18439160819877287  0.014602076687069098  0.5348420133536393  1.0000
  H   H32       1.0  0.684392989050444  0.9853987594023149  0.9651604686762526  1.0000
  H   H33       1.0  0.6052898285779377  0.7797745288679394  0.9824170598537876  1.0000
  H   H34       1.0  0.10529089717574887  0.22022670475033826  0.5175825229026148  1.0000
  H   H35       1.0  0.39470856534485677  0.22022636932325665  0.017583712079037587  1.0000
  H   H36       1.0  0.894709033886201  0.7797741918768821  0.4824188411930735  1.0000
  H   H37       1.0  0.48420646922087934  0.6886102251812358  0.03994415943326142  1.0000
  H   H38       1.0  0.9842078792431009  0.31139072675127005  0.46005498702886183  1.0000
  H   H39       1.0  0.5157934618393439  0.31138994472102144  0.9600570139466245  1.0000
  H   H40       1.0  0.0157928203860536  0.6886094462871383  0.539945002028432  1.0000
  H   H41       1.0  0.8321098700096032  0.8275452160627097  0.3493674129240106  1.0000
  H   H42       1.0  0.33210776679120363  0.17245654910527722  0.15062890577008403  1.0000
  H   H43       1.0  0.16788929248065904  0.17245495697241614  0.6506325761320255  1.0000
  H   H44       1.0  0.6678937014071379  0.8275436255020238  0.84937049112623  1.0000
  H   H45       1.0  0.15259959046449012  0.3489517308621047  0.24549335946160514  1.0000
  H   H46       1.0  0.6526031190802327  0.6510507197876266  0.2545042318339483  1.0000
  H   H47       1.0  0.8473995720257718  0.651048442173021  0.7545066295944312  1.0000
  H   H48       1.0  0.3473968119809356  0.34895018154136176  0.7454953557769104  1.0000
  H   H49       1.0  0.0998232534340673  0.934611821649824  0.2582985046320019  1.0000
  H   H50       1.0  0.5998210544036764  0.06539622575773758  0.24169756538832846  1.0000
  H   H51       1.0  0.9001766776239107  0.06538762466198018  0.7417012937088574  1.0000
  H   H52       1.0  0.40017887665775487  0.9346046740039922  0.7583026143841424  1.0000
  H   H53       1.0  0.7856552112626503  0.13043107006105  0.39319177218553153  1.0000
  H   H54       1.0  0.2856562140037227  0.8695690374636271  0.10680645786088411  1.0000
  H   H55       1.0  0.21434471980024478  0.8695705579929011  0.6068080061411365  1.0000
  H   H56       1.0  0.7143452541951304  0.13043113400915723  0.8931941233586402  1.0000
  H   H57       1.0  0.3357758711346719  0.3778935983456789  0.2128274946371178  1.0000
  H   H58       1.0  0.8357792981506976  0.6221089044771373  0.28717079724906813  1.0000
  H   H59       1.0  0.66422329135559  0.6221065746894464  0.7871724944189255  1.0000
  H   H60       1.0  0.16422063290823266  0.37789127326140454  0.7128274153227709  1.0000
  H   H61       1.0  0.013391108022325703  0.44399755145079917  0.2023159744614986  1.0000
  H   H62       1.0  0.5133934775826531  0.556005757948732  0.29768236308517265  1.0000
  H   H63       1.0  0.9866080544679362  0.5560026215843337  0.7976840145945374  1.0000
  H   H64       1.0  0.4866056849073459  0.44399441665365197  0.7023170338092584  1.0000
  H   H65       1.0  0.6476296568404364  0.25425029263591625  0.42838916710585556  1.0000
  H   H66       1.0  0.1476308383703255  0.7457492252316269  0.07160942969299805  1.0000
  H   H67       1.0  0.3523702742227144  0.7457513338507764  0.5716112033824245  1.0000
  H   H68       1.0  0.8523698612605485  0.254251674531737  0.928390750080105  1.0000
  H   H69       1.0  0.0862576902145591  0.09164076828945869  0.3749930832417689  1.0000
  H   H70       1.0  0.5862584219574386  0.9083664851965662  0.12500632688090713  1.0000
  H   H71       1.0  0.9137430094143324  0.908359406316201  0.6250063136539197  1.0000
  H   H72       1.0  0.4137407405348057  0.09163441299627095  0.8749944450525505  1.0000
  C   C1        1.0  0.9666895311561274  0.872004929618896  0.2973459508354068  1.0000
  C   C2        1.0  0.46668727350558464  0.12800177400853838  0.20264995545042552  1.0000
  C   C3        1.0  0.03330963133387849  0.12799524498349507  0.7026534460590244  1.0000
  C   C4        1.0  0.5333126575555838  0.8719991273204497  0.7973496321604401  1.0000
  C   C5        1.0  0.8701075519655177  0.26689455884563523  0.5854920039600559  1.0000
  C   C6        1.0  0.3701089804768499  0.7331056213493027  0.9145080312842567  1.0000
  C   C7        1.0  0.1298916105210424  0.7331041623068228  0.4145070115027637  1.0000
  C   C8        1.0  0.6298924877190757  0.2668930935390392  0.08549335282687308  1.0000
  C   C9        1.0  0.4007663738365892  0.5117283419699702  0.14208390363609164  1.0000
  C   C10       1.0  0.9007684912493159  0.4882729796056466  0.35791588943813224  1.0000
  C   C11       1.0  0.5992335572196692  0.4882703776168711  0.8579157039889582  1.0000
  C   C12       1.0  0.0992322083758665  0.5117257431173456  0.6420825338643326  1.0000
  C   C13       1.0  0.7930486396602702  0.3367476187541882  0.6042141603443838  1.0000
  C   C14       1.0  0.29304819931287074  0.6632529629686772  0.8957847554462008  1.0000
  C   C15       1.0  0.20695282853633754  0.6632518291281498  0.3957850458361206  1.0000
  C   C16       1.0  0.7069517317470967  0.33674720850083867  0.10421582577207289  1.0000
  C   C17       1.0  0.2947936741524515  0.4911603077089665  0.15868247451746945  1.0000
  C   C18       1.0  0.7947943324929765  0.5088398371842899  0.3413163626142861  1.0000
  C   C19       1.0  0.7052062569055338  0.5088391386028446  0.8413173238233898  1.0000
  C   C20       1.0  0.20520559856422688  0.49115961382928924  0.6586816592417435  1.0000
  C   C21       1.0  0.7124648697182038  0.3334864271487916  0.547931992041363  1.0000
  C   C22       1.0  0.2124644939825728  0.6665138127954077  0.952066199986426  1.0000
  C   C23       1.0  0.28753582991344473  0.6665144679128046  0.4520699642165625  1.0000
  C   C24       1.0  0.7875362056482942  0.3334870869679633  0.047933979786669974  1.0000
  C   C25       1.0  0.9501980689428109  0.046650850247111485  0.4256413304901443  1.0000
  C   C26       1.0  0.45019865229923534  0.953352141659522  0.07435655609483396  1.0000
  C   C27       1.0  0.0498018621168939  0.9533493227896556  0.574358658566524  1.0000
  C   C28       1.0  0.5498020473296562  0.046648032946137584  0.9256428408008547  1.0000
  C   C29       1.0  0.9769727454501477  0.7765831616615626  0.23049940491827667  1.0000
  C   C30       1.0  0.47697405181036595  0.22342285436077697  0.2694981039329818  1.0000
  C   C31       1.0  0.0230264170401142  0.2234170113735701  0.7695005841377593  1.0000
  C   C32       1.0  0.5230266478202452  0.7765780469698526  0.7305014836785091  1.0000
  C   C33       1.0  0.6523532981883804  0.6763205124508929  0.04512285913100558  1.0000
  C   C34       1.0  0.1523552211989312  0.32367975540388727  0.4548747517752076  1.0000
  C   C35       1.0  0.3476458643041269  0.3236803841746863  0.9548785049640572  1.0000
  C   C36       1.0  0.8476454784284966  0.6763196909095509  0.5451250465662767  1.0000
  C   C37       1.0  0.8670100163316262  0.1928901253789519  0.5091341044540415  1.0000
  C   C38       1.0  0.36701107782249653  0.8071100416174276  0.9908659257313845  1.0000
  C   C39       1.0  0.1329906832972654  0.807110049226715  0.49086529244164023  1.0000
  C   C40       1.0  0.6329896218071697  0.19289012828646426  0.009135247649126686  1.0000
  C   C41       1.0  0.7707174532748624  0.7654169312212956  0.9855355006849821  1.0000
  C   C42       1.0  0.2707185838777021  0.2345842805153566  0.5144641615152636  1.0000
  C   C43       1.0  0.22928170921539953  0.2345832418138371  0.014464488371054072  1.0000
  C   C44       1.0  0.7292805786116148  0.7654151610930383  0.4855374133097925  1.0000
  C   C45       1.0  0.6342285304399197  0.41273984615388304  0.5671318348970902  1.0000
  C   C46       1.0  0.1342270115869297  0.5872607761977662  0.9328705652091858  1.0000
  C   C47       1.0  0.3657737063338046  0.5872625039281727  0.4328699106320997  1.0000
  C   C48       1.0  0.8657729194725119  0.41273939840625923  0.06712883168587067  1.0000
  C   C49       1.0  0.21182132785882146  0.5418024686583605  0.13825813571808243  1.0000
  C   C50       1.0  0.711821775855135  0.4581995060206978  0.3617399537356931  1.0000
  C   C51       1.0  0.7881786031971811  0.458196252495739  0.8617408797453623  1.0000
  C   C52       1.0  0.288179692339753  0.5417992151366775  0.6382590617290022  1.0000
  C   C53       1.0  0.7383607409575459  0.6320074168808106  0.06885253713178942  1.0000
  C   C54       1.0  0.23836361140247667  0.367992490705916  0.4311450235180203  1.0000
  C   C55       1.0  0.26163919010388526  0.3679934828809194  0.9311476426406884  1.0000
  C   C56       1.0  0.7616378567963764  0.6320076807668683  0.5688555577015109  1.0000
  C   C57       1.0  0.851269909980914  0.7182611907397458  0.011529482047343668  1.0000
  C   C58       1.0  0.3512716735780542  0.28174064666877996  0.48847042090979204  1.0000
  C   C59       1.0  0.1487284839398981  0.2817389822937456  0.9884705070080673  1.0000
  C   C60       1.0  0.6487290260493735  0.7182587996446655  0.5115293774316926  1.0000
  C   C61       1.0  0.8771230375434697  0.9738075922620337  0.4192892519041962  1.0000
  C   C62       1.0  0.3771217496540444  0.02619508985455349  0.0807079231789132  1.0000
  C   C63       1.0  0.12287766208714862  0.026193309068588595  0.5807103357072949  1.0000
  C   C64       1.0  0.6228781814091063  0.9738065366321392  0.9192924473093669  1.0000
  C   C65       1.0  0.6701212207512769  0.7442404189883617  0.002164639908713208  1.0000
  C   C66       1.0  0.170122875453707  0.2557613748856653  0.49783456576888346  1.0000
  C   C67       1.0  0.32987717317126897  0.2557604807700996  0.9978355398625071  1.0000
  C   C68       1.0  0.8298770556099625  0.7442402484665106  0.5021669890426139  1.0000
  C   C69       1.0  0.5475388286659566  0.6536882649336702  0.06322290630401274  1.0000
  C   C70       1.0  0.047540069155367286  0.346310826473541  0.4367755270367013  1.0000
  C   C71       1.0  0.4524595652548626  0.34631190809982826  0.936777082751398  1.0000
  C   C72       1.0  0.9524598619006355  0.6536878946805516  0.5632234884267433  1.0000
  C   C73       1.0  0.8864148173068359  0.8867086010111859  0.355328474092289  1.0000
  C   C74       1.0  0.3864124419044828  0.11329266881023159  0.1446677425711016  1.0000
  C   C75       1.0  0.11358434518317038  0.11329157359120497  0.6446709228021419  1.0000
  C   C76       1.0  0.613585952018056  0.8867082309482227  0.8553324372001114  1.0000
  C   C77       1.0  0.1719599613833367  0.40237694960271847  0.2141796479954792  1.0000
  C   C78       1.0  0.6719632767533523  0.5976263071264113  0.2858193499563201  1.0000
  C   C79       1.0  0.8280392011069251  0.5976232234324143  0.7858203410605569  1.0000
  C   C80       1.0  0.3280351171647027  0.40237314545114333  0.7141780797368469  1.0000
  C   C81       1.0  0.0380502999110561  0.9464617711833723  0.3039585835759552  1.0000
  C   C82       1.0  0.5380510812142134  0.053544556447931796  0.19603818845710216  1.0000
  C   C83       1.0  0.9619496311483927  0.05353840342065299  0.6960408133191012  1.0000
  C   C84       1.0  0.4619488498469551  0.9464563448810566  0.8039613991537636  1.0000
  C   C85       1.0  0.786885077697228  0.18759967367968494  0.45268678890565184  1.0000
  C   C86       1.0  0.28688576979026686  0.8124004375172116  0.04731203531061094  1.0000
  C   C87       1.0  0.2131133162250549  0.8124012276460348  0.5473127987039561  1.0000
  C   C88       1.0  0.7131133927019775  0.18760046067562539  0.9526887366228396  1.0000
  C   C89       1.0  0.27349570116099636  0.41935637206433535  0.1966523463912253  1.0000
  C   C90       1.0  0.7734997240384087  0.5806451402427653  0.3033450609083772  1.0000
  C   C91       1.0  0.7265034613258194  0.5806423475208643  0.8033472612331991  1.0000
  C   C92       1.0  0.22650020701905757  0.4193543092035482  0.6966535531092575  1.0000
  C   C93       1.0  0.09440449736742809  0.4555536849902139  0.19176869999663637  1.0000
  C   C94       1.0  0.5944083612844508  0.5444492475658649  0.3082278026534624  1.0000
  C   C95       1.0  0.9055946651211073  0.544445761319956  0.8082310983435903  1.0000
  C   C96       1.0  0.4055923383409947  0.45554947358986897  0.6917712128106077  1.0000
  C   C97       1.0  0.7098008040261732  0.2578583867541369  0.4725612927924488  1.0000
  C   C98       1.0  0.20980116154647274  0.7421413960064098  0.02743740553733424  1.0000
  C   C99       1.0  0.2901998956047009  0.7421425130092274  0.5274388869806544  1.0000
  C   C100      1.0  0.7901995380829375  0.2578587754647401  0.9725631756815719  1.0000
  C   C101      1.0  0.03042175474779899  0.03357223680802689  0.368340415703571  1.0000
  C   C102      1.0  0.5304227543427585  0.9664333300283158  0.1316567453173007  1.0000
  C   C103      1.0  0.9695781763099232  0.9664272110710354  0.631658790475676  1.0000
  C   C104      1.0  0.4695764081494858  0.033567568164521285  0.868344026616157  1.0000
  N   N1        1.0  0.11440742258206879  0.5236466542369769  0.15403972631590787  1.0000
  N   N2        1.0  0.6144094756320868  0.4763563572733743  0.34595917764590217  1.0000
  N   N3        1.0  0.8855917399064737  0.47635279207319303  0.8459600720243261  1.0000
  N   N4        1.0  0.38559045542882586  0.5236445456228722  0.6540398178033514  1.0000
  N   N5        1.0  0.8347732054812981  0.652634946993615  0.05229802089741031  1.0000
  N   N6        1.0  0.33477599755052273  0.3473653682463507  0.4477008815266005  1.0000
  N   N7        1.0  0.16522672557841392  0.347365226043152  0.9477019681592511  1.0000
  N   N8        1.0  0.6652262392148458  0.6526333466436256  0.5523005025851618  1.0000
  N   N9        1.0  0.42338936779614766  0.5844725299160345  0.11567655652916638  1.0000
  N   N10       1.0  0.9233911804589496  0.41552888961675893  0.3843226813287757  1.0000
  N   N11       1.0  0.576609794692132  0.4155269179613866  0.8843226496494552  1.0000
  N   N12       1.0  0.076609519166233  0.5844698331062329  0.6156757419736892  1.0000
  N   N13       1.0  0.5279617115842398  0.593953460455424  0.10503089607945532  1.0000
  N   N14       1.0  0.0279639530526197  0.4060462711314656  0.39496888032974203  1.0000
  N   N15       1.0  0.4720366823319252  0.40604452926866214  0.8949697051517518  1.0000
  N   N16       1.0  0.9720375151437324  0.5939531783181236  0.6050297336891575  1.0000
  O   O1        1.0  0.5645776724400235  0.4140230721597291  0.5138964301476109  1.0000
  O   O2        1.0  0.0645777321389147  0.5859787100158937  0.9861050533216372  1.0000
  O   O3        1.0  0.43542225862562833  0.5859792763501513  0.486105907541301  1.0000
  O   O4        1.0  0.9354221989207898  0.4140214630208733  0.01389493573502419  1.0000
  O   O5        1.0  0.6402727427240009  0.4798243630632938  0.6367458920706924  1.0000
  O   O6        1.0  0.14027623949812804  0.5201733750174568  0.8632569393704659  1.0000
  O   O7        1.0  0.35972718833475165  0.5201750785467425  0.3632556827549962  1.0000
  O   O8        1.0  0.8597244601310263  0.47982679802095146  0.13674304968682796  1.0000
  O   O9        1.0  0.031062008921679797  0.7705914713536899  0.16655667455005843  1.0000
  O   O10       1.0  0.5310675482841132  0.2294170176581928  0.33343651309047573  1.0000
  O   O11       1.0  0.9689379221380321  0.22940870168308436  0.83344331450661  1.0000
  O   O12       1.0  0.46893161420761226  0.770583883669161  0.6665630745197646  1.0000
  O   O13       1.0  0.9508415821100726  0.13130403085757789  0.4924096190386962  1.0000
  O   O14       1.0  0.45084326151748394  0.8686975056415348  0.0075896636513021155  1.0000
  O   O15       1.0  0.0491591175173554  0.8686954154558607  0.5075901793027882  1.0000
  O   O16       1.0  0.5491566695456739  0.13130412084515797  0.9924107068369711  1.0000
  O   O17       1.0  0.929583362254604  0.7035553669432983  0.24149475363060446  1.0000
  O   O18       1.0  0.42957576547398446  0.2964497157197527  0.2585042635908721  1.0000
  O   O19       1.0  0.0704165688051006  0.2964448060934755  0.758505235426064  1.0000
  O   O20       1.0  0.5704241655906372  0.7035526390591611  0.7414957054516051  1.0000
