data_image0
_chemical_formula_structural       Zn2H20C44Br4N2O8
_chemical_formula_sum              "Zn2 H20 C44 Br4 N2 O8"
_cell_length_a       10.973761365590732
_cell_length_b       17.057911919943116
_cell_length_c       17.804562125190863
_cell_angle_alpha    89.99876016089533
_cell_angle_beta     87.98961318650201
_cell_angle_gamma    89.99672395527772

_space_group_name_H-M_alt    "P 1"
_space_group_IT_number       1

loop_
  _space_group_symop_operation_xyz
  'x, y, z'

loop_
  _atom_site_type_symbol
  _atom_site_label
  _atom_site_symmetry_multiplicity
  _atom_site_fract_x
  _atom_site_fract_y
  _atom_site_fract_z
  _atom_site_occupancy
  Zn  Zn1       1.0  0.5023629609037243  0.586669869627329  0.4998184302450354  1.0000
  Zn  Zn2       1.0  0.5023741699941907  0.41332977856173864  0.4998203446542249  1.0000
  H   H1        1.0  0.8954900875625142  0.5000570464756536  0.24184316885490625  1.0000
  H   H2        1.0  0.1088766849285321  0.49993204709667094  0.7579982091558648  1.0000
  H   H3        1.0  0.12407938660213347  0.5000837857661082  0.2395720547804743  1.0000
  H   H4        1.0  0.8803319632027637  0.4998912377056897  0.7603685075569044  1.0000
  H   H5        1.0  0.7703608151994956  0.49992491990060733  0.6420687817924814  1.0000
  H   H6        1.0  0.2335380579257489  0.5000577233633832  0.3577949533606456  1.0000
  H   H7        1.0  0.22579571894747366  0.49998467516213907  0.6374203106154326  1.0000
  H   H8        1.0  0.7781912668638569  0.5000202452832027  0.3624744348278383  1.0000
  H   H9        1.0  0.4417318406852715  0.6264708649186516  0.8783402466249298  1.0000
  H   H10       1.0  0.43984258452032776  0.3735183878295629  0.12440960747745318  1.0000
  H   H11       1.0  0.43948798487296153  0.626459662638112  0.12443110213983029  1.0000
  H   H12       1.0  0.44174983313975247  0.37354893473315093  0.8783393370706492  1.0000
  H   H13       1.0  0.4729018100640019  0.6257606134820791  0.7384361571593983  1.0000
  H   H14       1.0  0.4711089406875004  0.37430389403800046  0.2629968343159773  1.0000
  H   H15       1.0  0.47078460339203343  0.6256869477584887  0.2630155685513031  1.0000
  H   H16       1.0  0.47290781756697703  0.3742644146236529  0.7384348769304339  1.0000
  H   H17       1.0  0.6446387212109953  0.8691649388588446  0.4139142989021777  1.0000
  H   H18       1.0  0.355636071924593  0.13143500291775476  0.5856133662398405  1.0000
  H   H19       1.0  0.3556288692722164  0.8685879489706425  0.5856139122028665  1.0000
  H   H20       1.0  0.6446478441257141  0.13082955030191104  0.4139154220563838  1.0000
  C   C1        1.0  0.49374736535583713  0.4999994072754603  0.35368336111743287  1.0000
  C   C2        1.0  0.49235158189899403  0.5000160041956505  0.646457955746527  1.0000
  C   C3        1.0  0.4404576672562115  0.500009258133872  0.8878682107242497  1.0000
  C   C4        1.0  0.4389207583935431  0.49999171161808675  0.11495661665244232  1.0000
  C   C5        1.0  0.4302756076487099  0.5000041076881275  0.9672972555817266  1.0000
  C   C6        1.0  0.42968808935044234  0.4999926912183812  0.035923156759707794  1.0000
  C   C7        1.0  0.5806818274803192  0.8391755036784687  0.4519937692459948  1.0000
  C   C8        1.0  0.4199184417673649  0.1611225264972589  0.5475348562298947  1.0000
  C   C9        1.0  0.41990602679181427  0.8388924714498318  0.5475347263308235  1.0000
  C   C10       1.0  0.5806933978746186  0.1608251828853824  0.451992799782623  1.0000
  C   C11       1.0  0.5773280100252052  0.7575822590796478  0.4540148420288119  1.0000
  C   C12       1.0  0.42347423857540883  0.24269173771950392  0.5451945386751973  1.0000
  C   C13       1.0  0.42344929045566465  0.7573221366732241  0.5451932177072079  1.0000
  C   C14       1.0  0.5773484788611682  0.2424189695782317  0.4540134425024434  1.0000
  C   C15       1.0  0.5002944307904471  0.8813694734529136  0.49989669999516195  1.0000
  C   C16       1.0  0.5003004465580291  0.11863953983863952  0.49989656987293074  1.0000
  C   C17       1.0  0.5001293961003269  0.9642823170450044  0.5000106862640832  1.0000
  C   C18       1.0  0.5001286021502054  0.0357278663740104  0.500009866461056  1.0000
  C   C19       1.0  0.7368185000769644  0.49998242268657117  0.5023542888154748  1.0000
  C   C20       1.0  0.2670845444284566  0.5000019795838924  0.4974576990184403  1.0000
  C   C21       1.0  0.8698045218233474  0.4999334675778401  0.640740707817578  1.0000
  C   C22       1.0  0.1341575166539997  0.5000503480305056  0.35918705786775  1.0000
  C   C23       1.0  0.1263674975322076  0.4999638203861352  0.6380308636657475  1.0000
  C   C24       1.0  0.8776552267042419  0.5000282030348729  0.3618458352317546  1.0000
  C   C25       1.0  0.9312453141860003  0.49991338754874454  0.7066430441065065  1.0000
  C   C26       1.0  0.07290409019617529  0.5000628078435554  0.2932375820109812  1.0000
  C   C27       1.0  0.060981039669023594  0.4999386180867236  0.7053109541029414  1.0000
  C   C28       1.0  0.9431709105442393  0.5000534056469378  0.29458816146368594  1.0000
  C   C29       1.0  0.0659220266790754  0.49997161387157985  0.5681937887695269  1.0000
  C   C30       1.0  0.9380449067469386  0.5000157193608957  0.4317007516477957  1.0000
  C   C31       1.0  0.9342806036201096  0.49996396342151433  0.5696512975747154  1.0000
  C   C32       1.0  0.06966264565046741  0.5000227835031765  0.43024141710311875  1.0000
  C   C33       1.0  0.1303221085386284  0.5000021020476526  0.4984851778647155  1.0000
  C   C34       1.0  0.8736066315912225  0.4999846448692509  0.5013999313601545  1.0000
  C   C35       1.0  0.4483691818464237  0.5713089666767459  0.847535462179863  1.0000
  C   C36       1.0  0.4465484430746685  0.4286727113344071  0.154907050993863  1.0000
  C   C37       1.0  0.4463540704796572  0.5713079883923413  0.15491953725331337  1.0000
  C   C38       1.0  0.44837563859505986  0.4287112081754644  0.847534178254854  1.0000
  C   C39       1.0  0.4657652301492589  0.5710344960790934  0.7698912461408084  1.0000
  C   C40       1.0  0.46400700576165116  0.4289730974094397  0.23176783063252768  1.0000
  C   C41       1.0  0.4638153975026924  0.5710115839478719  0.2317830852992344  1.0000
  C   C42       1.0  0.4657752866509313  0.4289895602402467  0.769889328044762  1.0000
  C   C43       1.0  0.4752577130492739  0.5000125653276016  0.7303531896940924  1.0000
  C   C44       1.0  0.47382606388721626  0.49999392290779104  0.2708374346131635  1.0000
  Br  Br1       1.0  0.6885456531761706  0.7057085246144651  0.38793405553428056  1.0000
  Br  Br2       1.0  0.3108454115478594  0.294644614466371  0.6103719713861366  1.0000
  Br  Br3       1.0  0.3107977858077646  0.7053848062224901  0.6103574919027395  1.0000
  Br  Br4       1.0  0.6885716270027515  0.2942800891939826  0.3879326421553415  1.0000
  N   N1        1.0  0.5006003300113733  0.7156786212216487  0.4996236600774893  1.0000
  N   N2        1.0  0.5006318503581256  0.28432805218086094  0.4996241405934541  1.0000
  O   O1        1.0  0.5013164943389228  0.5666486856426189  0.3855149657848358  1.0000
  O   O2        1.0  0.4980740889996937  0.4333691176631262  0.6141896201490908  1.0000
  O   O3        1.0  0.49806397391506607  0.5666626892717376  0.6141905510227017  1.0000
  O   O4        1.0  0.5013475533581371  0.433346320517721  0.3855164711589651  1.0000
  O   O5        1.0  0.6852909624407529  0.5666562966382074  0.5022226164647845  1.0000
  O   O6        1.0  0.3186296331320477  0.4333415897749973  0.49747672629214884  1.0000
  O   O7        1.0  0.3186176691537241  0.5666609558471193  0.49747993628494674  1.0000
  O   O8        1.0  0.6853118830599172  0.43329706631015347  0.5022355361898221  1.0000
