data_image0
_chemical_formula_structural       ZnAg2H32C28N10O4
_chemical_formula_sum              "Zn1 Ag2 H32 C28 N10 O4"
_cell_length_a       7.178723475324889
_cell_length_b       9.509892053847796
_cell_length_c       12.47938694071572
_cell_angle_alpha    98.63793733535735
_cell_angle_beta     95.49720765508373
_cell_angle_gamma    114.09459856676439

_space_group_name_H-M_alt    "P 1"
_space_group_IT_number       1

loop_
  _space_group_symop_operation_xyz
  'x, y, z'

loop_
  _atom_site_type_symbol
  _atom_site_label
  _atom_site_symmetry_multiplicity
  _atom_site_fract_x
  _atom_site_fract_y
  _atom_site_fract_z
  _atom_site_occupancy
  Zn  Zn1       1.0  0.5000037776327276  4.5469166570176755e-07  0.9999995701915765  1.0000
  Ag  Ag1       1.0  0.7518064499967352  0.5549948659929953  0.9479036029310779  1.0000
  Ag  Ag2       1.0  0.24819411555538548  0.4449997466860509  0.0520982122577109  1.0000
  H   H1        1.0  0.40707294802382427  0.05971819720986099  0.23174870907949705  1.0000
  H   H2        1.0  0.592932572726802  0.9402777195530161  0.7682511664977412  1.0000
  H   H3        1.0  0.6026011785696637  0.17102631500477367  0.4238761985427502  1.0000
  H   H4        1.0  0.3974062789070344  0.8289731337771682  0.5761242406026525  1.0000
  H   H5        1.0  0.15578146528654457  0.20943243538545178  0.29314052967915677  1.0000
  H   H6        1.0  0.8442236754535273  0.7905704705257081  0.7068610073510585  1.0000
  H   H7        1.0  0.9348816193529216  0.0991408491834846  0.10633029804291992  1.0000
  H   H8        1.0  0.06512361061702887  0.9008596924420474  0.8936717472702754  1.0000
  H   H9        1.0  0.21963367774277015  0.6011919365102398  0.7341892369699821  1.0000
  H   H10       1.0  0.7803658572342441  0.3988109300444478  0.265811153806311  1.0000
  H   H11       1.0  0.22244996716956675  0.4932361279035503  0.8381446359030775  1.0000
  H   H12       1.0  0.7775414078232006  0.5067620158630676  0.16185306061959182  1.0000
  H   H13       1.0  0.9868341196396457  0.494075660748578  0.7818665889783105  1.0000
  H   H14       1.0  0.013159926884426925  0.5059248280911746  0.21813236725156326  1.0000
  H   H15       1.0  0.7980405843551138  0.2077114041670711  0.7262366592733969  1.0000
  H   H16       1.0  0.2019555773547808  0.7922878881205121  0.2737638770906018  1.0000
  H   H17       1.0  0.01427021019060959  0.19189376607171477  0.7941465370952443  1.0000
  H   H18       1.0  0.98573281536364  0.8081103363916142  0.2058534198008459  1.0000
  H   H19       1.0  0.9061247166089997  0.09035387586924058  0.6542779644992507  1.0000
  H   H20       1.0  0.09387837009489168  0.9096478363813246  0.3457232972553044  1.0000
  H   H21       1.0  0.5730178687061451  0.47672632212830013  0.5971872127341342  1.0000
  H   H22       1.0  0.4269749428276696  0.5232718638863716  0.40280977463266515  1.0000
  H   H23       1.0  0.5190615439169335  0.5625130835609867  0.7196772014731608  1.0000
  H   H24       1.0  0.4809338779985382  0.43748983773957656  0.28031974074238525  1.0000
  H   H25       1.0  0.3919297771346777  0.5616464966702281  0.5894018783967638  1.0000
  H   H26       1.0  0.608059426511808  0.4383527917942799  0.410595831142743  1.0000
  H   H27       1.0  0.2519539893415228  0.12229729852230516  0.6967891473335327  1.0000
  H   H28       1.0  0.7480488958115642  0.8777066743053014  0.3032147924399525  1.0000
  H   H29       1.0  0.421208484854084  0.3030135465594909  0.7880593387239401  1.0000
  H   H30       1.0  0.578794951655297  0.6969964099604766  0.2119413826132046  1.0000
  H   H31       1.0  0.4995392135507474  0.23854983645202305  0.6663488724153624  1.0000
  H   H32       1.0  0.5004629598881535  0.7614577913157133  0.3336506766341927  1.0000
  C   C1        1.0  0.7494790956480344  0.34041146050480353  0.9492482877200034  1.0000
  C   C2        1.0  0.2505371083634671  0.6595810192728351  0.05075340421652191  1.0000
  C   C3        1.0  0.7125560317345361  0.7550191551296024  0.9504903783440144  1.0000
  C   C4        1.0  0.28744406171280446  0.244971993705569  0.0495093675452551  1.0000
  C   C5        1.0  0.5732240330409439  0.09452774494454988  0.24967421101915488  1.0000
  C   C6        1.0  0.42677864270781646  0.9054681132493769  0.7503262862943388  1.0000
  C   C7        1.0  0.6831612274682684  0.15633277859410546  0.35650826099968924  1.0000
  C   C8        1.0  0.31684611269832175  0.843669008546314  0.6434924664382109  1.0000
  C   C9        1.0  0.8979353853040948  0.20051204049179464  0.3742918857641514  1.0000
  C   C10       1.0  0.10206933949164905  0.7994874534297833  0.6257059888155966  1.0000
  C   C11       1.0  0.9908799786819883  0.1784474555358031  0.2830999243108678  1.0000
  C   C12       1.0  0.009127478794717118  0.8215519932461318  0.716900514834535  1.0000
  C   C13       1.0  0.8686380561199628  0.1168134068960711  0.17927619719811366  1.0000
  C   C14       1.0  0.13136394098402346  0.8831836900980788  0.8207220108253922  1.0000
  C   C15       1.0  0.01876384535482599  0.2634902995895843  0.484648432078231  1.0000
  C   C16       1.0  0.9812303515487739  0.7365054347517912  0.5153523372930806  1.0000
  C   C17       1.0  0.08624908272650336  0.34654369837673465  0.6774948072554141  1.0000
  C   C18       1.0  0.9137469897535125  0.653457958196469  0.3225052208256045  1.0000
  C   C19       1.0  0.27973746816518735  0.33394317774035187  0.6392281426055392  1.0000
  C   C20       1.0  0.7202594514409882  0.6660573955954946  0.3607693953126018  1.0000
  C   C21       1.0  0.131994299776835  0.49338875595108767  0.7620860346767202  1.0000
  C   C22       1.0  0.8680025967382929  0.5066093493905655  0.237915197826311  1.0000
  C   C23       1.0  0.9425623175062581  0.1987967546670077  0.7145596197630371  1.0000
  C   C24       1.0  0.05743521959504241  0.801204970081386  0.28543890258663407  1.0000
  C   C25       1.0  0.45100331050205955  0.4944027470515662  0.6352646834075983  1.0000
  C   C26       1.0  0.5489887100660623  0.5055965740547491  0.36473320097112355  1.0000
  C   C27       1.0  0.3669302973305122  0.242696264020573  0.7011797247740504  1.0000
  C   C28       1.0  0.6330711462923374  0.7573101086260434  0.298822026145892  1.0000
  N   N1        1.0  0.7249418159983847  0.2130323156599161  0.9571669789109978  1.0000
  N   N2        1.0  0.2750679813059874  0.7869661439870084  0.0428286677647023  1.0000
  N   N3        1.0  0.6781071304900124  0.8658224414816045  0.9560159254489522  1.0000
  N   N4        1.0  0.3218969817997959  0.13417345896036892  0.043983862708671516  1.0000
  N   N5        1.0  0.6639275363024382  0.07619879505303119  0.16253835509351694  1.0000
  N   N6        1.0  0.3360778671380871  0.9237994600683237  0.8374618087762189  1.0000
  N   N7        1.0  0.9713953656123947  0.3453297631282553  0.5687759193864679  1.0000
  N   N8        1.0  0.0286020541787976  0.6546742999786159  0.4312228912557004  1.0000
  N   N9        1.0  0.18847398679951513  0.2442807474507589  0.5214572369333013  1.0000
  N   N10       1.0  0.8115256985570338  0.7557173646055515  0.4785449669844298  1.0000
  O   O1        1.0  0.8283886875137654  0.392213837129411  0.5623616957497078  1.0000
  O   O2        1.0  0.17160019440746038  0.6077772329928378  0.4376357576317248  1.0000
  O   O3        1.0  0.2739930200624912  0.16996634979218328  0.46595018360287815  1.0000
  O   O4        1.0  0.7260050502932386  0.8300364485873217  0.5340517129047627  1.0000
