data_image0
_chemical_formula_structural       Nd2H32C24N6O22
_chemical_formula_sum              "Nd2 H32 C24 N6 O22"
_cell_length_a       9.152408892199688
_cell_length_b       8.683733032996422
_cell_length_c       12.85315238180715
_cell_angle_alpha    103.57700729266978
_cell_angle_beta     100.9405965229167
_cell_angle_gamma    115.94433669000428

_space_group_name_H-M_alt    "P 1"
_space_group_IT_number       1

loop_
  _space_group_symop_operation_xyz
  'x, y, z'

loop_
  _atom_site_type_symbol
  _atom_site_label
  _atom_site_symmetry_multiplicity
  _atom_site_fract_x
  _atom_site_fract_y
  _atom_site_fract_z
  _atom_site_occupancy
  Nd  Nd1       1.0  0.2872059508085271  0.027318436799802698  0.990764855457584  1.0000
  Nd  Nd2       1.0  0.7124423843353539  0.9721062568735804  0.009117204720261868  1.0000
  H   H1        1.0  0.19342472038407274  0.794273156251478  0.11240817967086501  1.0000
  H   H2        1.0  0.8066199593504848  0.20612844237317063  0.8876053858339643  1.0000
  H   H3        1.0  0.0846299586167021  0.6385451919908292  0.990864050980157  1.0000
  H   H4        1.0  0.9139098246426015  0.3597863811550043  0.009825404100972409  1.0000
  H   H5        1.0  0.14896571472338846  0.15739181375236205  0.8235372207592133  1.0000
  H   H6        1.0  0.8510220198965754  0.8425889655030264  0.17652283685833228  1.0000
  H   H7        1.0  0.0935450543668495  0.22111481591662144  0.9270200397309835  1.0000
  H   H8        1.0  0.9065557956501067  0.7789313388335517  0.07307345870351863  1.0000
  H   H9        1.0  0.5677951963772044  0.1263132385131485  0.3935899905153518  1.0000
  H   H10       1.0  0.43226385102681053  0.8736711080772678  0.6064593455685949  1.0000
  H   H11       1.0  0.4163917183931148  0.8928679227713944  0.34800153623903185  1.0000
  H   H12       1.0  0.5836573333687909  0.10709806506532263  0.6519961241331272  1.0000
  H   H13       1.0  0.6492388876796724  0.9227866782976407  0.4814469932530229  1.0000
  H   H14       1.0  0.3507970772057973  0.07720114248888882  0.5186111216509771  1.0000
  H   H15       1.0  0.6749411613728142  0.8337084664572815  0.3501297276815123  1.0000
  H   H16       1.0  0.3251012609522732  0.16625427191073072  0.6499318355965754  1.0000
  H   H17       1.0  0.03274768774614504  0.5818943227956269  0.6950544420565448  1.0000
  H   H18       1.0  0.9672343798357658  0.4180872007922646  0.30493718872877906  1.0000
  H   H19       1.0  0.24173041909948284  0.6683016463553104  0.683167679986333  1.0000
  H   H20       1.0  0.7582484439219854  0.3317299136221622  0.3168278076022799  1.0000
  H   H21       1.0  0.21248420620864283  0.3822282385652471  0.7559022817243031  1.0000
  H   H22       1.0  0.7873417823905768  0.6176727491203805  0.24408699164472122  1.0000
  H   H23       1.0  0.09134518923212205  0.45241391436358924  0.8263353097981676  1.0000
  H   H24       1.0  0.9087779035551901  0.547842651383519  0.1737811012391716  1.0000
  H   H25       1.0  0.38644265669560696  0.31680707694175686  0.44481395744886487  1.0000
  H   H26       1.0  0.6135268200178243  0.6832307649177451  0.5551040395348392  1.0000
  H   H27       1.0  0.2243368175868951  0.10206889050741812  0.3363773857227485  1.0000
  H   H28       1.0  0.7756096380795511  0.8979572828842919  0.663558819144093  1.0000
  H   H29       1.0  0.39280935367549563  0.3782207900853081  0.2764849956248624  1.0000
  H   H30       1.0  0.6070617123464288  0.6218476804196698  0.7234627036280726  1.0000
  H   H31       1.0  0.2697999086446146  0.4711331941811495  0.32914881191362605  1.0000
  H   H32       1.0  0.7300147158840886  0.5288507915527135  0.6707989914351699  1.0000
  C   C1        1.0  0.5257112528284793  0.9750698027500491  0.2240126091820399  1.0000
  C   C2        1.0  0.47446826302650874  0.0249781627836043  0.7760546513995121  1.0000
  C   C3        1.0  0.5428963843354635  0.9888909506011528  0.34632588634944017  1.0000
  C   C4        1.0  0.45718599488874634  0.011099672819732094  0.6537192708723436  1.0000
  C   C5        1.0  0.6767964808191351  0.9510301157306885  0.40650843755619787  1.0000
  C   C6        1.0  0.3232492037452843  0.0489436081272459  0.5935513509916317  1.0000
  C   C7        1.0  0.9022363215387371  0.25508017900677527  0.5429768586648362  1.0000
  C   C8        1.0  0.097792626310735  0.7449184638240711  0.4570421429058839  1.0000
  C   C9        1.0  0.1895406223193206  0.4026434584063879  0.5254717966105672  1.0000
  C   C10       1.0  0.8104733422969447  0.5973843797837619  0.47452054195731813  1.0000
  C   C11       1.0  0.9726734750584284  0.0884265406475535  0.39741281197318296  1.0000
  C   C12       1.0  0.027342957758563366  0.9115697282606593  0.6026125471909012  1.0000
  C   C13       1.0  0.13383610405457352  0.5498039287313646  0.6872045656028261  1.0000
  C   C14       1.0  0.866172837632547  0.45021449044365625  0.3128011930254856  1.0000
  C   C15       1.0  0.19225291430373662  0.49708800494506283  0.787515798123202  1.0000
  C   C16       1.0  0.8077671309463594  0.5029580085283101  0.2125034873475896  1.0000
  C   C17       1.0  0.3610076471935315  0.6523534129705767  0.8753861751455358  1.0000
  C   C18       1.0  0.6391628134545254  0.3475296526335682  0.12454705384617165  1.0000
  C   C19       1.0  0.2608064920807678  0.24517809896599377  0.37801193916995135  1.0000
  C   C20       1.0  0.7391375023196786  0.754845365862842  0.6219242773108318  1.0000
  C   C21       1.0  0.27103349219131456  0.3440977668931779  0.2927437340337561  1.0000
  C   C22       1.0  0.7288170077820267  0.6559128774539007  0.7071923249402088  1.0000
  C   C23       1.0  0.12361060888899537  0.21845943245370586  0.18176238899270905  1.0000
  C   C24       1.0  0.8763259390467795  0.7815593730004553  0.8181136719093228  1.0000
  N   N1        1.0  0.8553992563593694  0.10644781744218082  0.44637263603814137  1.0000
  N   N2        1.0  0.14463561502138583  0.8935190820773186  0.553672089126273  1.0000
  N   N3        1.0  0.07006649860502276  0.3999888852884225  0.5784998628838663  1.0000
  N   N4        1.0  0.9299527732737256  0.6000168467994554  0.4215109819606936  1.0000
  N   N5        1.0  0.13379882667391024  0.24429396679197174  0.43377372829578315  1.0000
  N   N6        1.0  0.8661839960210286  0.7557109670144799  0.5662059330587325  1.0000
  O   O1        1.0  0.3983720383943776  0.9856611132636104  0.1715253101292119  1.0000
  O   O2        1.0  0.6019402952826878  0.014540150453846908  0.8285501381359522  1.0000
  O   O3        1.0  0.6348372302704988  0.9580913370331601  0.18254746748824854  1.0000
  O   O4        1.0  0.3652850145094888  0.04181095179798431  0.8175013343328101  1.0000
  O   O5        1.0  0.36497421062928476  0.7921308896581819  0.942390257577969  1.0000
  O   O6        1.0  0.635648519540723  0.20807180642670886  0.05754761794432276  1.0000
  O   O7        1.0  0.49753381327658985  0.647097011192848  0.8804631560272466  1.0000
  O   O8        1.0  0.5024346620184161  0.352323885372023  0.11945085468595096  1.0000
  O   O9        1.0  0.14596614175748357  0.11247712710805763  0.10836715962653899  1.0000
  O   O10       1.0  0.8540388019812042  0.887430722442666  0.8916589129015048  1.0000
  O   O11       1.0  0.980759349918557  0.2158548398619757  0.16885511843025813  1.0000
  O   O12       1.0  0.01920341996840591  0.7843353041182225  0.8307903966976152  1.0000
  O   O13       1.0  0.9377957853654522  0.9419877365658637  0.32744092480769627  1.0000
  O   O14       1.0  0.062217980592109305  0.057989065081329706  0.67257336293013  1.0000
  O   O15       1.0  0.8012996423299582  0.257730070075219  0.5932305107247371  1.0000
  O   O16       1.0  0.19870773175856735  0.7422787560552707  0.4067813709614966  1.0000
  O   O17       1.0  0.33623638804063916  0.5350067544643694  0.5586044333452873  1.0000
  O   O18       1.0  0.6637404914127387  0.4650078472971373  0.44135866840753823  1.0000
  O   O19       1.0  0.08052919642679521  0.7286364512286314  0.05009033824424589  1.0000
  O   O20       1.0  0.9201061968939397  0.27322417427243545  0.9495030649909209  1.0000
  O   O21       1.0  0.18712513691988156  0.20777534660771116  0.9071006426584841  1.0000
  O   O22       1.0  0.8128907220732131  0.792145104535834  0.09296082179758966  1.0000
