data_image0
_chemical_formula_structural       Cu2P2H22C27N2
_chemical_formula_sum              "Cu2 P2 H22 C27 N2"
_cell_length_a       8.174463578367158
_cell_length_b       9.10042896340527
_cell_length_c       9.35012671587687
_cell_angle_alpha    105.1066242912464
_cell_angle_beta     115.89915419897457
_cell_angle_gamma    89.99078004888374

_space_group_name_H-M_alt    "P 1"
_space_group_IT_number       1

loop_
  _space_group_symop_operation_xyz
  'x, y, z'

loop_
  _atom_site_type_symbol
  _atom_site_label
  _atom_site_symmetry_multiplicity
  _atom_site_fract_x
  _atom_site_fract_y
  _atom_site_fract_z
  _atom_site_occupancy
  Cu  Cu1       1.0  0.7922973446925354  0.032964297781546685  0.3566008925380756  1.0000
  Cu  Cu2       1.0  0.43572310120057994  0.966940730450105  0.6435012980392116  1.0000
  P   P1        1.0  0.6277790594450893  0.8675189003799488  0.8370880045051833  1.0000
  P   P2        1.0  0.79080058536438  0.13260712611766926  0.1631248435933656  1.0000
  H   H1        1.0  0.8827418347132509  0.06443383350077171  0.9382010803547017  1.0000
  H   H2        1.0  0.9445910063800796  0.935625686970795  0.06173844788850127  1.0000
  H   H3        1.0  0.459633911216983  0.1755990160735195  0.19509802598071246  1.0000
  H   H4        1.0  0.26454764999023445  0.8244114137649844  0.8045990349096925  1.0000
  H   H5        1.0  0.1710556521509474  0.2741110202327661  0.036386345001901105  1.0000
  H   H6        1.0  0.13406254902886164  0.725821742568712  0.962929368131732  1.0000
  H   H7        1.0  0.132551201026196  0.35709542726359433  0.7912779923697499  1.0000
  H   H8        1.0  0.3401200876762972  0.642778122205847  0.20816792626000336  1.0000
  H   H9        1.0  0.3814498634305324  0.3434772585569021  0.7059608125138154  1.0000
  H   H10       1.0  0.6744068338779386  0.6564181341599918  0.2939180738271645  1.0000
  H   H11       1.0  0.6731957577165204  0.2536227318462849  0.868983640537003  1.0000
  H   H12       1.0  0.8036301886758468  0.7463927718881535  0.13126241480458842  1.0000
  H   H13       1.0  0.8211960446876534  0.4646735715460225  0.17294280499280026  1.0000
  H   H14       1.0  0.6483785645280092  0.5355960331063869  0.8273146501767881  1.0000
  H   H15       1.0  0.09155477082841663  0.6659750345217076  0.3104808349600674  1.0000
  H   H16       1.0  0.7811530821405485  0.33412508358926374  0.6897577903008809  1.0000
  H   H17       1.0  0.40497747213837704  0.6002932874180757  0.46121030944397023  1.0000
  H   H18       1.0  0.9438730710837292  0.39953484527217153  0.5388507218694015  1.0000
  H   H19       1.0  0.4475346252539581  0.3309654387577936  0.4703266591207295  1.0000
  H   H20       1.0  0.9776353014568786  0.6688503876339168  0.5298483778539093  1.0000
  H   H21       1.0  0.18038258404703814  0.1325614379167206  0.34200827326659317  1.0000
  H   H22       1.0  0.838980284002979  0.8674886706096956  0.6582799289198463  1.0000
  C   C1        1.0  0.645354986081479  0.047972659706204  0.4661974007638533  1.0000
  C   C2        1.0  0.17924784506681854  0.9518702563492596  0.533763054177129  1.0000
  C   C3        1.0  0.8345672963847194  7.038713135899932e-05  7.283277525265036e-05  1.0000
  C   C4        1.0  0.5854914176517455  0.2092292402549276  0.04402468217966062  1.0000
  C   C5        1.0  0.5412558042216348  0.7908394880184986  0.9560179446974785  1.0000
  C   C6        1.0  0.4426829890622486  0.2146845518958003  0.08918205571682583  1.0000
  C   C7        1.0  0.3532395344333851  0.7853271494767924  0.9105911227147204  1.0000
  C   C8        1.0  0.2801636030863506  0.26811391380437744  0.998495232105938  1.0000
  C   C9        1.0  0.2810700491627074  0.7318882775455221  0.001081150636799963  1.0000
  C   C10       1.0  0.2588256633652577  0.3148890070139387  0.8615181695386267  1.0000
  C   C11       1.0  0.3963937579003556  0.6850643441739093  0.13812614051533958  1.0000
  C   C12       1.0  0.3995865985425554  0.3084308145472434  0.8142770564337096  1.0000
  C   C13       1.0  0.5844153859733867  0.6915100468375783  0.1855840948366207  1.0000
  C   C14       1.0  0.5628232469759311  0.25614770374650664  0.9050720932465024  1.0000
  C   C15       1.0  0.6571648598335713  0.7438530481933867  0.09499700826427217  1.0000
  C   C16       1.0  0.9817317865352139  0.2849276213034102  0.24714327179786724  1.0000
  C   C17       1.0  0.7348959090253119  0.7152454460527409  0.7531224717305561  1.0000
  C   C18       1.0  0.9584623280732317  0.4353608724241411  0.2379106468634333  1.0000
  C   C19       1.0  0.7207299581329778  0.5648106555627095  0.7623123623702666  1.0000
  C   C20       1.0  0.11049931371648111  0.5482509409117852  0.3145612295744229  1.0000
  C   C21       1.0  0.7961217532293362  0.4518207379221765  0.6856417499878233  1.0000
  C   C22       1.0  0.2864543790003538  0.5117619600861119  0.3996336644219268  1.0000
  C   C23       1.0  0.8870231143172518  0.48815725843111574  0.6004732887868514  1.0000
  C   C24       1.0  0.3106936143170316  0.3612650495047731  0.40629753078618336  1.0000
  C   C25       1.0  0.9047275217822917  0.638653848844271  0.5938651075549402  1.0000
  C   C26       1.0  0.15951909190943067  0.2484607140746604  0.331674077537933  1.0000
  C   C27       1.0  0.8282600152736351  0.7515847544801771  0.6685730249121491  1.0000
  N   N1        1.0  0.5643807202758778  0.046294427411211814  0.5436027356692603  1.0000
  N   N2        1.0  0.02091871525786358  0.9536441419791827  0.4563298234887012  1.0000
