data_image0
_chemical_formula_structural       CdH28C26S2N8Cl2
_chemical_formula_sum              "Cd1 H28 C26 S2 N8 Cl2"
_cell_length_a       7.9096604552021565
_cell_length_b       9.048840390909954
_cell_length_c       12.143204660588765
_cell_angle_alpha    68.151231987408
_cell_angle_beta     82.6174459345592
_cell_angle_gamma    69.91422957640701

_space_group_name_H-M_alt    "P 1"
_space_group_IT_number       1

loop_
  _space_group_symop_operation_xyz
  'x, y, z'

loop_
  _atom_site_type_symbol
  _atom_site_label
  _atom_site_symmetry_multiplicity
  _atom_site_fract_x
  _atom_site_fract_y
  _atom_site_fract_z
  _atom_site_occupancy
  Cd  Cd1       1.0  0.49999592477761456  2.1576467262096692e-06  1.1785651423875892e-06  1.0000
  H   H1        1.0  0.6858455204004698  0.688101305716195  0.21794928165179767  1.0000
  H   H2        1.0  0.31375668780492555  0.09403690332758427  0.2184525435089881  1.0000
  H   H3        1.0  0.3141489622200525  0.3119029892552661  0.782053490920468  1.0000
  H   H4        1.0  0.6862309327616383  0.9059692515806643  0.781558355733644  1.0000
  H   H5        1.0  0.6369974211628957  0.4570300332390715  0.3987991278855745  1.0000
  H   H6        1.0  0.3628051312296919  0.14425547705068448  0.39929441619810296  1.0000
  H   H7        1.0  0.3629948601149237  0.5429744310604719  0.6012023190433383  1.0000
  H   H8        1.0  0.6371967379179679  0.8557533268383393  0.6007086656648326  1.0000
  H   H9        1.0  0.3250413514450725  0.42669315019205817  0.4337707578838703  1.0000
  H   H10       1.0  0.6748508232237495  0.13976927922048804  0.433867492080843  1.0000
  H   H11       1.0  0.674957967832505  0.5733027055825984  0.5662291035354272  1.0000
  H   H12       1.0  0.3251563649730471  0.860226787354584  0.5661356160356019  1.0000
  H   H13       1.0  0.15881762610015926  0.8475025477911869  0.10851564605978568  1.0000
  H   H14       1.0  0.8406704880743515  0.04440144202911261  0.10824154239205798  1.0000
  H   H15       1.0  0.8411766932532883  0.1524947666722836  0.8914865879348853  1.0000
  H   H16       1.0  0.15931859576885876  0.9555997458837598  0.8917570713735258  1.0000
  H   H17       1.0  0.9979853745918484  0.5771537007397355  0.38371691826134224  1.0000
  H   H18       1.0  0.002194042941916083  0.03896572011448283  0.38330746287229545  1.0000
  H   H19       1.0  0.0020117213497953903  0.42284316793651294  0.6162807998695072  1.0000
  H   H20       1.0  0.997814339732322  0.9610281063952967  0.6166855975199894  1.0000
  H   H21       1.0  0.9339844322987857  0.7420981902782273  0.24338012609708662  1.0000
  H   H22       1.0  0.06562652936170107  0.014812577655945302  0.24269928955359182  1.0000
  H   H23       1.0  0.06601612987667953  0.2578992278546152  0.7566181874442037  1.0000
  H   H24       1.0  0.9343628721476663  0.9851915921318974  0.757286672255269  1.0000
  H   H25       1.0  0.991899647272049  0.5486080917908893  0.15070872658234435  1.0000
  H   H26       1.0  0.007738647347132137  0.30081103194407177  0.15051582785109466  1.0000
  H   H27       1.0  0.008096243418798036  0.45139239192819514  0.8492891734251274  1.0000
  H   H28       1.0  0.9922592750799878  0.6991891664869814  0.8494798579305609  1.0000
  C   C1        1.0  0.5549086639621307  0.6691841125940171  0.23703764239441938  1.0000
  C   C2        1.0  0.4447115575596001  0.09395705828504215  0.23736329272585271  1.0000
  C   C3        1.0  0.44508361731568863  0.33082035170552615  0.7629638045344934  1.0000
  C   C4        1.0  0.5552804172719233  0.9060449555435566  0.7626417579573469  1.0000
  C   C5        1.0  0.5259980079643894  0.5409704176320034  0.3373640031902099  1.0000
  C   C6        1.0  0.4737341267073914  0.12186804800197858  0.337673551208546  1.0000
  C   C7        1.0  0.4739929644358653  0.45903501502989047  0.6626365386814328  1.0000
  C   C8        1.0  0.5262694300831467  0.8781328427270623  0.6623322861842381  1.0000
  C   C9        1.0  0.3551722414724948  0.523803108770771  0.35583758910022567  1.0000
  C   C10       1.0  0.6446103207403695  0.12062927169132827  0.35595218974020776  1.0000
  C   C11       1.0  0.6448253305218828  0.47619632633637105  0.6441600651455204  1.0000
  C   C12       1.0  0.3553908274539451  0.8793664950048451  0.6440501481414458  1.0000
  C   C13       1.0  0.21885182267437378  0.6338179465783327  0.2732314082273745  1.0000
  C   C14       1.0  0.7808913196904895  0.09312536077484175  0.2731621426175792  1.0000
  C   C15       1.0  0.7811448412009908  0.36617466852001007  0.726768009078782  1.0000
  C   C16       1.0  0.21910901767221697  0.9068730971410518  0.7268400439667887  1.0000
  C   C17       1.0  0.26089980263567736  0.7580070880809727  0.1750721342392154  1.0000
  C   C18       1.0  0.738706962388086  0.06710180857447771  0.1750206463996733  1.0000
  C   C19       1.0  0.7390991002294809  0.24199053509030227  0.8249272427088953  1.0000
  C   C20       1.0  0.2612823130547782  0.9328986517248339  0.8249823248801817  1.0000
  C   C21       1.0  0.03225688208066659  0.6189356783299758  0.28895601011891603  1.0000
  C   C22       1.0  0.9675812334579206  0.09214017763240183  0.2886155692475896  1.0000
  C   C23       1.0  0.9677389269766431  0.3810613151351134  0.7110416205997652  1.0000
  C   C24       1.0  0.03242002958302939  0.9078587671482693  0.7113788073655131  1.0000
  C   C25       1.0  3.297376371594734e-05  0.34720815758092266  0.3053135314771112  1.0000
  C   C26       1.0  0.9999628572868172  0.6527879923106569  0.6946849168866577  1.0000
  S   S1        1.0  0.000299079295480534  0.2719083591102276  0.45550851039048007  1.0000
  S   S2        1.0  0.9996946540391177  0.7280906067899126  0.5444896992638347  1.0000
  N   N1        1.0  0.4250073660733307  0.7762482500683561  0.15726592372261894  1.0000
  N   N2        1.0  0.5745261741870562  0.06673089946768583  0.1573750680824872  1.0000
  N   N3        1.0  0.5749865745147885  0.22375600919274788  0.8427344597994731  1.0000
  N   N4        1.0  0.4254652586120641  0.933271078650563  0.8426275935505315  1.0000
  N   N5        1.0  0.016409711099747426  0.5000607081771874  0.24019414338832226  1.0000
  N   N6        1.0  0.9834563681149927  0.25971781973318303  0.24004241043265745  1.0000
  N   N7        1.0  0.9835870124159312  0.49993624074866033  0.7598047255615298  1.0000
  N   N8        1.0  0.016539002536674764  0.7402817847020343  0.7599539181697351  1.0000
  Cl  Cl1       1.0  0.8464683236159942  0.8058638233159882  0.00011354059365214875  1.0000
  Cl  Cl2       1.0  0.15352333399588483  0.1941371150192096  0.9998852479962892  1.0000
