data_image0
_chemical_formula_structural       Mn4H88C96N8O16
_chemical_formula_sum              "Mn4 H88 C96 N8 O16"
_cell_length_a       13.443519113958892
_cell_length_b       13.792472477150875
_cell_length_c       16.313437519696382
_cell_angle_alpha    108.98548251298271
_cell_angle_beta     89.94303022849776
_cell_angle_gamma    119.16921825325647

_space_group_name_H-M_alt    "P 1"
_space_group_IT_number       1

loop_
  _space_group_symop_operation_xyz
  'x, y, z'

loop_
  _atom_site_type_symbol
  _atom_site_label
  _atom_site_symmetry_multiplicity
  _atom_site_fract_x
  _atom_site_fract_y
  _atom_site_fract_z
  _atom_site_occupancy
  Mn  Mn1       1.0  0.9703970592263789  0.41159668574211844  0.866677122715025  1.0000
  Mn  Mn2       1.0  0.5583976243985022  0.5885985442479651  0.6334353247784036  1.0000
  Mn  Mn3       1.0  0.02963483164923997  0.5885157556635718  0.13340800773016784  1.0000
  Mn  Mn4       1.0  0.4415317841021391  0.4113564145480593  0.36654079663478706  1.0000
  H   H1        1.0  0.026226968474368617  0.3819002432158029  0.3112082033922476  1.0000
  H   H2        1.0  0.005383313552911832  0.23567272811071396  0.278148056352471  1.0000
  H   H3        1.0  0.8972042727898567  0.25714897524733965  0.23920144367198048  1.0000
  H   H4        1.0  0.7920964702835106  0.33237823928748605  0.4481237606552355  1.0000
  H   H5        1.0  0.906006204245287  0.44028702577327294  0.4150572803342172  1.0000
  H   H6        1.0  0.7816188070803918  0.31823682803246806  0.3355632125721257  1.0000
  H   H7        1.0  0.7437858489442064  0.10711589054793788  0.291221324886962  1.0000
  H   H8        1.0  0.8471995979746583  0.08067727140383602  0.3323476322131143  1.0000
  H   H9        1.0  0.7622963793240842  0.12088510244933558  0.403543280317237  1.0000
  H   H10       1.0  0.19895918867904075  0.4081617023065789  0.6716070194164915  1.0000
  H   H11       1.0  0.13778771796440742  0.34805378360223926  0.3966932743108913  1.0000
  H   H12       1.0  0.8573393836806602  0.2806463016729026  0.5419170932684736  1.0000
  H   H13       1.0  0.22057864762989965  0.49492530423287207  0.8453080717207586  1.0000
  H   H14       1.0  0.40246525857737947  0.6700507788724294  0.842613489208496  1.0000
  H   H15       1.0  0.2343126079091819  0.8766565618277583  0.9276433975868345  1.0000
  H   H16       1.0  0.058522943353551696  0.6903013783559827  0.9240265782708404  1.0000
  H   H17       1.0  0.42570164151299394  0.9781354317067467  0.9073297346012482  1.0000
  H   H18       1.0  0.5505739563545974  0.8366829498261409  0.846265034351184  1.0000
  H   H19       1.0  0.7079794829206278  0.29923531087488436  0.8636328787273514  1.0000
  H   H20       1.0  0.5367041270709693  0.11407857100908099  0.8659134646142164  1.0000
  H   H21       1.0  0.7600388380387174  0.9689353679310956  0.8590820202007095  1.0000
  H   H22       1.0  0.9233457261461311  0.16352211493466476  0.8584480776100207  1.0000
  H   H23       1.0  0.6436318755979826  0.6182741886305861  0.1886694649860559  1.0000
  H   H24       1.0  0.7690759666763116  0.7644134516548603  0.2216059263971673  1.0000
  H   H25       1.0  0.6394301320538319  0.7431611291448804  0.2606516943263344  1.0000
  H   H26       1.0  0.45943387961214205  0.6681044766903312  0.05192476883174635  1.0000
  H   H27       1.0  0.4652617242224438  0.5601323024666768  0.0849544434015428  1.0000
  H   H28       1.0  0.4630055704629898  0.6823083211770822  0.16451470739243493  1.0000
  H   H29       1.0  0.636652194925077  0.8933403056958011  0.20869475378931668  1.0000
  H   H30       1.0  0.7664055454260037  0.9193377158194165  0.16735180532085542  1.0000
  H   H31       1.0  0.641488214865298  0.8795204417788508  0.09634348553569075  1.0000
  H   H32       1.0  0.7904399359677685  0.5912545008549586  0.8281149314711058  1.0000
  H   H33       1.0  0.7888096580559036  0.6515579787008078  0.10303889807178024  1.0000
  H   H34       1.0  0.5764840092862046  0.7193881336775335  0.9578639300940281  1.0000
  H   H35       1.0  0.7259739528932344  0.5058805678082833  0.6555759550908462  1.0000
  H   H36       1.0  0.7326677964216088  0.330499490160257  0.6579289011822667  1.0000
  H   H37       1.0  0.3582471414779179  0.12379678432942849  0.5719209284959845  1.0000
  H   H38       1.0  0.3688783761638846  0.3102877178585004  0.5758731682690765  1.0000
  H   H39       1.0  0.44791910039268157  0.0223535660331677  0.5924013833636934  1.0000
  H   H40       1.0  0.7140582127194224  0.1635860976458616  0.653788852249086  1.0000
  H   H41       1.0  0.4082370177823549  0.7012021914422631  0.6365394662301114  1.0000
  H   H42       1.0  0.4224086105615897  0.8863530454820248  0.6339608285823033  1.0000
  H   H43       1.0  0.7908292699515372  0.030958365823181594  0.6408902318785579  1.0000
  H   H44       1.0  0.7592832936465684  0.8364747353836607  0.6419022450897459  1.0000
  H   H45       1.0  0.9737856268921093  0.6180738420377806  0.6887981467869153  1.0000
  H   H46       1.0  0.9946330046759544  0.7643013650780258  0.7218589074447408  1.0000
  H   H47       1.0  0.10280860725697509  0.7428241891856331  0.7608028203924775  1.0000
  H   H48       1.0  0.20789229521957966  0.6675972476569995  0.5518553892752962  1.0000
  H   H49       1.0  0.09399018078481453  0.5596813900576975  0.5849261004203896  1.0000
  H   H50       1.0  0.21838882058694525  0.6817243065663945  0.6644096286702847  1.0000
  H   H51       1.0  0.25622107668407784  0.8928721168327342  0.7087611751654066  1.0000
  H   H52       1.0  0.15278982835538119  0.9192921102750802  0.6676409145792803  1.0000
  H   H53       1.0  0.23768986158358982  0.8790823598760082  0.5964355577623195  1.0000
  H   H54       1.0  0.800987686441694  0.59176425465742  0.3283980986807152  1.0000
  H   H55       1.0  0.862209405160094  0.6519116992086252  0.6033346831357846  1.0000
  H   H56       1.0  0.14262200949485046  0.7193250495810586  0.4580842536446638  1.0000
  H   H57       1.0  0.779476193615352  0.5051228661508418  0.15470709402438132  1.0000
  H   H58       1.0  0.597566230320247  0.32997743630705406  0.15737671811205445  1.0000
  H   H59       1.0  0.7657181009974467  0.12336711077595197  0.0723406877114883  1.0000
  H   H60       1.0  0.9415400695078378  0.3097586991221489  0.07601139388983569  1.0000
  H   H61       1.0  0.5743430299077447  0.0219042620800067  0.0926531241481925  1.0000
  H   H62       1.0  0.4494892055242018  0.16337591027828316  0.15374992951691982  1.0000
  H   H63       1.0  0.29207046113579344  0.7008209205905515  0.1363850637817023  1.0000
  H   H64       1.0  0.4633275365461601  0.8859559498880285  0.1340814987344174  1.0000
  H   H65       1.0  0.24001276959737797  0.0311063141994339  0.1409154683868223  1.0000
  H   H66       1.0  0.07670821409428914  0.8365421059465135  0.14156771462126025  1.0000
  H   H67       1.0  0.3563651791565052  0.38170153208056945  0.8113262957868699  1.0000
  H   H68       1.0  0.23091440976262595  0.23555784112765818  0.7783917147939619  1.0000
  H   H69       1.0  0.3605627766549446  0.25681374146726194  0.7393469052854157  1.0000
  H   H70       1.0  0.5405619998986283  0.3318659203362487  0.948072629883029  1.0000
  H   H71       1.0  0.5347377236874068  0.4398363046219983  0.9150424738407635  1.0000
  H   H72       1.0  0.5369900084070807  0.31766296178150094  0.8354823160043522  1.0000
  H   H73       1.0  0.3633588383038671  0.10665147108699807  0.7913022418674203  1.0000
  H   H74       1.0  0.23360130431765924  0.08063081119593109  0.8326395702176512  1.0000
  H   H75       1.0  0.3585200994040394  0.12046142529025163  0.9036459495978235  1.0000
  H   H76       1.0  0.20955405766854804  0.4087284993569184  0.1718913649857399  1.0000
  H   H77       1.0  0.21120868913673976  0.3484722377943541  0.8969665638417084  1.0000
  H   H78       1.0  0.4234670027500158  0.28054011365038173  0.042114214569785695  1.0000
  H   H79       1.0  0.2739555863477463  0.4941193124347264  0.3444256992508842  1.0000
  H   H80       1.0  0.26731681351157033  0.6695108343892997  0.3420559146861848  1.0000
  H   H81       1.0  0.6417194648759551  0.8761567263317716  0.428079310110519  1.0000
  H   H82       1.0  0.6310490299041122  0.6896707450968975  0.4241615176289529  1.0000
  H   H83       1.0  0.5520870219156038  0.9776387749064666  0.4075724708108055  1.0000
  H   H84       1.0  0.28595228321545124  0.8364462198442908  0.3461761039196034  1.0000
  H   H85       1.0  0.5917550516804014  0.2988349605469764  0.3634519278291606  1.0000
  H   H86       1.0  0.577623817697699  0.11369491156988687  0.3660389636492667  1.0000
  H   H87       1.0  0.20917159774872823  0.9690294073186219  0.35907565628734517  1.0000
  H   H88       1.0  0.24071361500350724  0.16352298377702107  0.3580736681642875  1.0000
  C   C1        1.0  0.9617011742945254  0.28721004146796497  0.296800931956561  1.0000
  C   C2        1.0  0.8416981249067634  0.344573898919215  0.395005370729578  1.0000
  C   C3        1.0  0.8080503895121325  0.13674525171986568  0.3490429134072812  1.0000
  C   C4        1.0  0.022114658948318322  0.33908833117970255  0.613295353302  1.0000
  C   C5        1.0  0.13957273483616467  0.37928406918020124  0.6118762235232822  1.0000
  C   C6        1.0  0.18009271741470204  0.38406194367643554  0.5337019251178674  1.0000
  C   C7        1.0  0.10300905304941214  0.3458921734490445  0.4567623989749734  1.0000
  C   C8        1.0  0.9858727676167406  0.30840048110990637  0.457382123949877  1.0000
  C   C9        1.0  0.9472222218002316  0.3066402550608699  0.5371605934725778  1.0000
  C   C10       1.0  0.9801880929333465  0.34054421040639943  0.6983570654007778  1.0000
  C   C11       1.0  0.306001616452008  0.43093444437075584  0.531396435456834  1.0000
  C   C12       1.0  0.9009369289986254  0.27005888967262587  0.37499780995528903  1.0000
  C   C13       1.0  0.22814753856864922  0.5819048771579318  0.8637302804785634  1.0000
  C   C14       1.0  0.3294911253982208  0.6804942204917523  0.8624008660988025  1.0000
  C   C15       1.0  0.334852020277694  0.791006417987532  0.8858724854373605  1.0000
  C   C16       1.0  0.23502769937606885  0.7935615355803023  0.9087643386877743  1.0000
  C   C17       1.0  0.13680620674625038  0.6900509804560001  0.9073057957702061  1.0000
  C   C18       1.0  0.4357292732117629  0.9000967315532477  0.8866788408946961  1.0000
  C   C19       1.0  0.5374802840372511  0.9128496331458749  0.8650119678285932  1.0000
  C   C20       1.0  0.7153405718474773  0.22397874073562454  0.8638668949883977  1.0000
  C   C21       1.0  0.6207938455785679  0.12067363405154197  0.8660156175745328  1.0000
  C   C22       1.0  0.6336779461174658  0.0247979065422541  0.8647804398872196  1.0000
  C   C23       1.0  0.7450671232148168  0.0407479048404298  0.8616385158602  1.0000
  C   C24       1.0  0.8357373604373423  0.14781879672812437  0.8604123647404194  1.0000
  C   C25       1.0  0.6738832462073391  0.7129715316693889  0.20302302956269366  1.0000
  C   C26       1.0  0.4967341360989083  0.6558771387444295  0.10500812773738492  1.0000
  C   C27       1.0  0.6712005789647507  0.8635253590151777  0.15077786426716955  1.0000
  C   C28       1.0  0.682702184460851  0.6605202867719625  0.8864548262906098  1.0000
  C   C29       1.0  0.7598334629954524  0.6201899472511982  0.8878565477815953  1.0000
  C   C30       1.0  0.7954350571055289  0.6154688793111589  0.9660466583246645  1.0000
  C   C31       1.0  0.756392931574901  0.6537430212742449  0.042959548280180136  1.0000
  C   C32       1.0  0.6769225080775387  0.6914581287835659  0.04237040063484446  1.0000
  C   C33       1.0  0.6402159387250564  0.6932101101449534  0.9626072160871928  1.0000
  C   C34       1.0  0.6397002021436438  0.6592428014378556  0.8014343581778931  1.0000
  C   C35       1.0  0.8746405739435374  0.5687481054038059  0.968442138606143  1.0000
  C   C36       1.0  0.6304443316823554  0.7301424922860704  0.12484243149116746  1.0000
  C   C37       1.0  0.6466457166692479  0.41880274882230123  0.6368552986582827  1.0000
  C   C38       1.0  0.6493578813134705  0.32010834606825256  0.6379991202082067  1.0000
  C   C39       1.0  0.544263951755056  0.2095283349166053  0.6141481806590435  1.0000
  C   C40       1.0  0.44199848998666624  0.2069584876560668  0.5910669669162729  1.0000
  C   C41       1.0  0.44733108325446125  0.3105446522266888  0.5927439772016357  1.0000
  C   C42       1.0  0.5359675739531866  0.1003787319017704  0.6132014234919225  1.0000
  C   C43       1.0  0.6247796003549554  0.08749913192923488  0.6349729761493563  1.0000
  C   C44       1.0  0.4909352142739181  0.7763878992099077  0.636318075822544  1.0000
  C   C45       1.0  0.4998270748844932  0.8796626469788008  0.6339953595590798  1.0000
  C   C46       1.0  0.608721981234254  0.975460738489353  0.6352240133759608  1.0000
  C   C47       1.0  0.7040105823805264  0.9592990144230882  0.6384264769633817  1.0000
  C   C48       1.0  0.6874474274824963  0.85224766334985  0.639839503127135  1.0000
  C   C49       1.0  0.03830946245867037  0.712763097270759  0.7032014870774573  1.0000
  C   C50       1.0  0.15829917063712898  0.6554008050276822  0.6049815349887382  1.0000
  C   C51       1.0  0.19193498906854242  0.8632204913891709  0.6509403681533428  1.0000
  C   C52       1.0  0.9778238135816011  0.660853538301339  0.3867005490308344  1.0000
  C   C53       1.0  0.8603685192717166  0.6206499926336733  0.3881347484767232  1.0000
  C   C54       1.0  0.819849222683665  0.6158839221400426  0.4663244724798403  1.0000
  C   C55       1.0  0.896952406428781  0.6540570049123885  0.5432464882935975  1.0000
  C   C56       1.0  0.014101667438616494  0.6915493361301513  0.5426091517074241  1.0000
  C   C57       1.0  0.05273339774889514  0.6933061622553324  0.4628420385841068  1.0000
  C   C58       1.0  0.0197732922467395  0.659485149720744  0.3016500293449553  1.0000
  C   C59       1.0  0.6939444054567119  0.5690463794295224  0.46864423926493964  1.0000
  C   C60       1.0  0.0990570001847928  0.7299150425172127  0.6249974724773821  1.0000
  C   C61       1.0  0.7718895338140543  0.41813154517624435  0.1362731598224869  1.0000
  C   C62       1.0  0.6705487442900022  0.3195492794745078  0.13759895386399285  1.0000
  C   C63       1.0  0.6651906457987806  0.20903076690935754  0.114121961747081  1.0000
  C   C64       1.0  0.7650108762101482  0.20647045709385736  0.0912409782032171  1.0000
  C   C65       1.0  0.8632417860655508  0.3099953934712402  0.09270827801664441  1.0000
  C   C66       1.0  0.564319026765098  0.09994576736167457  0.11331335090157071  1.0000
  C   C67       1.0  0.46257314861652093  0.0872046339386543  0.1349931860445395  1.0000
  C   C68       1.0  0.28470244305648856  0.7760621271288808  0.13613589595880163  1.0000
  C   C69       1.0  0.3792533353215434  0.8793681275227241  0.1339874113247106  1.0000
  C   C70       1.0  0.36637162885527635  0.9752501341109933  0.1352254979215104  1.0000
  C   C71       1.0  0.25497963112339783  0.9593019343154695  0.13836851843114328  1.0000
  C   C72       1.0  0.16430584514647276  0.8522284117426083  0.1395976436675569  1.0000
  C   C73       1.0  0.3261150114157161  0.2870051095475715  0.7969748166288753  1.0000
  C   C74       1.0  0.5032577361748737  0.3440986354014086  0.894991327620744  1.0000
  C   C75       1.0  0.32880347070634036  0.13645393858120508  0.849218852838213  1.0000
  C   C76       1.0  0.31727588037365717  0.3394501925315367  0.11354811900032051  1.0000
  C   C77       1.0  0.24016019838522606  0.3797983333492994  0.1121450346385799  1.0000
  C   C78       1.0  0.20456622225812993  0.38454803532422227  0.033963212735024215  1.0000
  C   C79       1.0  0.2436087860151589  0.3462613777121391  0.9570475793152157  1.0000
  C   C80       1.0  0.3230585404464961  0.3085212958022722  0.957634942273728  1.0000
  C   C81       1.0  0.3597472257624617  0.306746927272151  0.037390291575093215  1.0000
  C   C82       1.0  0.36028217517014843  0.34073035200415797  0.1985686894392416  1.0000
  C   C83       1.0  0.12540160410274137  0.4313134167463843  0.03157170870466082  1.0000
  C   C84       1.0  0.36954723626639924  0.26983862330344266  0.8751566173375026  1.0000
  C   C85       1.0  0.3532895774859597  0.5811818523655103  0.3631373517868965  1.0000
  C   C86       1.0  0.35060082919194724  0.6798769528496537  0.3619802212605592  1.0000
  C   C87       1.0  0.4557172224573875  0.7904587484302537  0.3858316301013218  1.0000
  C   C88       1.0  0.557961687738505  0.7930029884579994  0.4089292802102946  1.0000
  C   C89       1.0  0.5526072089488637  0.6894072933185029  0.40727117885179354  1.0000
  C   C90       1.0  0.46403853270050627  0.8996180383830815  0.38677055339658745  1.0000
  C   C91       1.0  0.37523259192457203  0.9125127840601832  0.3649987686947185  1.0000
  C   C92       1.0  0.5090725017715841  0.22364038206137588  0.3636764501420089  1.0000
  C   C93       1.0  0.500187794225255  0.1203665535390996  0.3660012490399254  1.0000
  C   C94       1.0  0.39130143242083193  0.024564707394951292  0.3647593244185998  1.0000
  C   C95       1.0  0.29599658863875794  0.04069691338311539  0.3615489516859611  1.0000
  C   C96       1.0  0.31254430206544737  0.14774118950003867  0.3601395517768822  1.0000
  N   N1        1.0  0.13225474455669683  0.5849516900660844  0.88559315214804  1.0000
  N   N2        1.0  0.8216722270180981  0.23814949397034013  0.8608102136871452  1.0000
  N   N3        1.0  0.5478143313241617  0.4157337343085742  0.6148225550958344  1.0000
  N   N4        1.0  0.5830138498815104  0.7621016640260193  0.6395668800537067  1.0000
  N   N5        1.0  0.8677865214470017  0.4150812227990883  0.11441424946554693  1.0000
  N   N6        1.0  0.17836187855269983  0.7618914106715522  0.13919504286904782  1.0000
  N   N7        1.0  0.45211827602491894  0.5842261765320912  0.3851886091296279  1.0000
  N   N8        1.0  0.4169804604288317  0.2378997997869305  0.36042168586239853  1.0000
  O   O1        1.0  0.03693011517811584  0.33406343817058115  0.7576420758890521  1.0000
  O   O2        1.0  0.893936414585916  0.354561597895362  0.712124788858766  1.0000
  O   O3        1.0  0.33237321857341584  0.3902960365849566  0.4585277927538343  1.0000
  O   O4        1.0  0.3782617913031389  0.5072494853201305  0.6033368093423093  1.0000
  O   O5        1.0  0.7035200932343173  0.6669214012798433  0.7425133926505296  1.0000
  O   O6        1.0  0.5389833015168081  0.6441427403021293  0.787360604745011  1.0000
  O   O7        1.0  0.9410837701187592  0.6090993026130037  0.041451842705100723  1.0000
  O   O8        1.0  0.8712501493083951  0.49285127271955526  0.8964458293592017  1.0000
  O   O9        1.0  0.9630691726308316  0.6660358054617745  0.24239171310929922  1.0000
  O   O10       1.0  0.1060243202816764  0.64547088713919  0.2878512670747  1.0000
  O   O11       1.0  0.6676050312608766  0.6096778504620629  0.5415269470379585  1.0000
  O   O12       1.0  0.6216633797419038  0.4927714599366126  0.3967048249372667  1.0000
  O   O13       1.0  0.2964644217081087  0.3330634773506275  0.2574995416447052  1.0000
  O   O14       1.0  0.46099296653638794  0.35581967933623554  0.21263956691422692  1.0000
  O   O15       1.0  0.05898437802677855  0.39098885987674936  0.9585556515742796  1.0000
  O   O16       1.0  0.1287856188365809  0.5072004015589825  0.10356476667572423  1.0000
