data_image0
_chemical_formula_structural       Cu6H42C40N16
_chemical_formula_sum              "Cu6 H42 C40 N16"
_cell_length_a       11.325949947667258
_cell_length_b       11.359347590645802
_cell_length_c       12.1912
_cell_angle_alpha    67.81291515596835
_cell_angle_beta     87.73421797395812
_cell_angle_gamma    69.75206632342721

_space_group_name_H-M_alt    "P 1"
_space_group_IT_number       1

loop_
  _space_group_symop_operation_xyz
  'x, y, z'

loop_
  _atom_site_type_symbol
  _atom_site_label
  _atom_site_symmetry_multiplicity
  _atom_site_fract_x
  _atom_site_fract_y
  _atom_site_fract_z
  _atom_site_occupancy
  Cu  Cu1       1.0  0.6856257290347115  0.3669146668650427  0.7247390763569117  1.0000
  Cu  Cu2       1.0  0.3143737168282498  0.6330826652033608  0.275261390588959  1.0000
  Cu  Cu3       1.0  0.6296186192453276  0.8124397961643126  0.4166258276665007  1.0000
  Cu  Cu4       1.0  0.370379810527126  0.1875605904378403  0.5833760626079967  1.0000
  Cu  Cu5       1.0  0.4566158930727369  0.12303051041715922  0.01063733407654872  1.0000
  Cu  Cu6       1.0  0.5433809756870716  0.8769719125408244  0.9893647172744483  1.0000
  H   H1        1.0  0.08493250024167759  0.6018785665824923  0.6643930707269947  1.0000
  H   H2        1.0  0.9150679029940251  0.3981238563754985  0.3356039292230408  1.0000
  H   H3        1.0  0.024038304166225488  0.5107475703034794  0.6061680525726986  1.0000
  H   H4        1.0  0.9759606705283658  0.48925383447659243  0.39383099863494664  1.0000
  H   H5        1.0  0.18285348120031128  0.5017967682355433  0.5897441447082559  1.0000
  H   H6        1.0  0.8171452872689784  0.49820260018869794  0.4102556305957707  1.0000
  H   H7        1.0  0.3399284736489038  0.3685692059800871  0.8051869527846309  1.0000
  H   H8        1.0  0.6600692787298782  0.6314332169778964  0.19481342558422923  1.0000
  H   H9        1.0  0.5978748435847976  0.0989933661537208  0.2762665772396106  1.0000
  H   H10       1.0  0.40212304126552567  0.9010060022705133  0.72373241025516  1.0000
  H   H11       1.0  0.24326041317229405  0.029296033204502702  0.09681860294747222  1.0000
  H   H12       1.0  0.7567403287602447  0.9707053715755691  0.9031812036148853  1.0000
  H   H13       1.0  0.14993209375975172  0.0073298628241503004  0.9982021483635678  1.0000
  H   H14       1.0  0.850068309475951  0.9926725601338405  0.0017981326416533438  1.0000
  H   H15       1.0  0.07503142382488188  0.1120168798894738  0.07668641088700673  1.0000
  H   H16       1.0  0.924968773185526  0.8879835067126791  0.9233137739508097  1.0000
  H   H17       1.0  0.8997454320791363  0.40748091143230175  0.743106262446503  1.0000
  H   H18       1.0  0.10025388131229111  0.5925194751698513  0.2568923143182575  1.0000
  H   H19       1.0  0.9116012514995475  0.2741362587164033  0.8799601996247903  1.0000
  H   H20       1.0  0.08839683957607039  0.7258651460636685  0.12003888403739899  1.0000
  H   H21       1.0  0.1595098302345335  0.1113713550901281  0.7450030665929861  1.0000
  H   H22       1.0  0.8404883933126257  0.8886269951561944  0.2549970869865066  1.0000
  H   H23       1.0  0.1354749567058207  0.9675866926159388  0.6396061077957215  1.0000
  H   H24       1.0  0.8645253727761217  0.0324106394524648  0.36039678748699805  1.0000
  H   H25       1.0  0.9171462965173871  0.9969417801396291  0.5713114601985652  1.0000
  H   H26       1.0  0.0828549165835213  0.0030555519287745  0.4286897621020174  1.0000
  H   H27       1.0  0.6467364017184848  0.1408883329026125  0.6842015016684757  1.0000
  H   H28       1.0  0.3532632503697783  0.8591110355216288  0.3157957803896211  1.0000
  H   H29       1.0  0.6405172536698558  0.2884121312900092  0.5633675155565501  1.0000
  H   H30       1.0  0.35948416565636176  0.711587237134232  0.4366288813286587  1.0000
  H   H31       1.0  0.7116341385707939  0.3283532146162571  0.2750835420641451  1.0000
  H   H32       1.0  0.2883644974269616  0.6716492083417265  0.7249127025311852  1.0000
  H   H33       1.0  0.5937348031588671  0.3927122407468886  0.35986880252568215  1.0000
  H   H34       1.0  0.4062643040072587  0.6072861094994266  0.6401304983354734  1.0000
  H   H35       1.0  0.5494091472337673  0.3624377385641964  0.23866538752066907  1.0000
  H   H36       1.0  0.4505887376165488  0.6375616298600448  0.7613335999741082  1.0000
  H   H37       1.0  0.6936685200428983  0.7789600698990427  0.6615062897631604  1.0000
  H   H38       1.0  0.30633222188964737  0.2210413348810292  0.3384951573267828  1.0000
  H   H39       1.0  0.6586912844319458  0.8955241323656367  0.7344673050797754  1.0000
  H   H40       1.0  0.3413078964879475  0.1044793087702658  0.26553020176768183  1.0000
  H   H41       1.0  0.8137237778543495  0.8304666361839708  0.6971186387533166  1.0000
  H   H42       1.0  0.1862760804592156  0.1695347685961011  0.3028828407911704  1.0000
  C   C1        1.0  0.10875977706044182  0.5062156603951209  0.6506587033786246  1.0000
  C   C2        1.0  0.8912391976341496  0.49378574438495093  0.3493395275652206  1.0000
  C   C3        1.0  0.14986343489508164  0.3851217243760061  0.7653722688967266  1.0000
  C   C4        1.0  0.8501343174837004  0.6148806985819846  0.2346289297359335  1.0000
  C   C5        1.0  0.08826491609953989  0.2975716598309219  0.8313404735471439  1.0000
  C   C6        1.0  0.9117331749760779  0.7024297449491499  0.1686602506426383  1.0000
  C   C7        1.0  0.17388978233550026  0.2007694125544788  0.9327298141890951  1.0000
  C   C8        1.0  0.8261109595970455  0.799231992225593  0.06726999237325522  1.0000
  C   C9        1.0  0.1593738954374899  0.0815193967429693  0.03144783333684131  1.0000
  C   C10       1.0  0.8406268464950486  0.9184820080371026  0.9685519732255088  1.0000
  C   C11       1.0  0.9605733155834457  0.3025556407344112  0.7992841681570015  1.0000
  C   C12       1.0  0.0394259978079816  0.6974447458677488  0.20071522887155893  1.0000
  C   C13       1.0  0.9580264043275833  0.212460131396945  0.7350336429878936  1.0000
  C   C14       1.0  0.04197358645752306  0.7875382188493775  0.26496808621010376  1.0000
  C   C15       1.0  0.06638088783167012  0.1198181590891707  0.7152067107162807  1.0000
  C   C16       1.0  0.9336187642566003  0.8801812093350634  0.28479549292459466  1.0000
  C   C17       1.0  0.0524215731650486  0.0407423893468959  0.6562172988638721  1.0000
  C   C18       1.0  0.9475801848580048  0.9592559608994264  0.34378600595263015  1.0000
  C   C19       1.0  0.9314691938665192  0.0567318553547338  0.6179313066699025  1.0000
  C   C20       1.0  0.06853201923439663  0.9432654767136697  0.3820699156306731  1.0000
  C   C21       1.0  0.8267719378023342  0.152082180921596  0.6391827498644391  1.0000
  C   C22       1.0  0.17322961399541734  0.8479141329688886  0.3608171777294732  1.0000
  C   C23       1.0  0.6916920157931584  0.17733095690621073  0.6023509772694808  1.0000
  C   C24       1.0  0.30830906483621595  0.8226694296959424  0.3976467143223988  1.0000
  C   C25       1.0  0.6226213409697792  0.3234354152773733  0.3128462804338384  1.0000
  C   C26       1.0  0.37737885604062876  0.6765649713247798  0.6871514436125851  1.0000
  C   C27       1.0  0.6389496823566319  0.1823566831042953  0.3958370913221644  1.0000
  C   C28       1.0  0.3610520756664145  0.817641667142027  0.6041612919115595  1.0000
  C   C29       1.0  0.6723527301452563  0.1160061009681002  0.5189828104103924  1.0000
  C   C30       1.0  0.3276495727999347  0.883993267456141  0.4810151945478653  1.0000
  C   C31       1.0  0.6789129451100209  0.9805256975845822  0.5482697201256389  1.0000
  C   C32       1.0  0.3210879292940589  0.019472652661733  0.4517295158264219  1.0000
  C   C33       1.0  0.7127815896670382  0.865108103452485  0.6666449509174017  1.0000
  C   C34       1.0  0.2872191522655001  0.1348933013275868  0.33335403538114866  1.0000
  C   C35       1.0  0.524406717645533  0.9867976735530206  0.1559062904126735  1.0000
  C   C36       1.0  0.4755953790743561  0.0131996585153829  0.844097360224751  1.0000
  C   C37       1.0  0.5926344412385163  0.3035117097984283  0.8445349654664086  1.0000
  C   C38       1.0  0.40736609446872046  0.6964876586258129  0.15546638545612274  1.0000
  C   C39       1.0  0.6586920780650231  0.6418634315591731  0.5288030787928266  1.0000
  C   C40       1.0  0.341305806785293  0.35813593686506817  0.4711991897571295  1.0000
  N   N1        1.0  0.2807080407178121  0.2281207259376004  0.9291052410501452  1.0000
  N   N2        1.0  0.7192914788989171  0.7718816970203832  0.07089507240961994  1.0000
  N   N3        1.0  0.26351952556676383  0.3401752784100083  0.8283326572663301  1.0000
  N   N4        1.0  0.7364787717341557  0.6598281627259013  0.17166734282705695  1.0000
  N   N5        1.0  0.841014960373748  0.2276859639670619  0.6971760813610075  1.0000
  N   N6        1.0  0.15898591403033177  0.7723123862792534  0.30282233432726013  1.0000
  N   N7        1.0  0.626156986773033  0.0884155157744928  0.3588992439476471  1.0000
  N   N8        1.0  0.3738438876310397  0.9115828344718296  0.6410991717406207  1.0000
  N   N9        1.0  0.6500402390315329  0.9654047373399095  0.4494838809091207  1.0000
  N   N10       1.0  0.3499606353725397  0.0345936129064128  0.5505161753067398  1.0000
  N   N11       1.0  0.5698492224389468  0.9104058207998307  0.2537290425186003  1.0000
  N   N12       1.0  0.43015118079675563  0.08959660215816  0.7462679574314353  1.0000
  N   N13       1.0  0.5334484967004087  0.2512842735482934  0.9153212243726545  1.0000
  N   N14       1.0  0.46655455739221446  0.7487181494096902  0.08467895926894198  1.0000
  N   N15       1.0  0.67081571093604  0.5351532949728579  0.6045586189291685  1.0000
  N   N16       1.0  0.3291827188364138  0.46484709162929516  0.3954416308177359  1.0000
