data_image0
_chemical_formula_structural       In4H32C60N4O40
_chemical_formula_sum              "In4 H32 C60 N4 O40"
_cell_length_a       7.206348304112209
_cell_length_b       15.106696767343886
_cell_length_c       22.178011408073665
_cell_angle_alpha    89.99994564513656
_cell_angle_beta     89.99971989764236
_cell_angle_gamma    98.23749791440751

_space_group_name_H-M_alt    "P 1"
_space_group_IT_number       1

loop_
  _space_group_symop_operation_xyz
  'x, y, z'

loop_
  _atom_site_type_symbol
  _atom_site_label
  _atom_site_symmetry_multiplicity
  _atom_site_fract_x
  _atom_site_fract_y
  _atom_site_fract_z
  _atom_site_occupancy
  In  In1       1.0  0.9995113393598556  4.817390586709974e-05  0.5000413314461057  1.0000
  In  In2       1.0  0.5003647217706017  0.4999541100564073  5.5802788892800015e-05  1.0000
  In  In3       1.0  0.4995209281958566  2.0408267786799725e-05  0.5000002469478488  1.0000
  In  In4       1.0  0.0003614936410301559  0.49999327451975256  0.9999944279118724  1.0000
  H   H1        1.0  0.3899773395134859  0.7179500686669089  0.4935590385116414  1.0000
  H   H2        1.0  0.9107670147539509  0.7273672779995835  0.5908189189630093  1.0000
  H   H3        1.0  0.5008203427847278  0.4894072743011293  0.5965150535276821  1.0000
  H   H4        1.0  0.5428847901792366  0.5960684762052183  0.6980772925415338  1.0000
  H   H5        1.0  0.5153791858850739  0.5686781010566122  0.8086490041412662  1.0000
  H   H6        1.0  0.054632793680525565  0.4782554034774337  0.8102419684389591  1.0000
  H   H7        1.0  0.7853422011073974  0.12223407624198053  0.5290593933698206  1.0000
  H   H8        1.0  0.056575297927850064  0.4473975828162083  0.5308219744695251  1.0000
  H   H9        1.0  0.11004075584982345  0.7820370023187099  0.9935594344221388  1.0000
  H   H10       1.0  0.5892583232763117  0.7726421682891669  0.09081626123317932  1.0000
  H   H11       1.0  0.9992438224487754  0.0105931796295664  0.09650514842422811  1.0000
  H   H12       1.0  0.9571320146401306  0.9039500816897146  0.19807441542456425  1.0000
  H   H13       1.0  0.9846032418886921  0.9313061012482251  0.30864741831818077  1.0000
  H   H14       1.0  0.445335353012453  0.0217225961017533  0.31023665088196145  1.0000
  H   H15       1.0  0.7145848638970803  0.3777821189719647  0.029062780862041407  1.0000
  H   H16       1.0  0.44348313849863535  0.052589692039610704  0.030822050817882002  1.0000
  H   H17       1.0  0.6097493823555594  0.2819890226631189  0.5064465435605072  1.0000
  H   H18       1.0  0.08903817250019594  0.2726921519551412  0.40916051097880074  1.0000
  H   H19       1.0  0.4992164350738335  0.5105655287545616  0.40347384509580314  1.0000
  H   H20       1.0  0.45713582303432077  0.4039331209536599  0.3019526377174274  1.0000
  H   H21       1.0  0.48475848678461386  0.43129791290485286  0.19138272962096184  1.0000
  H   H22       1.0  0.945507177716614  0.5217326518482679  0.1897104074361167  1.0000
  H   H23       1.0  0.2136745270920102  0.8778879661775464  0.4709313096058312  1.0000
  H   H24       1.0  0.943375495315294  0.5525164516202281  0.4691619643737469  1.0000
  H   H25       1.0  0.8902812733795569  0.21800634766409388  0.006447048936642801  1.0000
  H   H26       1.0  0.410991771915441  0.22732031307536  0.9091559540328337  1.0000
  H   H27       1.0  0.0008405107469968785  0.9894397816315674  0.9034679687451475  1.0000
  H   H28       1.0  0.04289410581919379  0.09608764112576298  0.8019501040537381  1.0000
  H   H29       1.0  0.015243005741041305  0.0686970669447362  0.6913775522114918  1.0000
  H   H30       1.0  0.5544652080973407  0.9782491840913181  0.6897040019451526  1.0000
  H   H31       1.0  0.2862534249144063  0.6221253776440747  0.9709409967471959  1.0000
  H   H32       1.0  0.5566851064968148  0.9474725988943148  0.9691627895986344  1.0000
  C   C1        1.0  0.7077009955611403  0.8284033521792227  0.5209178305358081  1.0000
  C   C2        1.0  0.6561102384793286  0.7330743836543334  0.5397708099160425  1.0000
  C   C3        1.0  0.4831361309329197  0.6863036414948738  0.5224308146845473  1.0000
  C   C4        1.0  0.7752090743478988  0.6919043898205643  0.5769634227347852  1.0000
  C   C5        1.0  0.42754268862213257  0.5989152236804501  0.542337541108111  1.0000
  C   C6        1.0  0.5448707761103718  0.5571420306188911  0.5801208306710494  1.0000
  C   C7        1.0  0.7169478502318753  0.604944430820602  0.5967614849541292  1.0000
  C   C8        1.0  0.655896741981138  0.5714026773304113  0.7226438855934846  1.0000
  C   C9        1.0  0.8169965479544885  0.5548080312397873  0.6918740968541996  1.0000
  C   C10       1.0  0.6396681361122772  0.5550118523561167  0.784321209968127  1.0000
  C   C11       1.0  0.9605143636683947  0.522514906089569  0.7248584651731279  1.0000
  C   C12       1.0  0.23928854842140618  0.5538885590197538  0.5238135018157737  1.0000
  C   C13       1.0  0.7811727080201578  0.5206477830854793  0.8163997283758989  1.0000
  C   C14       1.0  0.7667867219140235  0.5051404202312996  0.8826901787551976  1.0000
  C   C15       1.0  0.942185511072651  0.5036691723847467  0.7858932637088787  1.0000
  C   C16       1.0  0.7922644111165836  0.6716063485106647  0.02091626732234181  1.0000
  C   C17       1.0  0.8439028056162385  0.7669331990156393  0.039770004914593905  1.0000
  C   C18       1.0  0.016890205554929677  0.8136872704334479  0.022431402008194802  1.0000
  C   C19       1.0  0.7248141171924446  0.8081064321565066  0.07696458441205321  1.0000
  C   C20       1.0  0.07250116187517365  0.9010749460730737  0.042337532718328005  1.0000
  C   C21       1.0  0.9551845404989052  0.9428560271397899  0.08011567713214161  1.0000
  C   C22       1.0  0.7830920381270943  0.8950629738301076  0.09675798887456474  1.0000
  C   C23       1.0  0.8441096693024336  0.9286057962048417  0.22263936893961045  1.0000
  C   C24       1.0  0.6830252428054565  0.9452038441841423  0.19186712060502492  1.0000
  C   C25       1.0  0.8603126069789938  0.9449837880975167  0.2843198132221687  1.0000
  C   C26       1.0  0.5394863722933678  0.9774842016887888  0.2248480894639471  1.0000
  C   C27       1.0  0.26076921415616994  0.9460962853370134  0.023816320969302803  1.0000
  C   C28       1.0  0.718776148503082  0.9793404594836588  0.3163917713581413  1.0000
  C   C29       1.0  0.7331190676874898  0.9948463761825296  0.3826812870848145  1.0000
  C   C30       1.0  0.5577822678856138  0.9963204592968964  0.28588329760484754  1.0000
  C   C31       1.0  0.2917776073885748  0.17165450624969483  0.4791490736949059  1.0000
  C   C32       1.0  0.3435998477783855  0.2669463637014857  0.46023522304010106  1.0000
  C   C33       1.0  0.5166486700732095  0.3136574535944376  0.477564396702043  1.0000
  C   C34       1.0  0.2246039545620846  0.3081262570837779  0.4230214179747023  1.0000
  C   C35       1.0  0.5723741126965224  0.4010282978407177  0.4576445941645063  1.0000
  C   C36       1.0  0.4551000349944374  0.44283286789287496  0.4198640099307911  1.0000
  C   C37       1.0  0.2829779641810434  0.39506933728193167  0.4032215520827976  1.0000
  C   C38       1.0  0.34415552397711474  0.4285935245556018  0.2773707141421938  1.0000
  C   C39       1.0  0.18303016156789909  0.44520894781537373  0.3081138999689586  1.0000
  C   C40       1.0  0.3604502553015507  0.4449782390839871  0.21569744779036176  1.0000
  C   C41       1.0  0.03952623760921633  0.4774839879374325  0.2751155538361374  1.0000
  C   C42       1.0  0.7606584469704245  0.446022134842238  0.4761672807522147  1.0000
  C   C43       1.0  0.21898886777727  0.4793609863419661  0.18361442037166148  1.0000
  C   C44       1.0  0.23353000951261998  0.49490828983689994  0.11733569317937761  1.0000
  C   C45       1.0  0.05791971588314482  0.49633231188349924  0.21408526421863883  1.0000
  C   C46       1.0  0.20820782475656327  0.3283565053309162  0.979141618206903  1.0000
  C   C47       1.0  0.1564189680530035  0.23306398136561055  0.9602333221798818  1.0000
  C   C48       1.0  0.9833801580864402  0.1863414276810502  0.9775642598671368  1.0000
  C   C49       1.0  0.27542120069261233  0.19188484149631085  0.9230189032827882  1.0000
  C   C50       1.0  0.9276686955960187  0.09896994534214801  0.9576432496290297  1.0000
  C   C51       1.0  0.04494690818307841  0.057172187314847606  0.919859243589464  1.0000
  C   C52       1.0  0.21705957749365715  0.1049404559064087  0.9032160300448668  1.0000
  C   C53       1.0  0.1558658093012184  0.07142061903414289  0.7773662129063866  1.0000
  C   C54       1.0  0.3169956216282727  0.054803105748661096  0.808105094829145  1.0000
  C   C55       1.0  0.13954776253688547  0.0550247142937224  0.7156947866623043  1.0000
  C   C56       1.0  0.46047716554497947  0.0225168026308182  0.7751033847533012  1.0000
  C   C57       1.0  0.7393920953340256  0.0539660148576857  0.9761667158645225  1.0000
  C   C58       1.0  0.28098577798392915  0.020632041343319002  0.6836056945282537  1.0000
  C   C59       1.0  0.2664008836167682  0.0050836233563274005  0.6173270005371806  1.0000
  C   C60       1.0  0.44206811615578795  0.0036599530489312  0.7140749401649134  1.0000
  N   N1        1.0  0.1405621548734572  0.5140871492322603  0.6962276086070035  1.0000
  N   N2        1.0  0.3594495740476161  0.9859053560046219  0.19620589653165155  1.0000
  N   N3        1.0  0.8594743977730772  0.4859030515155283  0.3037450577171229  1.0000
  N   N4        1.0  0.6405402728393382  0.014090929303073103  0.8037320507545616  1.0000
  O   O1        1.0  0.7669499131671172  0.057550438558202195  0.5342357270202599  1.0000
  O   O2        1.0  0.8754729245249989  0.8654820140958109  0.5305804088973858  1.0000
  O   O3        1.0  0.5776528909223727  0.8655189686790622  0.4969843064992007  1.0000
  O   O4        1.0  0.8444018318949701  0.565175150123011  0.6313763122147407  1.0000
  O   O5        1.0  0.19047766123110682  0.47280499210322807  0.545521554538773  1.0000
  O   O6        1.0  0.13839485218075956  0.5928789792069933  0.4899349685510972  1.0000
  O   O7        1.0  0.620414260268653  0.5241784779537751  0.9090096010640211  1.0000
  O   O8        1.0  0.9045477122576173  0.4746081097798012  0.9077094546368015  1.0000
  O   O9        1.0  0.2066569879972917  0.4435469141966948  0.703504606260019  1.0000
  O   O10       1.0  0.2190628429942549  0.5806926094344718  0.6685906915535966  1.0000
  O   O11       1.0  0.7329631992293385  0.4424657623639092  0.0342417489571574  1.0000
  O   O12       1.0  0.6244921251668673  0.6345269938293399  0.03058229296070181  1.0000
  O   O13       1.0  0.9223040842240594  0.6344955776970166  0.9969748314108886  1.0000
  O   O14       1.0  0.6556451529540723  0.9348435339022385  0.13136893535669006  1.0000
  O   O15       1.0  0.30958547780488743  0.027180232407424405  0.04552501671794571  1.0000
  O   O16       1.0  0.3616656862607286  0.9071060367665992  0.9899398431824411  1.0000
  O   O17       1.0  0.879489635535805  0.9757988875095265  0.40899958682530985  1.0000
  O   O18       1.0  0.5953658584634595  0.025387084876051295  0.40769837931520675  1.0000
  O   O19       1.0  0.2933574119505166  0.0564500256084983  0.20346704375509017  1.0000
  O   O20       1.0  0.28096150840045214  0.9192899109497646  0.1685763617105991  1.0000
  O   O21       1.0  0.23204826017857982  0.9425789889993936  0.46580141836430766  1.0000
  O   O22       1.0  0.12398860297304279  0.13459259534863577  0.4695031785325128  1.0000
  O   O23       1.0  0.42177852948039884  0.13455701917217772  0.5031344509244065  1.0000
  O   O24       1.0  0.1555885209625103  0.4348726574330115  0.3686098810392195  1.0000
  O   O25       1.0  0.80947292729968  0.5271083734802035  0.45445967892255373  1.0000
  O   O26       1.0  0.861529652765604  0.40702170773584356  0.5100440104498106  1.0000
  O   O27       1.0  0.3799066020043326  0.4758066592472261  0.09104422650506905  1.0000
  O   O28       1.0  0.09590619352983513  0.5255260657867069  0.09229883217595611  1.0000
  O   O29       1.0  0.7933847495511799  0.5564466252654584  0.2964779797940835  1.0000
  O   O30       1.0  0.7809843510232497  0.419291554946888  0.33137701489641813  1.0000
  O   O31       1.0  0.2678593756595404  0.5574357330179681  0.9657976495337554  1.0000
  O   O32       1.0  0.37600664476447326  0.3654137432764343  0.9695039990689268  1.0000
  O   O33       1.0  0.07820694425978303  0.36546254040872134  0.0031168713680287  1.0000
  O   O34       1.0  0.3444565935753374  0.0651465798152557  0.8686037309155665  1.0000
  O   O35       1.0  0.6905849271866488  0.9728800482523499  0.9544611763886623  1.0000
  O   O36       1.0  0.6385165218551235  0.09296560334539812  0.010042742734690102  1.0000
  O   O37       1.0  0.12002625115882638  0.024181302151298205  0.5910316965334986  1.0000
  O   O38       1.0  0.4040306771401916  0.9744661295291551  0.5922905198564621  1.0000
  O   O39       1.0  0.7066243171426762  0.9435469396808641  0.7964587293169247  1.0000
  O   O40       1.0  0.7190441187524  0.08069899286360992  0.8313633891536515  1.0000
