data_image0
_chemical_formula_structural       Cu8H12C8S4N16Cl4
_chemical_formula_sum              "Cu8 H12 C8 S4 N16 Cl4"
_cell_length_a       6.70604048806387
_cell_length_b       6.706043641491902
_cell_length_c       17.289248342540752
_cell_angle_alpha    78.9555896930915
_cell_angle_beta     78.95570722533067
_cell_angle_gamma    62.83973956528191

_space_group_name_H-M_alt    "P 1"
_space_group_IT_number       1

loop_
  _space_group_symop_operation_xyz
  'x, y, z'

loop_
  _atom_site_type_symbol
  _atom_site_label
  _atom_site_symmetry_multiplicity
  _atom_site_fract_x
  _atom_site_fract_y
  _atom_site_fract_z
  _atom_site_occupancy
  Cu  Cu1       1.0  0.4102095406852158  0.8662863275677282  0.6892286929345842  1.0000
  Cu  Cu2       1.0  0.13371350858042771  0.5897918771385592  0.8107716889613454  1.0000
  Cu  Cu3       1.0  0.589789954256723  0.13371282306638219  0.3107711506821288  1.0000
  Cu  Cu4       1.0  0.8662852670728611  0.41020896144042496  0.1892280826684924  1.0000
  Cu  Cu5       1.0  0.2531253499265915  0.022646222750452704  0.4978233831583194  1.0000
  Cu  Cu6       1.0  0.9773580678933131  0.7468689575785631  0.0021762193853050635  1.0000
  Cu  Cu7       1.0  0.7468741450481104  0.9773529279134935  0.5021770388478827  1.0000
  Cu  Cu8       1.0  0.022645200651709312  0.253128469005965  0.9978246287067448  1.0000
  H   H1        1.0  0.7074799593751919  0.5543439512649898  0.5507092861658902  1.0000
  H   H2        1.0  0.44566309227404594  0.2925162696189858  0.9492911911087487  1.0000
  H   H3        1.0  0.2925165698649793  0.445658593341065  0.44929052562233096  1.0000
  H   H4        1.0  0.554341703362674  0.7074811388535168  0.0507089664485463  1.0000
  H   H5        1.0  0.6610190548438978  0.34188315431315175  0.6213467993297  1.0000
  H   H6        1.0  0.6581236726023435  0.33897674562889074  0.8786514791765256  1.0000
  H   H7        1.0  0.33897675517312104  0.658121078297448  0.3786540972506315  1.0000
  H   H8        1.0  0.3418819307719121  0.6610223326168096  0.12134675908014708  1.0000
  H   H9        1.0  0.9449490684265952  0.3080875563249492  0.5882217407780812  1.0000
  H   H10       1.0  0.6919167311522613  0.055047938155404104  0.9117779215808708  1.0000
  H   H11       1.0  0.05505042654810668  0.69191159433899  0.41177868122812095  1.0000
  H   H12       1.0  0.3080887837403593  0.9449477823423962  0.08822172957381014  1.0000
  C   C1        1.0  0.9376979140329597  0.681462929049161  0.6515182572954075  1.0000
  C   C2        1.0  0.3185305661211544  0.0623076255800257  0.8484819980395668  1.0000
  C   C3        1.0  0.06230238877753892  0.3185378914774759  0.3484819805786614  1.0000
  C   C4        1.0  0.6814659631190239  0.9376949190260291  0.15151781374865436  1.0000
  C   C5        1.0  0.7691390622772616  0.4295754322221654  0.6020988890777516  1.0000
  C   C6        1.0  0.5704306493657683  0.23086091206078413  0.8979008780438136  1.0000
  C   C7        1.0  0.23085908270001457  0.5704304521689424  0.397901711225181  1.0000
  C   C8        1.0  0.4295719883067123  0.7691415601568609  0.10209732838437449  1.0000
  S   S1        1.0  0.7492955259705453  0.5634271798681212  0.6865018948059783  1.0000
  S   S2        1.0  0.43657412559773684  0.2507047906474256  0.8134981399112602  1.0000
  S   S3        1.0  0.25070405755129604  0.4365753286033894  0.31349827108120815  1.0000
  S   S4        1.0  0.5634268965014189  0.7492943419343376  0.18650216994968363  1.0000
  N   N1        1.0  0.07218902036468934  0.6870666575912736  0.6988914761532854  1.0000
  N   N2        1.0  0.3129297375512366  0.9278142920492202  0.8011083783064379  1.0000
  N   N3        1.0  0.9278112824130532  0.31293416290553466  0.3011081833312872  1.0000
  N   N4        1.0  0.6870667916889346  0.0721882525568347  0.1988914334817835  1.0000
  N   N5        1.0  0.19123774895604848  0.7909539541705757  0.652793913408118  1.0000
  N   N6        1.0  0.20904434415350434  0.8087635946171619  0.847206530432963  1.0000
  N   N7        1.0  0.8087648002348045  0.20904516029916215  0.3472057059180712  1.0000
  N   N8        1.0  0.790953623663988  0.19123557409913158  0.1527934253290084  1.0000
  N   N9        1.0  0.13316437033301323  0.8449478560358299  0.5801864294308672  1.0000
  N   N10       1.0  0.15505075898264656  0.8668381246255381  0.9198138601686381  1.0000
  N   N11       1.0  0.8668373709892876  0.15504958854138812  0.4198127956379664  1.0000
  N   N12       1.0  0.8449487359592994  0.13316102600857252  0.08018598344806802  1.0000
  N   N13       1.0  0.9681179228352265  0.7831498404341488  0.5778094687540828  1.0000
  N   N14       1.0  0.21684975627238148  0.03188290686244241  0.9221900760637496  1.0000
  N   N15       1.0  0.03188085285081142  0.21685099817467804  0.4221908812652514  1.0000
  N   N16       1.0  0.7831512657612621  0.9681162256596496  0.07780907701820891  1.0000
  Cl  Cl1       1.0  0.40831970119123173  0.15336483744755472  0.5853847998815027  1.0000
  Cl  Cl2       1.0  0.8466362927636979  0.5916803553193972  0.9146158734117548  1.0000
  Cl  Cl3       1.0  0.5916805130393714  0.8466326252416748  0.4146151157220855  1.0000
  Cl  Cl4       1.0  0.15336778361712086  0.40831874112782174  0.08538479054816149  1.0000
