data_image0
_chemical_formula_structural       Fe2H24C24S4N28
_chemical_formula_sum              "Fe2 H24 C24 S4 N28"
_cell_length_a       7.884015994303688
_cell_length_b       7.881381111481304
_cell_length_c       16.978879597627195
_cell_angle_alpha    89.41814881307975
_cell_angle_beta     89.3713722918856
_cell_angle_gamma    106.78085772298878

_space_group_name_H-M_alt    "P 1"
_space_group_IT_number       1

loop_
  _space_group_symop_operation_xyz
  'x, y, z'

loop_
  _atom_site_type_symbol
  _atom_site_label
  _atom_site_symmetry_multiplicity
  _atom_site_fract_x
  _atom_site_fract_y
  _atom_site_fract_z
  _atom_site_occupancy
  Fe  Fe1       1.0  5.317330355578628e-06  0.999974546425108  0.49925545128289184  1.0000
  Fe  Fe2       1.0  0.0066536574694282995  0.0060166935165710984  0.009344657418878903  1.0000
  H   H1        1.0  0.5883419265112336  0.8362384794527882  0.5572189881930926  1.0000
  H   H2        1.0  0.42001564831389254  0.16647365858533192  0.061822425258476706  1.0000
  H   H3        1.0  0.16386241151057124  0.41158680234335066  0.44101957711176715  1.0000
  H   H4        1.0  0.8385665541836146  0.5731874228622827  0.9390374176727863  1.0000
  H   H5        1.0  0.41163229007228347  0.16389801428961442  0.4410593864724676  1.0000
  H   H6        1.0  0.5725361690775227  0.8385501037779972  0.9387432579852943  1.0000
  H   H7        1.0  0.8363382199152696  0.5883225354470624  0.5572611126819427  1.0000
  H   H8        1.0  0.16675324510644873  0.41969901805124  0.061940805945432914  1.0000
  H   H9        1.0  0.9865758996530545  0.2788955799461305  0.6381579849932635  1.0000
  H   H10       1.0  0.01701700376722923  0.7240391950809265  0.14842328208263922  1.0000
  H   H11       1.0  0.7205581504346057  0.013583160021049394  0.3606671204325239  1.0000
  H   H12       1.0  0.2835108582064833  0.9758443605445775  0.8555359474331539  1.0000
  H   H13       1.0  0.013763086125173567  0.7205085166234042  0.36061357720642223  1.0000
  H   H14       1.0  0.975363242017302  0.2835030896474676  0.8554087848997372  1.0000
  H   H15       1.0  0.2787585895795671  0.9868105215350336  0.6381907029779514  1.0000
  H   H16       1.0  0.724390757861869  0.016610425269782098  0.14846711655371794  1.0000
  H   H17       1.0  0.5660965765240603  0.27485681040285215  0.7441476617817389  1.0000
  H   H18       1.0  0.4343829181125329  0.7260884921556964  0.2536439823940314  1.0000
  H   H19       1.0  0.7262018633584405  0.43423929641591724  0.2537423266186424  1.0000
  H   H20       1.0  0.27441219510794906  0.5662945746023024  0.7442060224689373  1.0000
  H   H21       1.0  0.8013010637379734  0.37737326944900207  0.744290479689596  1.0000
  H   H22       1.0  0.19952342700541684  0.6220829638531028  0.25425179410122223  1.0000
  H   H23       1.0  0.6222299007460562  0.19929216786206175  0.25433861481477044  1.0000
  H   H24       1.0  0.3770520215154816  0.8015418181880276  0.7443392133979927  1.0000
  C   C1        1.0  0.29763991629465647  0.2977807428915469  0.5735730472029489  1.0000
  C   C2        1.0  0.7001364720322343  0.6997651128302989  0.0803978153324536  1.0000
  C   C3        1.0  0.7027129729848127  0.702563241398593  0.4245548703484873  1.0000
  C   C4        1.0  0.300899917870936  0.3009637093607296  0.9241356908612915  1.0000
  C   C5        1.0  0.6579319306295303  0.9514543265314258  0.5905804281065843  1.0000
  C   C6        1.0  0.34919749911455966  0.051098982935329176  0.09666131382434882  1.0000
  C   C7        1.0  0.048669724002408495  0.3420474719765635  0.40767772891920373  1.0000
  C   C8        1.0  0.9536915366846586  0.6452109413470166  0.9042168238340482  1.0000
  C   C9        1.0  0.342111082484223  0.048682825179312786  0.4076883472883069  1.0000
  C   C10       1.0  0.6445945794652984  0.9537648577476003  0.9039758215918285  1.0000
  C   C11       1.0  0.9514472550957437  0.6579942221268736  0.5906411470406995  1.0000
  C   C12       1.0  0.05140287894577966  0.3488386693784732  0.0967792738865896  1.0000
  C   C13       1.0  0.864871037578574  0.17350318547318008  0.6307490083455181  1.0000
  C   C14       1.0  0.13946458486468313  0.8292098871269145  0.14001532756662982  1.0000
  C   C15       1.0  0.8261965708582435  0.1352010044593115  0.36786258617862444  1.0000
  C   C16       1.0  0.1768624076886383  0.8539654292329003  0.8629382406811815  1.0000
  C   C17       1.0  0.13535829182469425  0.8261558369819466  0.3678219778465107  1.0000
  C   C18       1.0  0.8534370900785007  0.17690701558375818  0.8627785989748136  1.0000
  C   C19       1.0  0.17337626717662857  0.8650667532115007  0.6307963947467672  1.0000
  C   C20       1.0  0.8295462496427816  0.13905966762528976  0.14008718235064074  1.0000
  C   C21       1.0  0.6962717933932792  0.2509122147103824  0.7447487235565335  1.0000
  C   C22       1.0  0.30381498048527783  0.7490386271569277  0.2535303899424832  1.0000
  C   C23       1.0  0.7491397664062803  0.3036152057468797  0.2536065128400652  1.0000
  C   C24       1.0  0.2505685626947525  0.6965565848833747  0.7448261777979114  1.0000
  S   S1        1.0  0.4504024155350591  0.450528457592192  0.616515600053127  1.0000
  S   S2        1.0  0.5413214977756837  0.5410507903218543  0.11956446657497113  1.0000
  S   S3        1.0  0.5502510038473785  0.5502290822578356  0.3811871062335684  1.0000
  S   S4        1.0  0.45234216610267447  0.4527629455627176  0.8769176016164837  1.0000
  N   N1        1.0  0.18499705745880135  0.18513062055777846  0.5427192692266092  1.0000
  N   N2        1.0  0.8171762527928051  0.8166651742992173  0.0524451636146495  1.0000
  N   N3        1.0  0.815158179142081  0.8149624938028239  0.4556276612832165  1.0000
  N   N4        1.0  0.18953727664626996  0.18930946746309016  0.9584292971813256  1.0000
  N   N5        1.0  0.7175394395467477  0.1535467121575279  0.6750985223185353  1.0000
  N   N6        1.0  0.28592059395938196  0.8470939073405288  0.18295596470058234  1.0000
  N   N7        1.0  0.8461149230663236  0.2824998595671103  0.32343470825896503  1.0000
  N   N8        1.0  0.15256784943579044  0.7127678180238701  0.8157100956462174  1.0000
  N   N9        1.0  0.28264846374821667  0.8460738112382842  0.3233778311778722  1.0000
  N   N10       1.0  0.7123188766195838  0.15283516683094683  0.8155893805680707  1.0000
  N   N11       1.0  0.15328723364940083  0.7177909629268412  0.6751910776462395  1.0000
  N   N12       1.0  0.847246981392672  0.28563455594400006  0.18302154958828254  1.0000
  N   N13       1.0  0.5849483256720942  0.01248307444718219  0.6506284957820514  1.0000
  N   N14       1.0  0.41996190988050586  0.9879782103731996  0.15662467168450436  1.0000
  N   N15       1.0  0.9875913689167389  0.4149625646254335  0.3476662137512606  1.0000
  N   N16       1.0  0.01027951494351232  0.5786988730815775  0.840904824959317  1.0000
  N   N17       1.0  0.41506002441723666  0.9875717674281856  0.347644093730338  1.0000
  N   N18       1.0  0.5781879404650352  0.010547169340163986  0.840729711327086  1.0000
  N   N19       1.0  0.012319493868226072  0.5851110272514645  0.6507143635546201  1.0000
  N   N20       1.0  0.9881108513454748  0.41970523362187606  0.15670662270873245  1.0000
  N   N21       1.0  0.8310805324736277  0.04718240580343998  0.576161814712606  1.0000
  N   N22       1.0  0.175521871097949  0.9566730961577786  0.08424792905867663  1.0000
  N   N23       1.0  0.9526963994602156  0.16900182881151693  0.42230586279686844  1.0000
  N   N24       1.0  0.05343439277503136  0.8140419301099796  0.9197453356571687  1.0000
  N   N25       1.0  0.16910195932862146  0.9526749684005793  0.4223039855112774  1.0000
  N   N26       1.0  0.8133813263927933  0.05337598081921157  0.9195069588386247  1.0000
  N   N27       1.0  0.047191961169268395  0.8311635969334716  0.5761958885789726  1.0000
  N   N28       1.0  0.9571118630641988  0.17508231013002976  0.08435484124262162  1.0000
