data_image0
_chemical_formula_structural       Dy2Cu2H50C98N8O20
_chemical_formula_sum              "Dy2 Cu2 H50 C98 N8 O20"
_cell_length_a       9.38859230819378
_cell_length_b       14.84253904585692
_cell_length_c       18.33099992895044
_cell_angle_alpha    92.80042198388524
_cell_angle_beta     103.69611153532952
_cell_angle_gamma    94.71160032277672

_space_group_name_H-M_alt    "P 1"
_space_group_IT_number       1

loop_
  _space_group_symop_operation_xyz
  'x, y, z'

loop_
  _atom_site_type_symbol
  _atom_site_label
  _atom_site_symmetry_multiplicity
  _atom_site_fract_x
  _atom_site_fract_y
  _atom_site_fract_z
  _atom_site_occupancy
  Dy  Dy1       1.0  0.8085616940022078  0.5637150369623001  0.9679588822953207  1.0000
  Dy  Dy2       1.0  0.191399140611118  0.43629213721178683  0.032051184786908514  1.0000
  Cu  Cu1       1.0  0.7221295819110621  0.02911795847360571  0.44876060227298353  1.0000
  Cu  Cu2       1.0  0.2778680948197376  0.9708849440326335  0.5512118240641399  1.0000
  H   H1        1.0  0.31308859060218447  0.7614444417013858  0.4164822430427577  1.0000
  H   H2        1.0  0.6869448676265577  0.23855015903131976  0.5835068082224666  1.0000
  H   H3        1.0  0.45097160988305524  0.7735685159604488  0.5646443208795731  1.0000
  H   H4        1.0  0.5491102942051141  0.22642179884624625  0.4353739793953438  1.0000
  H   H5        1.0  0.9818805844986469  0.9343780766714005  0.7122633974315987  1.0000
  H   H6        1.0  0.017993157730948908  0.06564579298957092  0.2877398809738168  1.0000
  H   H7        1.0  0.14211969015472192  0.08797599193447785  0.6928086975264875  1.0000
  H   H8        1.0  0.8578408442544967  0.9120474401780001  0.3071681417685213  1.0000
  H   H9        1.0  0.011554049228422516  0.34723788138892797  0.49919802388285467  1.0000
  H   H10       1.0  0.9885699059828638  0.6527074380499087  0.5007746017745305  1.0000
  H   H11       1.0  0.8694833252286001  0.33808923145601  0.35226511513639014  1.0000
  H   H12       1.0  0.1306881296685845  0.6618171676830188  0.6476578323173001  1.0000
  H   H13       1.0  0.5919530555540504  0.0632940354564795  0.1591092882567082  1.0000
  H   H14       1.0  0.4079379394042276  0.9367283994931271  0.8409026024696402  1.0000
  H   H15       1.0  0.4399554090910626  0.9059273571935338  0.177612677390222  1.0000
  H   H16       1.0  0.5598069382051846  0.09410114578941631  0.8224283612332358  1.0000
  H   H17       1.0  0.6994164623145804  0.7125505945127132  0.5984441902322503  1.0000
  H   H18       1.0  0.30064291985596003  0.287475097280833  0.40157435170436173  1.0000
  H   H19       1.0  0.6942517486644634  0.6189709647526984  0.7057920870035019  1.0000
  H   H20       1.0  0.3058256220479195  0.38104377941060363  0.2942124214303448  1.0000
  H   H21       1.0  0.7253568748204061  0.8601160068411603  0.8510654273290328  1.0000
  H   H22       1.0  0.27457625918248135  0.13988926208251937  0.1489367948560556  1.0000
  H   H23       1.0  0.723852782821872  0.9548136750166664  0.7424144131370909  1.0000
  H   H24       1.0  0.2760671880774979  0.04519844564089231  0.2575968215362181  1.0000
  H   H25       1.0  0.04296534305012759  0.26127038657434554  0.7039278665365529  1.0000
  H   H26       1.0  0.9570764190363334  0.7387397569037333  0.2960355336068972  1.0000
  H   H27       1.0  0.2361365571135465  0.38624312700817137  0.7603851762346779  1.0000
  H   H28       1.0  0.7638893623986502  0.6137704819116436  0.23957422814691398  1.0000
  H   H29       1.0  0.4219653259243685  0.3613795382616872  0.5681740536999911  1.0000
  H   H30       1.0  0.578084137775498  0.6385790225819435  0.4317888344901847  1.0000
  H   H31       1.0  0.23004223535157559  0.2340088842531927  0.5120874550608647  1.0000
  H   H32       1.0  0.7700028138617655  0.7659564879394412  0.4878877020668854  1.0000
  H   H33       1.0  0.5527123163656426  0.5328457074515073  0.7881103752598051  1.0000
  H   H34       1.0  0.44728848429898693  0.4671809000288292  0.2118338980210055  1.0000
  H   H35       1.0  0.6043039979111099  0.31497978898378426  0.2585469172867789  1.0000
  H   H36       1.0  0.39569786112575395  0.6849518962111604  0.7414516231301107  1.0000
  H   H37       1.0  0.663576186944347  0.41732179896474975  0.1636522610537554  1.0000
  H   H38       1.0  0.3364387926657812  0.5826491717927311  0.8363657854913953  1.0000
  H   H39       1.0  0.9593148442780542  0.23336506314009142  0.10911145013455571  1.0000
  H   H40       1.0  0.040750497823374594  0.7666436380460482  0.8908973449692681  1.0000
  H   H41       1.0  0.8941906180965588  0.12791038523759113  0.2004509098868468  1.0000
  H   H42       1.0  0.10587926263007576  0.8720792956921033  0.7995451570776027  1.0000
  H   H43       1.0  0.5227629495668182  0.7336611818278626  0.2627464074562411  1.0000
  H   H44       1.0  0.47718815782708646  0.266331864279465  0.7373710197729366  1.0000
  H   H45       1.0  0.3569925886104315  0.6255024677547497  0.16551360351312638  1.0000
  H   H46       1.0  0.6430167062619604  0.3744835014437343  0.8345839737804184  1.0000
  H   H47       1.0  0.9923672026348314  0.7774489079291912  0.176974382765593  1.0000
  H   H48       1.0  0.007622602373963598  0.22257844466488308  0.8229914793665145  1.0000
  H   H49       1.0  0.1567757143422028  0.88320245225691  0.27850779009433785  1.0000
  H   H50       1.0  0.8431581416166694  0.1168509463079417  0.7214614775681981  1.0000
  C   C1        1.0  0.48762972768594887  0.8709124193615806  0.4102331594232069  1.0000
  C   C2        1.0  0.5123740250466042  0.129121680931064  0.5897854142775287  1.0000
  C   C3        1.0  0.409583349635497  0.8057771584932851  0.445639812402753  1.0000
  C   C4        1.0  0.5904513585592353  0.1942377838078144  0.5543507286350717  1.0000
  C   C5        1.0  0.4795174360188951  0.811913837613453  0.5204259879899737  1.0000
  C   C6        1.0  0.5205257168141344  0.18809971612827778  0.47957863026607583  1.0000
  C   C7        1.0  0.6035700297869155  0.8794700668168504  0.5309744681468089  1.0000
  C   C8        1.0  0.3964377253592345  0.12054840834802152  0.4690336255232452  1.0000
  C   C9        1.0  0.7140367042229343  0.897457250872165  0.5978988563105858  1.0000
  C   C10       1.0  0.2859407057156745  0.1025695038894838  0.402099280927608  1.0000
  C   C11       1.0  0.8292750875959383  0.9666941942085431  0.6052983927582646  1.0000
  C   C12       1.0  0.1706949297111038  0.033314275139581205  0.39468503205866773  1.0000
  C   C13       1.0  0.9576086707458982  0.9796901391102253  0.6673415367473865  1.0000
  C   C14       1.0  0.0423157908127791  0.0203280485072241  0.33264539171155855  1.0000
  C   C15       1.0  0.03858463573183709  0.056981522169408515  0.6572946831289812  1.0000
  C   C16       1.0  0.9613753599247943  0.9430256323622576  0.34267763863174855  1.0000
  C   C17       1.0  0.9600633635752301  0.09184714110047315  0.5890484825159703  1.0000
  C   C18       1.0  0.039931268812892995  0.9081374583229262  0.41091467521371783  1.0000
  C   C19       1.0  0.9988083504030666  0.1743935098751876  0.5618539021577078  1.0000
  C   C20       1.0  0.0012292945612700254  0.825580038246848  0.4381233897648187  1.0000
  C   C21       1.0  0.9246375804721648  0.20059818914490535  0.4915229674031423  1.0000
  C   C22       1.0  0.07540818626762302  0.7993651479882831  0.5084571086245191  1.0000
  C   C23       1.0  0.9470573226557518  0.28944700665929457  0.46524253079659417  1.0000
  C   C24       1.0  0.05301410698859141  0.7104992471982996  0.5347323999884992  1.0000
  C   C25       1.0  0.8745017605781982  0.28509568295066157  0.391163476072748  1.0000
  C   C26       1.0  0.1255948545225536  0.7148300898011967  0.6087919349953665  1.0000
  C   C27       1.0  0.8036452127721956  0.19448464034891802  0.3724570847802795  1.0000
  C   C28       1.0  0.19644195577919285  0.8054574692938917  0.6275201660569536  1.0000
  C   C29       1.0  0.7309695676366913  0.16007318673750595  0.29973284388400157  1.0000
  C   C30       1.0  0.269072663452576  0.8398827141733493  0.7002585099377044  1.0000
  C   C31       1.0  0.6533352170467095  0.07449209807687401  0.28523921985483003  1.0000
  C   C32       1.0  0.34661347042008833  0.925508355788786  0.7147756385243227  1.0000
  C   C33       1.0  0.5843028979015938  0.0336183136053378  0.21114186742181568  1.0000
  C   C34       1.0  0.41558902262749337  0.9664102310225786  0.7888861948603109  1.0000
  C   C35       1.0  0.5073911645616248  0.9546946496273493  0.22050226884473292  1.0000
  C   C36       1.0  0.49245956154528875  0.0453307086409822  0.7795336961500611  1.0000
  C   C37       1.0  0.5288128656034843  0.9475447562353595  0.3004939379200025  1.0000
  C   C38       1.0  0.4710677319249397  0.05249469564166992  0.6995353378452691  1.0000
  C   C39       1.0  0.4567969591279778  0.8800112429877842  0.33270741637202417  1.0000
  C   C40       1.0  0.5431386479648808  0.12003608932685951  0.6673354770801225  1.0000
  C   C41       1.0  0.7120108906999575  0.8408169229175044  0.6623476392400676  1.0000
  C   C42       1.0  0.2879764242395241  0.15919758345108906  0.3376626961905913  1.0000
  C   C43       1.0  0.7029161193032892  0.7455928487096274  0.6533748707692625  1.0000
  C   C44       1.0  0.29711966533047734  0.25442277903089666  0.34663546826982383  1.0000
  C   C45       1.0  0.7018555736822735  0.6926716057885333  0.7140167166529636  1.0000
  C   C46       1.0  0.29818731606002297  0.307340595813784  0.2859927264461319  1.0000
  C   C47       1.0  0.7105797241800217  0.7340011256164232  0.7856215212218701  1.0000
  C   C48       1.0  0.2894135190676224  0.26600927890658  0.21438283754000054  1.0000
  C   C49       1.0  0.7195284060691874  0.8287353035561085  0.7952768354328017  1.0000
  C   C50       1.0  0.28043765006590593  0.17127049161602062  0.204737638894585  1.0000
  C   C51       1.0  0.7201425520428231  0.8813439611585281  0.734547758727679  1.0000
  C   C52       1.0  0.2798169544907125  0.11866865041258728  0.2654705392466283  1.0000
  C   C53       1.0  0.7168409634844577  0.6782136106447326  0.8518874220874862  1.0000
  C   C54       1.0  0.28314875266795525  0.3217954552611815  0.1481180874701806  1.0000
  C   C55       1.0  0.12291114486785659  0.2394977407218022  0.6037496767564222  1.0000
  C   C56       1.0  0.8771314310330778  0.7604852757947143  0.3962231342677923  1.0000
  C   C57       1.0  0.127449746891898  0.28165351542291006  0.6746345462485266  1.0000
  C   C58       1.0  0.8725789283188093  0.7183505867018811  0.3253275552091567  1.0000
  C   C59       1.0  0.2343656110017562  0.35309297007368917  0.7057414560601316  1.0000
  C   C60       1.0  0.7656536062096109  0.6469199939661863  0.29421928111638357  1.0000
  C   C61       1.0  0.33873402199072444  0.3829206762316488  0.666366438508959  1.0000
  C   C62       1.0  0.6612768847511531  0.6170753680526957  0.3335871638249586  1.0000
  C   C63       1.0  0.3377792332361125  0.33878361913296134  0.5969325466495334  1.0000
  C   C64       1.0  0.6622674089788132  0.6611905533198694  0.4030284191496136  1.0000
  C   C65       1.0  0.23169039598732863  0.2679176236934354  0.5663069514706011  1.0000
  C   C66       1.0  0.7683620195392463  0.7320585603786539  0.4336618943647892  1.0000
  C   C67       1.0  0.45846076707713473  0.4575779365043148  0.6964746203058142  1.0000
  C   C68       1.0  0.5415654545826953  0.5424241350722028  0.3034750989003996  1.0000
  C   C69       1.0  0.7476056125954499  0.21581000483806181  0.23669385740589632  1.0000
  C   C70       1.0  0.25243243777254065  0.7841533735792438  0.7632923631173156  1.0000
  C   C71       1.0  0.6803305302830296  0.2965247848972865  0.22491804083155395  1.0000
  C   C72       1.0  0.3196787459301689  0.7034373802007962  0.7750738678417761  1.0000
  C   C73       1.0  0.7131876855857867  0.35371250881681254  0.1718895642179703  1.0000
  C   C74       1.0  0.28683236579903587  0.6462686055037352  0.8281202262969316  1.0000
  C   C75       1.0  0.816279055694707  0.3316977226133488  0.13162312014705438  1.0000
  C   C76       1.0  0.1837478837327922  0.6682921834875727  0.8683998607337815  1.0000
  C   C77       1.0  0.8793220608705992  0.2494013857944992  0.1410500474776128  1.0000
  C   C78       1.0  0.12075005303518083  0.7506018550969601  0.8589560950620552  1.0000
  C   C79       1.0  0.8434401417826293  0.1912961009207805  0.19243798663656972  1.0000
  C   C80       1.0  0.15664377599033233  0.8086921541340645  0.8075559325074124  1.0000
  C   C81       1.0  0.8682901213559688  0.3969312003922382  0.08178876808017321  1.0000
  C   C82       1.0  0.13171253487476528  0.6030710354065437  0.9182404340391983  1.0000
  C   C83       1.0  0.35015394557713353  0.8134455277443279  0.2789195043335866  1.0000
  C   C84       1.0  0.649776668564762  0.18657266923349883  0.7211298257205669  1.0000
  C   C85       1.0  0.4055303902585764  0.7412672997932149  0.24594941052995986  1.0000
  C   C86       1.0  0.5944160166581015  0.25871625557199  0.7541387023792652  1.0000
  C   C87       1.0  0.3130218020201808  0.6811487365116096  0.1911035402065338  1.0000
  C   C88       1.0  0.6869474920422789  0.3188394411879827  0.8089619272291984  1.0000
  C   C89       1.0  0.16349386647269884  0.693554554269987  0.1666732191549229  1.0000
  C   C90       1.0  0.8365105120352465  0.30645784690444344  0.8333565898227562  1.0000
  C   C91       1.0  0.1080846498718628  0.7669284254558804  0.1982084604197496  1.0000
  C   C92       1.0  0.8918894470302018  0.23309156032222234  0.8017851876289086  1.0000
  C   C93       1.0  0.2003715514389413  0.8260092840864247  0.25454476575018253  1.0000
  C   C94       1.0  0.7995547914092569  0.17402043113854407  0.7454532070806437  1.0000
  C   C95       1.0  0.06628807196413791  0.630404793257249  0.10544476202566952  1.0000
  C   C96       1.0  0.9337303428802101  0.36959939485065973  0.8945749978951058  1.0000
  C   C97       1.0  0.5110470802429318  0.5545687840981444  0.033922035107465796  1.0000
  C   C98       1.0  0.4889034587217225  0.44546897165466254  0.9661065022140961  1.0000
  N   N1        1.0  0.6042242960870041  0.917048800211198  0.463283010530418  1.0000
  N   N2        1.0  0.39576502280585396  0.0829772218702161  0.5367203814946678  1.0000
  N   N3        1.0  0.8344793924887027  0.0342761212687179  0.556530039342725  1.0000
  N   N4        1.0  0.1655127287062257  0.9657193388913471  0.4434283218886534  1.0000
  N   N5        1.0  0.8318875621713031  0.14424459876101994  0.4350616729319015  1.0000
  N   N6        1.0  0.16815622220769905  0.8557004333050102  0.5649141747599061  1.0000
  N   N7        1.0  0.6202860511597521  0.020577128221745504  0.33946559798337733  1.0000
  N   N8        1.0  0.3796597932295143  0.9794457266074444  0.6605585097461741  1.0000
  O   O1        1.0  0.7544484046341964  0.7143429220635014  0.9182496161082484  1.0000
  O   O2        1.0  0.24548533838969888  0.28565353506198937  0.0817654311811182  1.0000
  O   O3        1.0  0.6905986806806083  0.5906842308632676  0.8404862503372357  1.0000
  O   O4        1.0  0.309426536825903  0.40932059239254664  0.15951745951614532  1.0000
  O   O5        1.0  0.46007879870973056  0.4897832556279555  0.7660162646956294  1.0000
  O   O6        1.0  0.5399274330533714  0.5102555270487913  0.2339176935899303  1.0000
  O   O7        1.0  0.5470472963653847  0.4842817535819962  0.6605046107727403  1.0000
  O   O8        1.0  0.4530072372231331  0.5156998367029574  0.3394494308778633  1.0000
  O   O9        1.0  0.7939461302430785  0.4630012940916189  0.0610789394973565  1.0000
  O   O10       1.0  0.20604460517222384  0.5369948882770715  0.9389387418511888  1.0000
  O   O11       1.0  0.9873405327220651  0.38125769870482884  0.06416522919586497  1.0000
  O   O12       1.0  0.01267373887058913  0.6187614393622668  0.9358687858875286  1.0000
  O   O13       1.0  0.11943024115854683  0.5599986989450871  0.0842741843247978  1.0000
  O   O14       1.0  0.8806058410833583  0.4400067695436364  0.91576089075577  1.0000
  O   O15       1.0  0.9366690503934975  0.6501880361221382  0.07663493214536743  1.0000
  O   O16       1.0  0.06335524301703543  0.34979848044263673  0.9233701347278966  1.0000
  O   O17       1.0  0.6064069469895583  0.6089867099392519  0.02197718400357467  1.0000
  O   O18       1.0  0.3935757817674883  0.39102783716717937  0.9780625929998336  1.0000
  O   O19       1.0  0.42383045236479683  0.5435443685630901  0.07329056939232  1.0000
  O   O20       1.0  0.5761095963553162  0.4565022482055668  0.9267272027031765  1.0000
