data_image0
_chemical_formula_structural       Zn8H66C66N6O32
_chemical_formula_sum              "Zn8 H66 C66 N6 O32"
_cell_length_a       16.20972687810293
_cell_length_b       16.376879136968434
_cell_length_c       16.970666947833536
_cell_angle_alpha    90.66006501107097
_cell_angle_beta     117.96598975873535
_cell_angle_gamma    119.50521519573681

_space_group_name_H-M_alt    "P 1"
_space_group_IT_number       1

loop_
  _space_group_symop_operation_xyz
  'x, y, z'

loop_
  _atom_site_type_symbol
  _atom_site_label
  _atom_site_symmetry_multiplicity
  _atom_site_fract_x
  _atom_site_fract_y
  _atom_site_fract_z
  _atom_site_occupancy
  Zn  Zn1       1.0  0.0724821477745579  0.047343557659083  0.12459526405754673  1.0000
  Zn  Zn2       1.0  0.06807912659837712  0.031088514979764195  0.9380985056382587  1.0000
  Zn  Zn3       1.0  0.8668845674990634  0.029083488992426996  0.9363029572764108  1.0000
  Zn  Zn4       1.0  0.8811372482065636  0.8421441276631753  0.9615025406601564  1.0000
  Zn  Zn5       1.0  0.898739190203422  0.4609289739289793  0.35299735701064355  1.0000
  Zn  Zn6       1.0  0.8714810090432082  0.4505990768311107  0.534056447629283  1.0000
  Zn  Zn7       1.0  0.06436714266504852  0.6417571991828196  0.5355285089547481  1.0000
  Zn  Zn8       1.0  0.0824521229952069  0.46134573654950367  0.5456185282107953  1.0000
  H   H1        1.0  0.5245689152515354  0.48307467117933806  0.500607857144253  1.0000
  H   H2        1.0  0.5169453591651276  0.42227270909845055  0.5848193002618987  1.0000
  H   H3        1.0  0.4013851929114055  0.3638774058458338  0.4647438975771011  1.0000
  H   H4        1.0  0.5213601409102823  0.29299960499839267  0.5116682947952997  1.0000
  H   H5        1.0  0.6410920914284687  0.4125288070775072  0.5418403880519095  1.0000
  H   H6        1.0  0.6254974370758716  0.48345708321150477  0.4060492303369401  1.0000
  H   H7        1.0  0.4171566705157872  0.433050741045335  0.32650841986249196  1.0000
  H   H8        1.0  0.48328427907914306  0.48833810458499005  0.26592733471662205  1.0000
  H   H9        1.0  0.2800853451381116  0.32572977265705555  0.15637158186002867  1.0000
  H   H10       1.0  0.47604760534797913  0.20278966341847135  0.2259313668402285  1.0000
  H   H11       1.0  0.5607174029915568  0.3952357474436923  0.22952870948646617  1.0000
  H   H12       1.0  0.1589354969893009  0.09160332408298899  0.4747585282585264  1.0000
  H   H13       1.0  0.29845111740316094  0.1848016099854988  0.569392562887309  1.0000
  H   H14       1.0  0.2569000962130231  0.18271927707738905  0.4517819354704146  1.0000
  H   H15       1.0  0.26473014869678485  0.31616410722779154  0.5360988913958097  1.0000
  H   H16       1.0  0.1613734522487107  0.2258644597188209  0.5547942033625193  1.0000
  H   H17       1.0  0.9803510333914572  0.18913731794415153  0.44962112560942574  1.0000
  H   H18       1.0  0.9535254258382152  0.0314065519010995  0.37350633003946865  1.0000
  H   H19       1.0  0.829771853538304  0.030165667123476694  0.3238431788461399  1.0000
  H   H20       1.0  0.859589713880787  0.978784888212864  0.19672794871139831  1.0000
  H   H21       1.0  0.01180302715000886  0.2876832102616333  0.22813126007751092  1.0000
  H   H22       1.0  0.8519322030974407  0.18367468741146808  0.2677815050474237  1.0000
  H   H23       1.0  0.43200770644793357  0.05762293296245961  0.5037998778290388  1.0000
  H   H24       1.0  0.43984301110458557  0.1036864648352065  0.6040525380630019  1.0000
  H   H25       1.0  0.3297750223150331  0.07949595578753592  0.48876292404547433  1.0000
  H   H26       1.0  0.26072425543254235  0.9481678095923198  0.5614187898921801  1.0000
  H   H27       1.0  0.35718719578903085  0.9205164763546634  0.5703940915358034  1.0000
  H   H28       1.0  0.2886688880319215  0.7958952773684019  0.44033542821844684  1.0000
  H   H29       1.0  0.3660350790150845  0.9402361089403115  0.3768890325023977  1.0000
  H   H30       1.0  0.3073360784840561  0.8236934743572065  0.3050116945050549  1.0000
  H   H31       1.0  0.23462678791896255  0.9268462289894045  0.21203395932265326  1.0000
  H   H32       1.0  0.9650313115877791  0.7400303070662133  0.25044069594927987  1.0000
  H   H33       1.0  0.10141939642630866  0.6864110194049502  0.258569164776283  1.0000
  H   H34       1.0  0.4138261732577888  0.43409411320532604  0.9260648785579237  1.0000
  H   H35       1.0  0.45385234636844973  0.4109566990948679  0.8517946004796503  1.0000
  H   H36       1.0  0.34465527715539684  0.3106566865802235  0.8584176139334975  1.0000
  H   H37       1.0  0.2665349478254342  0.3516011298266121  0.709113818794883  1.0000
  H   H38       1.0  0.3282116438809767  0.47297178912391047  0.7749467738887436  1.0000
  H   H39       1.0  0.21276756483439388  0.4958636645459151  0.8104521549415653  1.0000
  H   H40       1.0  0.2980567307311972  0.4503722398806929  0.9609495044911754  1.0000
  H   H41       1.0  0.20515960003099554  0.48204747499428174  0.9516631315586184  1.0000
  H   H42       1.0  0.1586444734340162  0.31774672571651047  0.9937572282968647  1.0000
  H   H43       1.0  0.9261863747221213  0.1979248416873034  0.6950388888227085  1.0000
  H   H44       1.0  0.008184026008180537  0.3806295485180726  0.7950122992349268  1.0000
  H   H45       1.0  0.0970312940390414  0.061373327322620186  0.6484917422234064  1.0000
  H   H46       1.0  0.231186370848512  0.10440565040471479  0.6681327441607154  1.0000
  H   H47       1.0  0.19958993221075616  0.0604727187403498  0.7522925901958434  1.0000
  H   H48       1.0  0.19275821431388337  0.936211079900822  0.6566804118604568  1.0000
  H   H49       1.0  0.08632363947589279  0.931028912851339  0.5518232557288699  1.0000
  H   H50       1.0  0.901509922105362  0.7958879489587289  0.4987239146429875  1.0000
  H   H51       1.0  0.8948856715652764  0.9282737800422253  0.5762643961254952  1.0000
  H   H52       1.0  0.7663704189948178  0.8103872250817756  0.5168953845030374  1.0000
  H   H53       1.0  0.8323376734168805  0.8924204223262252  0.6894162345515016  1.0000
  H   H54       1.0  0.955651553855951  0.7069740091828294  0.7432854770126058  1.0000
  H   H55       1.0  0.785712696400367  0.6669810111501706  0.5691656070670562  1.0000
  H   H56       1.0  0.5072038267668689  0.0335116161251108  0.9522764399066619  1.0000
  H   H57       1.0  0.4802126984265059  0.1050071375014525  0.8788304111685081  1.0000
  H   H58       1.0  0.57672869393042  0.0753007976540516  0.8909410271263031  1.0000
  H   H59       1.0  0.38866339311082493  0.9714109312340895  0.7365873235376201  1.0000
  H   H60       1.0  0.31942978407355604  0.9247919298892385  0.7974839487220254  1.0000
  H   H61       1.0  0.3007735341752352  0.7780372087406776  0.834432075991835  1.0000
  H   H62       1.0  0.4993371980060957  0.8954139455357221  0.9881451078497538  1.0000
  H   H63       1.0  0.43549512331964735  0.7691680528951039  0.9779262723144203  1.0000
  H   H64       1.0  0.6474531970970008  0.8600746647260706  0.025773456455290528  1.0000
  H   H65       1.0  0.47418883578362875  0.7378644565844181  0.7281795455189127  1.0000
  H   H66       1.0  0.3757994100063656  0.6605636401626144  0.8247978899825201  1.0000
  C   C1        1.0  0.49397171004646606  0.4103295112333781  0.5116368559750769  1.0000
  C   C2        1.0  0.547972209014695  0.363005490473597  0.4954713049432373  1.0000
  C   C3        1.0  0.5495933066986396  0.4122679295455639  0.35278423053064506  1.0000
  C   C4        1.0  0.45168035280553903  0.42208516498060783  0.28790477140553616  1.0000
  C   C5        1.0  0.35835679760340605  0.3311689218648723  0.20343114847215565  1.0000
  C   C6        1.0  0.3649292676493658  0.2541407790692105  0.1890401470200729  1.0000
  C   C7        1.0  0.2622803497007169  0.15865306841056534  0.11604506771480771  1.0000
  C   C8        1.0  0.4707588195254005  0.25806444710379844  0.2562690222778486  1.0000
  C   C9        1.0  0.5703491874506454  0.3665279234064585  0.28902659568376526  1.0000
  C   C10       1.0  0.6862565224206351  0.3844789215146847  0.340843921001536  1.0000
  C   C11       1.0  0.47608405568689705  0.24645659444793472  0.3489533867922249  1.0000
  C   C12       1.0  0.22792537142783686  0.16997992077063628  0.5001011111944892  1.0000
  C   C13       1.0  0.19192507112736482  0.23859803567119534  0.5074561259781023  1.0000
  C   C14       1.0  0.9844392708805573  0.17789889867761133  0.3879388445650138  1.0000
  C   C15       1.0  0.9133374223107396  0.0674778393518025  0.33288023340595885  1.0000
  C   C16       1.0  0.9000008297122973  0.0536237117098537  0.23889305442795467  1.0000
  C   C17       1.0  0.943594270203164  0.13049518713955172  0.20908822019480075  1.0000
  C   C18       1.0  0.9481637337579158  0.11485609517067272  0.1250443532113508  1.0000
  C   C19       1.0  0.004821436851777601  0.2356560012721332  0.26849588108035505  1.0000
  C   C20       1.0  0.9438029880044426  0.22945744244395877  0.31819266016224657  1.0000
  C   C21       1.0  0.9745646327519852  0.3285518219208329  0.3638710173162496  1.0000
  C   C22       1.0  0.12240470011421678  0.26709246927291724  0.3529225765207472  1.0000
  C   C23       1.0  0.38139843790978745  0.053276776520661394  0.5314658385505526  1.0000
  C   C24       1.0  0.30643868194678703  0.9485038242398716  0.5297291040394684  1.0000
  C   C25       1.0  0.23626208613757874  0.8164922648953022  0.38803969890594203  1.0000
  C   C26       1.0  0.2860035199894496  0.867661528117324  0.331293149872913  1.0000
  C   C27       1.0  0.20446837253328445  0.8811925894915759  0.2510789860713274  1.0000
  C   C28       1.0  0.09914059040892907  0.8433315111617644  0.2299274594866034  1.0000
  C   C29       1.0  0.025126902928796917  0.8663967467471849  0.1550527212965705  1.0000
  C   C30       1.0  0.05727951045130897  0.7850803184575594  0.28679880860436674  1.0000
  C   C31       1.0  0.113084313907784  0.7275127047180305  0.31855879643045176  1.0000
  C   C32       1.0  0.06432602059016546  0.6562975401629743  0.36479688102966185  1.0000
  C   C33       1.0  0.1160875570861961  0.8608545565653287  0.38213302760252094  1.0000
  C   C34       1.0  0.38154913615297664  0.3875746363593889  0.8580697469367636  1.0000
  C   C35       1.0  0.2934295677545223  0.39613773580502  0.7758537171632442  1.0000
  C   C36       1.0  0.171166239190299  0.42161131597487866  0.816942894211117  1.0000
  C   C37       1.0  0.20886946960156658  0.42598255150170433  0.9194590539963062  1.0000
  C   C38       1.0  0.13588036063226383  0.3265595711702147  0.924393319741782  1.0000
  C   C39       1.0  0.04714562729731852  0.248212913090363  0.847119825360217  1.0000
  C   C40       1.0  0.9858207412585359  0.14975997310882858  0.8584780888854698  1.0000
  C   C41       1.0  0.013102472676308721  0.2578002756644651  0.7495649950492054  1.0000
  C   C42       1.0  0.039692829525975436  0.36311576807638346  0.7572931508932402  1.0000
  C   C43       1.0  0.9941404656781432  0.38150900419915956  0.6635982710063646  1.0000
  C   C44       1.0  0.09895849013933138  0.2646915363942667  0.7283782242708698  1.0000
  C   C45       1.0  0.1643285386060072  0.048544072252717306  0.6767212776668432  1.0000
  C   C46       1.0  0.1221025138787012  0.9449695254776315  0.6276577454276052  1.0000
  C   C47       1.0  0.9150575413235414  0.8069804442870775  0.568756399638133  1.0000
  C   C48       1.0  0.8545942741858995  0.8515914222768401  0.5780366796235871  1.0000
  C   C49       1.0  0.8591793230523949  0.851377544036744  0.668579718281457  1.0000
  C   C50       1.0  0.9049235703185589  0.8105797336207488  0.7277364276898272  1.0000
  C   C51       1.0  0.9329365904661769  0.833158676543924  0.8258491653361234  1.0000
  C   C52       1.0  0.9490439975013844  0.7579722216900537  0.7034795188119392  1.0000
  C   C53       1.0  0.8761505621912277  0.7110059647942819  0.595427162264379  1.0000
  C   C54       1.0  0.9048997980862482  0.6455282853487886  0.5664369442843268  1.0000
  C   C55       1.0  0.06397601581434754  0.8386092076492988  0.7187035993365715  1.0000
  C   C56       1.0  0.49687091798848126  0.0471857777245575  0.8860710787808944  1.0000
  C   C57       1.0  0.3990630611052524  0.9538212797504214  0.8016005491127063  1.0000
  C   C58       1.0  0.3803698150951078  0.7968376234185257  0.8434995279897282  1.0000
  C   C59       1.0  0.47189217815780177  0.8245466733300545  0.9469948998486334  1.0000
  C   C60       1.0  0.571943372366441  0.8315675090892753  0.9556136017827727  1.0000
  C   C61       1.0  0.5744483805389964  0.8112259822475067  0.8799276240573594  1.0000
  C   C62       1.0  0.6829899992272531  0.8389026519136137  0.8924384593615786  1.0000
  C   C63       1.0  0.47263706384914167  0.7749353607585618  0.7810672117930296  1.0000
  C   C64       1.0  0.367581914467884  0.7125192097329671  0.7865096945323702  1.0000
  C   C65       1.0  0.25757713106529684  0.6531734754066534  0.6911532797626665  1.0000
  C   C66       1.0  0.4654325080680763  0.8637203670687582  0.7589918009436618  1.0000
  N   N1        1.0  0.517370946886743  0.338214661469216  0.39903706845099424  1.0000
  N   N2        1.0  0.10282104203412248  0.22748343266982116  0.41736396101942586  1.0000
  N   N3        1.0  0.22071638743241803  0.8784076190766752  0.4352521647841457  1.0000
  N   N4        1.0  0.19139290903604692  0.36008760915271415  0.7754665334064728  1.0000
  N   N5        1.0  0.03709940168890565  0.8672916417821525  0.6402985426089531  1.0000
  N   N6        1.0  0.41690225366697603  0.8749930922258147  0.801944704550522  1.0000
  O   O1        1.0  0.9708589345161016  0.9868595997403415  0.9878777584895463  1.0000
  O   O2        1.0  0.2201302036907578  0.15191867225538397  0.029111107514701504  1.0000
  O   O3        1.0  0.22040379904129995  0.0881094979577668  0.14690065248376538  1.0000
  O   O4        1.0  0.7197292802924977  0.36519813721452005  0.41826249557936296  1.0000
  O   O5        1.0  0.7420582240426017  0.41939540037360246  0.30211123483048413  1.0000
  O   O6        1.0  0.44801260030539675  0.17101172987477745  0.37173343603980413  1.0000
  O   O7        1.0  0.8571887065718897  0.0668859630013401  0.04385415853949584  1.0000
  O   O8        1.0  0.047852630250986294  0.15075485135613317  0.14205641331698624  1.0000
  O   O9        1.0  0.06342412719174467  0.37920943536740037  0.44659807325928125  1.0000
  O   O10       1.0  0.9069188129674116  0.35242365269276377  0.3145412844899981  1.0000
  O   O11       1.0  0.2138419229072356  0.31618354745192095  0.36001082674767576  1.0000
  O   O12       1.0  0.9628442118455994  0.808905329660007  0.07106411057667833  1.0000
  O   O13       1.0  0.03098365733185929  0.9438294836852068  0.1814636102707255  1.0000
  O   O14       1.0  0.11930173873853539  0.6867288000125243  0.4543016370245569  1.0000
  O   O15       1.0  0.9715607222616784  0.57251832464501  0.3108934312382204  1.0000
  O   O16       1.0  0.07701304048932656  0.8983678193722111  0.40436973282091065  1.0000
  O   O17       1.0  0.92334420092741  0.13863533162908226  0.8888703235150291  1.0000
  O   O18       1.0  0.0020197648766072237  0.08553437021911493  0.8391242547691535  1.0000
  O   O19       1.0  0.02632065903787146  0.36993634610104914  0.6114181101159419  1.0000
  O   O20       1.0  0.9264849946415552  0.40826732445506053  0.6443043278942611  1.0000
  O   O21       1.0  0.08798614197673524  0.19882873624845845  0.6805534673571858  1.0000
  O   O22       1.0  0.8561262149814011  0.7843520859940366  0.8422619955935035  1.0000
  O   O23       1.0  0.03582392652607063  0.9036151832298103  0.8877712951337886  1.0000
  O   O24       1.0  0.970676927756358  0.6823325765236844  0.5368324275995563  1.0000
  O   O25       1.0  0.8624268906078002  0.5596822575372967  0.5754809388044324  1.0000
  O   O26       1.0  0.1592513982805812  0.8706472412146624  0.7873575381858589  1.0000
  O   O27       1.0  0.7339207765400247  0.8016046773001619  0.9425958647111731  1.0000
  O   O28       1.0  0.7188327505398178  0.9014757862044291  0.8525939582673562  1.0000
  O   O29       1.0  0.1975842168729897  0.687886507572635  0.6613120955364311  1.0000
  O   O30       1.0  0.23381001384323244  0.5719058240107842  0.6491812542044928  1.0000
  O   O31       1.0  0.49715347887701  0.9138971776845608  0.7133372123344943  1.0000
  O   O32       1.0  0.9744449894062797  0.49752574860706017  0.4904015906300432  1.0000
