data_image0
_chemical_formula_structural       Co4H28C36N8O20
_chemical_formula_sum              "Co4 H28 C36 N8 O20"
_cell_length_a       5.969054167232315
_cell_length_b       7.823229430729585
_cell_length_c       26.831335337461184
_cell_angle_alpha    89.0852418512411
_cell_angle_beta     90.00576471823595
_cell_angle_gamma    89.9962186051125

_space_group_name_H-M_alt    "P 1"
_space_group_IT_number       1

loop_
  _space_group_symop_operation_xyz
  'x, y, z'

loop_
  _atom_site_type_symbol
  _atom_site_label
  _atom_site_symmetry_multiplicity
  _atom_site_fract_x
  _atom_site_fract_y
  _atom_site_fract_z
  _atom_site_occupancy
  Co  Co1       1.0  0.9605319427070069  0.7461463479748575  0.7189210078013915  1.0000
  Co  Co2       1.0  0.04149593221379179  0.7423024137706663  0.28104299578419767  1.0000
  Co  Co3       1.0  0.46050321569764907  0.253997459691405  0.7810911234467  1.0000
  Co  Co4       1.0  0.5415697672272869  0.25768913101455126  0.21893132209446972  1.0000
  H   H1        1.0  0.014516515647215997  0.5946182050819927  0.8452358338767993  1.0000
  H   H2        1.0  0.8397193154799822  0.8617855169426039  0.8631897784204058  1.0000
  H   H3        1.0  0.6052889811154215  0.7385055747593583  0.8450915302396922  1.0000
  H   H4        1.0  0.06585311203457418  0.6172933255975155  0.6179073836276601  1.0000
  H   H5        1.0  0.8679018664124313  0.6085378404154796  0.5354403255255207  1.0000
  H   H6        1.0  0.3058980016834169  0.8546966025532613  0.6061405394042936  1.0000
  H   H7        1.0  0.5315324661197136  0.8606958435584815  0.6843869914066049  1.0000
  H   H8        1.0  0.98789743585678  0.6046454232614166  0.1547379244141354  1.0000
  H   H9        1.0  0.15738293815228127  0.8759082467661443  0.1369283814057241  1.0000
  H   H10       1.0  0.3941922127396253  0.7521479054428754  0.154301538294952  1.0000
  H   H11       1.0  0.929754000776853  0.617059095523004  0.3831717727302221  1.0000
  H   H12       1.0  0.12099479748728467  0.6131658259277728  0.4664937051542921  1.0000
  H   H13       1.0  0.6963932706767577  0.8401344469996133  0.3934922552377884  1.0000
  H   H14       1.0  0.4774611373572951  0.8418738819489775  0.3143292762991692  1.0000
  H   H15       1.0  0.5145565613783273  0.40538300872572824  0.6547631984865134  1.0000
  H   H16       1.0  0.339679575531015  0.13824532150251662  0.6368199749766816  1.0000
  H   H17       1.0  0.10530027943141108  0.26165999311005805  0.6548898561364143  1.0000
  H   H18       1.0  0.5660017426256301  0.38267172385505427  0.8820760858510897  1.0000
  H   H19       1.0  0.3683318335484315  0.3913067320022776  0.9645607389176123  1.0000
  H   H20       1.0  0.8060362578164443  0.14547471379833607  0.8938763973690982  1.0000
  H   H21       1.0  0.03133488601738319  0.1397037928083833  0.8156001470673714  1.0000
  H   H22       1.0  0.4876899115722181  0.39524574594252476  0.3452535846905604  1.0000
  H   H23       1.0  0.6572353660414194  0.1239499210655524  0.36303921963340713  1.0000
  H   H24       1.0  0.8940572475159809  0.2477606396907106  0.3457025149241844  1.0000
  H   H25       1.0  0.4300076257356763  0.3827910868071172  0.1168055277703601  1.0000
  H   H26       1.0  0.6213189192154616  0.3867952753504582  0.0335101936568876  1.0000
  H   H27       1.0  0.19675004453187478  0.15980901937211206  0.106548146773001  1.0000
  H   H28       1.0  0.9777528031787026  0.1579853076907156  0.18568328109125076  1.0000
  C   C1        1.0  0.7937309528192527  0.5263063098377073  0.7845735613508752  1.0000
  C   C2        1.0  0.9309310473842556  0.6581929187541748  0.8131794244663482  1.0000
  C   C3        1.0  0.7649640310275951  0.793763100161172  0.8318387912417793  1.0000
  C   C4        1.0  0.7080701635307988  0.926752580635096  0.791723025068947  1.0000
  C   C5        1.0  0.8991539106615533  0.6709905256429425  0.6129236455674347  1.0000
  C   C6        1.0  0.7883939222119025  0.6655682675792675  0.5676551212622627  1.0000
  C   C7        1.0  0.5707052099949692  0.7335713999203081  0.564076952127806  1.0000
  C   C8        1.0  0.4747150120869319  0.8022614257887711  0.6069012954762627  1.0000
  C   C9        1.0  0.5983361977264393  0.8056268975164544  0.6506421316795328  1.0000
  C   C10       1.0  0.2101130656012415  0.5312861911629909  0.21524667392419164  1.0000
  C   C11       1.0  0.07101370580480187  0.6653633571922198  0.1867403077747056  1.0000
  C   C12       1.0  0.23445606079881284  0.8044988240354058  0.16800955540072243  1.0000
  C   C13       1.0  0.29156181211148174  0.9326578863425967  0.20821397185616067  1.0000
  C   C14       1.0  0.09778766049671357  0.6680762135777557  0.38782079825132604  1.0000
  C   C15       1.0  0.2050685880398077  0.6648566752137058  0.43357440825536747  1.0000
  C   C16       1.0  0.4247771190211294  0.7288915573756682  0.4366973942907748  1.0000
  C   C17       1.0  0.5260623723460397  0.7907255726972835  0.39297708147206123  1.0000
  C   C18       1.0  0.40590538611622407  0.7920481001728064  0.3487499935592382  1.0000
  C   C19       1.0  0.29374884340924007  0.4738086234672281  0.7154085328649842  1.0000
  C   C20       1.0  0.43091885619541864  0.34187181684391993  0.686815324514015  1.0000
  C   C21       1.0  0.26493210645065784  0.20631945153662204  0.6681556197421659  1.0000
  C   C22       1.0  0.20799554244162974  0.07338057706517992  0.7082781748785152  1.0000
  C   C23       1.0  0.3993140967694868  0.3289884577246626  0.8870726890080932  1.0000
  C   C24       1.0  0.28871741328465106  0.3343353961369928  0.9323550392502613  1.0000
  C   C25       1.0  0.07105406959883706  0.2663607462923919  0.9359455194084774  1.0000
  C   C26       1.0  0.9748874886414072  0.19784093741566278  0.8931106242515484  1.0000
  C   C27       1.0  0.09832288280705367  0.1945732019571054  0.8493519959871919  1.0000
  C   C28       1.0  0.7100462475037687  0.4686830677402656  0.2847556491697176  1.0000
  C   C29       1.0  0.5709256468224239  0.3345808790558209  0.3132428226978662  1.0000
  C   C30       1.0  0.7343206724834485  0.1954019315688171  0.33198397987942496  1.0000
  C   C31       1.0  0.7915110833631472  0.067288068167997  0.29177584763719727  1.0000
  C   C32       1.0  0.5980446574025108  0.33182453672197443  0.11217665252480913  1.0000
  C   C33       1.0  0.7053622195826885  0.33505387129358155  0.0664327969837899  1.0000
  C   C34       1.0  0.925065018736795  0.27099369181270566  0.0633269921827022  1.0000
  C   C35       1.0  0.026375374305842993  0.20916441180668952  0.10705673536017461  1.0000
  C   C36       1.0  0.9061602463784761  0.20785702390504923  0.15127528267957055  1.0000
  N   N1        1.0  0.8072895927480698  0.7415796640588538  0.6539242896082769  1.0000
  N   N2        1.0  0.4397626616894996  0.7355797441488576  0.520485719334026  1.0000
  N   N3        1.0  0.19449443409887116  0.7329869228785385  0.3459587985527222  1.0000
  N   N4        1.0  0.5541211079790642  0.7331196852526034  0.48044317481294746  1.0000
  N   N5        1.0  0.30731510531657585  0.2585409502537317  0.8460678665592597  1.0000
  N   N6        1.0  0.9401403656213813  0.26434095757281284  0.9795358104042364  1.0000
  N   N7        1.0  0.6947018571191419  0.26688676423331265  0.1540582761575209  1.0000
  N   N8        1.0  0.05446791461650238  0.26673862265685944  0.019587069386894  1.0000
  O   O1        1.0  0.7848391503539174  0.5566414563835664  0.737667996408625  1.0000
  O   O2        1.0  0.08949862487220628  0.7353662514657273  0.7819242524734662  1.0000
  O   O3        1.0  0.7446088963599138  0.9058939293780811  0.7454284817854031  1.0000
  O   O4        1.0  0.6185367547168212  0.06070755290080139  0.8093832028971732  1.0000
  O   O5        1.0  0.6897197166790434  0.40719316931556176  0.8075191854970714  1.0000
  O   O6        1.0  0.21928831066873034  0.5563901457277397  0.26215339771533763  1.0000
  O   O7        1.0  0.9118382057892447  0.737735587026009  0.2181466006256159  1.0000
  O   O8        1.0  0.2554377833930701  0.906420926291986  0.2545095063923384  1.0000
  O   O9        1.0  0.38102408888673267  0.0686836636706687  0.19061301719425222  1.0000
  O   O10       1.0  0.3150217248165176  0.4153009813632025  0.192238879689242  1.0000
  O   O11       1.0  0.28477851848509056  0.4434866267446722  0.7623126842203689  1.0000
  O   O12       1.0  0.5894692203198345  0.2646818944502058  0.7180786504127284  1.0000
  O   O13       1.0  0.2445253363085341  0.0942875252399844  0.7545814469308498  1.0000
  O   O14       1.0  0.1184788096168745  0.9394199258393171  0.690624765922813  1.0000
  O   O15       1.0  0.1897539247903309  0.5929396974633222  0.6924669554805407  1.0000
  O   O16       1.0  0.7193630437608717  0.4435686816832032  0.2378413949164013  1.0000
  O   O17       1.0  0.4118004365193926  0.2622381686034529  0.2818219841687011  1.0000
  O   O18       1.0  0.7555315558027473  0.0935905253286577  0.24546939275280985  1.0000
  O   O19       1.0  0.8808861879519367  0.931215458712508  0.30937540600641  1.0000
  O   O20       1.0  0.814904488526963  0.5846988671245087  0.30776039420456414  1.0000
