data_image0
_chemical_formula_structural       Gd2P4H26C12N2O22
_chemical_formula_sum              "Gd2 P4 H26 C12 N2 O22"
_cell_length_a       8.695075778742803
_cell_length_b       9.631659593104882
_cell_length_c       9.580845567094533
_cell_angle_alpha    109.38247076462271
_cell_angle_beta     95.62888213615992
_cell_angle_gamma    111.54495648640058

_space_group_name_H-M_alt    "P 1"
_space_group_IT_number       1

loop_
  _space_group_symop_operation_xyz
  'x, y, z'

loop_
  _atom_site_type_symbol
  _atom_site_label
  _atom_site_symmetry_multiplicity
  _atom_site_fract_x
  _atom_site_fract_y
  _atom_site_fract_z
  _atom_site_occupancy
  Gd  Gd1       1.0  0.6260391742818427  0.7381522436889083  0.8257335021836241  1.0000
  Gd  Gd2       1.0  0.37395271716984274  0.26184605311107134  0.17426498771725116  1.0000
  P   P1        1.0  0.7327325699074976  0.4945075111410162  0.5113655089912187  1.0000
  P   P2        1.0  0.26725670522390743  0.505482400514083  0.48863736933567037  1.0000
  P   P3        1.0  0.803724633053868  0.015792743148928402  0.6271518735469641  1.0000
  P   P4        1.0  0.19628436338324218  0.9842047788088025  0.3728452083907997  1.0000
  H   H1        1.0  0.6552535571526903  0.35420939069344826  0.7353302922035071  1.0000
  H   H2        1.0  0.3447460922160345  0.6457855420513707  0.26467012697825953  1.0000
  H   H3        1.0  0.0015881953048833663  0.6242336950468258  0.5502388513986675  1.0000
  H   H4        1.0  0.9983951350857158  0.375806246095749  0.44975809311591075  1.0000
  H   H5        1.0  0.8566180411818607  0.9361559851338652  0.3958515803628374  1.0000
  H   H6        1.0  0.1433949490425164  0.0638428625409375  0.604147419367486  1.0000
  H   H7        1.0  0.015056751019329863  0.8607795585018322  0.9645490189136582  1.0000
  H   H8        1.0  0.9849304305976219  0.13921016767873343  0.035444162512320077  1.0000
  H   H9        1.0  0.9356569531745152  0.8535917248131212  0.1050260628004622  1.0000
  H   H10       1.0  0.06433955430737369  0.14639827165281358  0.8949693197260657  1.0000
  H   H11       1.0  0.8976177404632255  0.319415087399392  0.9596184099900641  1.0000
  H   H12       1.0  0.10237824457129821  0.6805990736689224  0.0403949065685296  1.0000
  H   H13       1.0  0.8115509766252985  0.46369719067587306  0.9831300818638767  1.0000
  H   H14       1.0  0.18845537066445672  0.5363266562865547  0.016871789517786322  1.0000
  H   H15       1.0  0.002385741527064108  0.36932384700305926  0.7399629224696797  1.0000
  H   H16       1.0  0.9976186176764018  0.6306796563611741  0.2600428051869912  1.0000
  H   H17       1.0  0.9433823952148259  0.5350581845459033  0.7777983116633396  1.0000
  H   H18       1.0  0.05662049882764819  0.46494396298138696  0.2221984698431214  1.0000
  H   H19       1.0  0.674467316905343  0.150385792579975  0.7994750003508744  1.0000
  H   H20       1.0  0.32555029545977027  0.8496132104494905  0.20052666792271626  1.0000
  H   H21       1.0  0.5500804439075395  0.0653187617035016  0.6127930898563961  1.0000
  H   H22       1.0  0.44992942252262225  0.9346789405767381  0.3872156351681113  1.0000
  H   H23       1.0  0.7719392282960273  0.23722896329919513  0.4552520888618831  1.0000
  H   H24       1.0  0.228067611135785  0.7627722044922649  0.5447531941103635  1.0000
  H   H25       1.0  0.5667989561823248  0.22130681228833277  0.47129611216978173  1.0000
  H   H26       1.0  0.4332072215909975  0.7786870836514697  0.5287036894628019  1.0000
  C   C1        1.0  0.9152087730463095  0.43325724611867855  0.9474983103683245  1.0000
  C   C2        1.0  0.08478947777147283  0.5667532152173108  0.0525026238411428  1.0000
  C   C3        1.0  0.9128648610098509  0.4170173863982781  0.7842784783695154  1.0000
  C   C4        1.0  0.08713729590120069  0.5829859853900244  0.21572173370088174  1.0000
  C   C5        1.0  0.6817626653947998  0.1385670127347609  0.6829032040631164  1.0000
  C   C6        1.0  0.3182501284771106  0.8614342616647973  0.31709861995192073  1.0000
  C   C7        1.0  0.7039507554055646  0.2986867957067573  0.5231077138021121  1.0000
  C   C8        1.0  0.29605292093596347  0.7013071168782757  0.47689807085946256  1.0000
  C   C9        1.0  0.40618585892377024  0.94027076681531  0.9519980307079694  1.0000
  C   C10       1.0  0.5938174399252175  0.0597326505489733  0.048003371162572306  1.0000
  C   C11       1.0  0.4921616372282998  0.5703710369588393  0.0624720038727062  1.0000
  C   C12       1.0  0.5078272876050535  0.42962836600086257  0.9375254463344903  1.0000
  N   N1        1.0  0.7367767729958602  0.30476483199435483  0.6820112003004939  1.0000
  N   N2        1.0  0.26322732935562954  0.6952326693552209  0.31799366638060184  1.0000
  O   O1        1.0  0.5336823206795175  0.7039046780134086  0.0481194489908034  1.0000
  O   O2        1.0  0.46628994614283675  0.296079831298826  0.9518703870510452  1.0000
  O   O3        1.0  0.3864607159156392  0.8138540857169615  0.8408960305390069  1.0000
  O   O4        1.0  0.6135496854219156  0.1861579395201218  0.15910887809209132  1.0000
  O   O5        1.0  0.4343378748873762  0.5364431698260931  0.16938909383467407  1.0000
  O   O6        1.0  0.5656608138029641  0.46355542737914124  0.8306186255244016  1.0000
  O   O7        1.0  0.28879160571428747  0.9801243162012342  0.9944200581439306  1.0000
  O   O8        1.0  0.7112136115001347  0.019884032289894497  0.005588326567682595  1.0000
  O   O9        1.0  0.9054231146899099  0.5668720298391959  0.4599665735699716  1.0000
  O   O10       1.0  0.09456201270864995  0.4331236206786855  0.5400261345599449  1.0000
  O   O11       1.0  0.7615425885687586  0.6121578102180153  0.6716294231158529  1.0000
  O   O12       1.0  0.23845339933762238  0.3878333027117193  0.3283610273453378  1.0000
  O   O13       1.0  0.5920770478878197  0.45443466664011106  0.3809567451468824  1.0000
  O   O14       1.0  0.40790578042246756  0.5455562413960422  0.6190436147432055  1.0000
  O   O15       1.0  0.9946668105656258  0.10352251907898588  0.7018623936410364  1.0000
  O   O16       1.0  0.005346037695261378  0.8964787283712707  0.29813733971668194  1.0000
  O   O17       1.0  0.7011170256683315  0.8759079447063627  0.6679798162483764  1.0000
  O   O18       1.0  0.2988947682291255  0.1240908843417472  0.33202008433912783  1.0000
  O   O19       1.0  0.7699288622478235  0.9649127823302377  0.4468388144125441  1.0000
  O   O20       1.0  0.23008130332171822  0.03508477172884031  0.5531584119967052  1.0000
  O   O21       1.0  0.9058660494057593  0.8208765259456713  0.9917411769233556  1.0000
  O   O22       1.0  0.0941277481902958  0.17910979060373217  0.008252743983362587  1.0000
