data_image0
_chemical_formula_structural       Nd4P8H48C24N4O44
_chemical_formula_sum              "Nd4 P8 H48 C24 N4 O44"
_cell_length_a       8.999314053
_cell_length_b       11.01488046037259
_cell_length_c       15.2172
_cell_angle_alpha    93.03004846179626
_cell_angle_beta     90.0
_cell_angle_gamma    90.0

_space_group_name_H-M_alt    "P 1"
_space_group_IT_number       1

loop_
  _space_group_symop_operation_xyz
  'x, y, z'

loop_
  _atom_site_type_symbol
  _atom_site_label
  _atom_site_symmetry_multiplicity
  _atom_site_fract_x
  _atom_site_fract_y
  _atom_site_fract_z
  _atom_site_occupancy
  Nd  Nd1       1.0  0.2525192460910333  0.4077983275717968  0.6140839130484181  1.0000
  Nd  Nd2       1.0  0.7525217988967086  0.5922015716961795  0.8859143087893387  1.0000
  Nd  Nd3       1.0  0.7474803035413089  0.5921997534285879  0.38591358206736714  1.0000
  Nd  Nd4       1.0  0.24748552910624969  0.4077992367055927  0.11408197638048993  1.0000
  P   P1        1.0  0.1526771920513141  0.6409275065596134  0.4525803402861116  1.0000
  P   P2        1.0  0.6526797448569965  0.3590678470393911  0.04742033622898841  1.0000
  P   P3        1.0  0.8473212463852207  0.3590651196380037  0.5474189175704752  1.0000
  P   P4        1.0  0.3473231383627535  0.6409275065596134  0.9525783688327535  1.0000
  P   P5        1.0  0.1991985155137925  0.0606192231663556  0.6031428330017407  1.0000
  P   P6        1.0  0.6991955123404523  0.939379766967825  0.8968586398061832  1.0000
  P   P7        1.0  0.8008043677059575  0.939379766967825  0.3968579826550638  1.0000
  P   P8        1.0  0.3007995925086746  0.0606192231663556  0.10314151869950192  1.0000
  H   H1        1.0  0.3580128419816546  0.048502287949929695  0.7092093235051706  1.0000
  H   H2        1.0  0.8580098388083215  0.9514967021842508  0.7907947779072303  1.0000
  H   H3        1.0  0.6419867076506804  0.9514976113180464  0.2907954698437721  1.0000
  H   H4        1.0  0.141987488432413  0.0485041062175142  0.2092074216226649  1.0000
  H   H5        1.0  0.471500380474609  0.3690974110630734  0.4470700512518491  1.0000
  H   H6        1.0  0.9715073780634924  0.6309043064724875  0.05292364009893191  1.0000
  H   H7        1.0  0.5284936131787177  0.6309079430076706  0.5529218077872784  1.0000
  H   H8        1.0  0.0284988387436584  0.3690955927954818  0.9470712959832285  1.0000
  H   H9        1.0  0.5588270361921133  0.3968487201478297  0.5314448380362364  1.0000
  H   H10       1.0  0.05882337219063061  0.6031502699863509  0.968546777504905  1.0000
  H   H11       1.0  0.4411780694192444  0.6031511791201467  0.46854484083697673  1.0000
  H   H12       1.0  0.9411739550501039  0.3968478110140339  0.0314461175530454  1.0000
  H   H13       1.0  0.100653226975453  0.9175951029780194  0.4375879482127587  1.0000
  H   H14       1.0  0.6006535573895277  0.082404796289957  0.06241750228729612  1.0000
  H   H15       1.0  0.8993463226568893  0.0824038871561683  0.5624168103507544  1.0000
  H   H16       1.0  0.3993448810470142  0.9175951029780194  0.9375859767594079  1.0000
  H   H17       1.0  0.1340068801797187  0.8031369764865488  0.5660792315669384  1.0000
  H   H18       1.0  0.634009432985394  0.19685746797865988  0.9339246959183215  1.0000
  H   H19       1.0  0.865987113473615  0.19685564971106828  0.43392134059187987  1.0000
  H   H20       1.0  0.3659923390385558  0.8031360673527528  0.0660772253281579  1.0000
  H   H21       1.0  0.3235024339471195  0.7718627739471342  0.5360750793241422  1.0000
  H   H22       1.0  0.8235016531653869  0.2281334887856588  0.9639269462786191  1.0000
  H   H23       1.0  0.6764948932936221  0.2281334887856588  0.4639282605808576  1.0000
  H   H24       1.0  0.1764956740753476  0.7718609556795499  0.036074352602170706  1.0000
  H   H25       1.0  0.2811136476736991  0.0732907299975878  0.4546574280752012  1.0000
  H   H26       1.0  0.7811128668919665  0.9267037144676209  0.045345842258939215  1.0000
  H   H27       1.0  0.7188914579376586  0.926702805333825  0.5453458074735168  1.0000
  H   H28       1.0  0.2188822379571675  0.0732907299975878  0.9546554566218505  1.0000
  H   H29       1.0  0.3998282512210523  0.9750032655813143  0.5124325648845982  1.0000
  H   H30       1.0  0.899825248047712  0.024992088017683  0.987568768781621  1.0000
  H   H31       1.0  0.6001746319986978  0.024987542348711096  0.4875699091567257  1.0000
  H   H32       1.0  0.1001720791930225  0.975000538179934  0.012432460528316407  1.0000
  H   H33       1.0  0.2910566277134023  0.9464864658413816  0.3318662513031897  1.0000
  H   H34       1.0  0.7910591805190776  0.053513433426587695  0.1681398563479846  1.0000
  H   H35       1.0  0.7089384771357317  0.053513433426587695  0.6681385420457532  1.0000
  H   H36       1.0  0.2089381467216569  0.9464873749751774  0.8318649717863809  1.0000
  H   H37       1.0  0.4045752796888209  0.8351212125196524  0.38238266436276563  1.0000
  H   H38       1.0  0.9045778324944962  0.1648741410793448  0.1176199836056853  1.0000
  H   H39       1.0  0.5954253811393215  0.1648759593469364  0.6176200531765376  1.0000
  H   H40       1.0  0.0954206059420457  0.8351184851182721  0.8823832171576029  1.0000
  H   H41       1.0  0.0931026514982776  0.7848306583954566  0.30347055680651647  1.0000
  H   H42       1.0  0.5931074266955605  0.21517378654149868  0.19653112471396386  1.0000
  H   H43       1.0  0.9068957869382643  0.2151683317387239  0.6965289445480495  1.0000
  H   H44       1.0  0.406893234132589  0.7848306583954566  0.8034666138998079  1.0000
  H   H45       1.0  0.2655735743774059  0.750110838773942  0.24964032707070063  1.0000
  H   H46       1.0  0.7655827943578899  0.2498954244305978  0.2503607668695125  1.0000
  H   H47       1.0  0.734424864059136  0.24989269702921035  0.7503606625132306  1.0000
  H   H48       1.0  0.23441786647025253  0.7501090205063505  0.74963894319761  1.0000
  C   C1        1.0  0.2104127035514196  0.7836369657229483  0.5109380922793534  1.0000
  C   C2        1.0  0.710411922769687  0.21636111527743648  0.9890646600453723  1.0000
  C   C3        1.0  0.7895857348851223  0.216359297009852  0.48906393332340775  1.0000
  C   C4        1.0  0.2895854044710475  0.7836360565891524  0.010936743191692204  1.0000
  C   C5        1.0  0.2837038450890503  0.9988262075389542  0.499873141416039  1.0000
  C   C6        1.0  0.7836997307199098  0.0011682369262545  0.00013210037146650004  1.0000
  C   C7        1.0  0.7163012605223074  0.0011691460600503  0.5001308208546575  1.0000
  C   C8        1.0  0.2162953741292242  0.9988271166727499  0.9998712047481035  1.0000
  C   C9        1.0  0.2900821089947101  0.8627825173587239  0.3677857346459632  1.0000
  C   C10       1.0  0.7900846618003925  0.13721556364166076  0.1322170176787694  1.0000
  C   C11       1.0  0.7099163294418247  0.137214654507865  0.6322169828933468  1.0000
  C   C12       1.0  0.2099137766361494  0.8627816082249353  0.8677856998605338  1.0000
  C   C13       1.0  0.2110138604805059  0.7634505589443137  0.3137747906179484  1.0000
  C   C14       1.0  0.7110186356777888  0.2365557042602262  0.1862276176245032  1.0000
  C   C15       1.0  0.788984577956036  0.2365511585912543  0.686226786546257  1.0000
  C   C16       1.0  0.2889809139545534  0.7634505589443137  0.81377347631571  1.0000
  C   C17       1.0  0.5335295525551089  0.55342792448387  0.7149652718657366  1.0000
  C   C18       1.0  0.0335381117074576  0.4465783387206699  0.7850404221323048  1.0000
  C   C19       1.0  0.4664622187066172  0.4465828843896418  0.2850373103038422  1.0000
  C   C20       1.0  0.9664769946661167  0.5534242879486939  0.21496644702626364  1.0000
  C   C21       1.0  0.5276613275227362  0.4283547518048962  0.7580695893958878  1.0000
  C   C22       1.0  0.0276609971086614  0.5716624210051791  0.7419306076672001  1.0000
  C   C23       1.0  0.4723337773263978  0.5716642392727707  0.24193330584252953  1.0000
  C   C24       1.0  0.9723441085026892  0.42835111526972  0.2580707645564218  1.0000
  N   N1        1.0  0.2121395018283181  0.8910465779037151  0.4541693368463555  1.0000
  N   N2        1.0  0.7121387210465855  0.10895150309666948  0.04583407262948921  1.0000
  N   N3        1.0  0.7878600478040241  0.1089478665614863  0.5458332763366656  1.0000
  N   N4        1.0  0.287858606194149  0.8910474870375111  0.9541674001784273  1.0000
  O   O1        1.0  0.23848484310696696  0.5389899706894425  0.49155515715796133  1.0000
  O   O2        1.0  0.7384818399336268  0.4610035646419703  0.0084408497284514  1.0000
  O   O3        1.0  0.7615191513085904  0.4610044737757661  0.508442855967239  1.0000
  O   O4        1.0  0.2615188208945156  0.5389899706894425  0.9915545000068421  1.0000
  O   O5        1.0  0.22515382706580309  0.6492842644009542  0.3558828968507726  1.0000
  O   O6        1.0  0.7251597134588863  0.3507192714021983  0.1441167784309201  1.0000
  O   O7        1.0  0.774845722566539  0.3507156348670222  0.6441159821380965  1.0000
  O   O8        1.0  0.274844280956664  0.6492824461333697  0.8558801986754503  1.0000
  O   O9        1.0  0.9862985053889872  0.6394065257209931  0.4485069509341671  1.0000
  O   O10       1.0  0.4863015085623204  0.36059610094836353  0.051497946771050414  1.0000
  O   O11       1.0  0.0137010442433549  0.3605924644131875  0.5514918932692795  1.0000
  O   O12       1.0  0.5137013746574297  0.6394047074534085  0.9485055670610764  1.0000
  O   O13       1.0  0.0386629467480404  0.023046541696920997  0.6062362778682839  1.0000
  O   O14       1.0  0.5386588323788999  0.9769588123738229  0.8937654384376188  1.0000
  O   O15       1.0  0.9613388252759095  0.9769588123738229  0.3937634669842681  1.0000
  O   O16       1.0  0.4613362724702341  0.023048359964505497  0.10623437598577821  1.0000
  O   O17       1.0  0.2473777431134181  0.1913162974996609  0.6065171368586277  1.0000
  O   O18       1.0  0.7473780735274858  0.8086845109021111  0.8934844055201481  1.0000
  O   O19       1.0  0.7526229177147243  0.8086826926345196  0.39348236449593804  1.0000
  O   O20       1.0  0.2526225873006567  0.19131538836586506  0.106514473468728  1.0000
  O   O21       1.0  0.284899491772407  0.9934523176781838  0.6811470347897028  1.0000
  O   O22       1.0  0.7848987109906815  0.0065512181249687  0.8188559262475863  1.0000
  O   O23       1.0  0.7151011690557354  0.006550308991172899  0.3188565486132759  1.0000
  O   O24       1.0  0.2150986162500601  0.9934532268119796  0.18114706957513255  1.0000
  O   O25       1.0  0.45304119580546137  0.5640429706713732  0.6466485339860597  1.0000
  O   O26       1.0  0.9530415262195291  0.43595329206142  0.8533469201055228  1.0000
  O   O27       1.0  0.546959465022681  0.4359560194628074  0.3533470244617973  1.0000
  O   O28       1.0  0.0469558010212054  0.5640411524037887  0.14664780726408821  1.0000
  O   O29       1.0  0.6167203374961474  0.6343671970966936  0.7494523210537523  1.0000
  O   O30       1.0  0.1167288966484961  0.3656390661078461  0.7505514014909311  1.0000
  O   O31       1.0  0.3832736561571792  0.3656417935092264  0.2505508486960935  1.0000
  O   O32       1.0  0.8832806537460627  0.6343635605615177  0.24945086760980933  1.0000
  O   O33       1.0  0.4416003238241473  0.3487137222509773  0.7234712117725053  1.0000
  O   O34       1.0  0.9415817639095819  0.6512834496156117  0.7765236199533804  1.0000
  O   O35       1.0  0.5584170049410346  0.6512898135521752  0.2765232063002401  1.0000
  O   O36       1.0  0.0584055625689359  0.3487128131171815  0.22347314844043356  1.0000
  O   O37       1.0  0.6124255657199456  0.4159859865273177  0.8235657630019729  1.0000
  O   O38       1.0  0.11241412334785389  0.5840184584096306  0.6764247469494934  1.0000
  O   O39       1.0  0.3875806510872053  0.5840230040786025  0.176428863783336  1.0000
  O   O40       1.0  0.8875798703054798  0.4159841682597332  0.3235696363378295  1.0000
  O   O41       1.0  0.4699269272184381  0.3515629475637283  0.5106501238912742  1.0000
  O   O42       1.0  0.9699272576325129  0.6484387699718397  0.9893442246106191  1.0000
  O   O43       1.0  0.5300726224139041  0.6484378608380439  0.4893435326740772  1.0000
  O   O44       1.0  0.030073403195636696  0.3515629475637283  0.0106507810423935  1.0000
