data_image0
_chemical_formula_structural       Ni2H16C24N4O8
_chemical_formula_sum              "Ni2 H16 C24 N4 O8"
_cell_length_a       6.767586018331514
_cell_length_b       8.294601907467687
_cell_length_c       10.108145389157084
_cell_angle_alpha    101.69469030063352
_cell_angle_beta     95.01872942164172
_cell_angle_gamma    104.51873451663565

_space_group_name_H-M_alt    "P 1"
_space_group_IT_number       1

loop_
  _space_group_symop_operation_xyz
  'x, y, z'

loop_
  _atom_site_type_symbol
  _atom_site_label
  _atom_site_symmetry_multiplicity
  _atom_site_fract_x
  _atom_site_fract_y
  _atom_site_fract_z
  _atom_site_occupancy
  Ni  Ni1       1.0  0.8819246039911945  0.8257167265815112  0.12197747956557237  1.0000
  Ni  Ni2       1.0  0.11771210965174819  0.17163972304400937  0.8744480238073605  1.0000
  H   H1        1.0  0.964247597100197  0.8527395563465345  0.5823511162937081  1.0000
  H   H2        1.0  0.03675216433288138  0.15402991987385656  0.4147749092367192  1.0000
  H   H3        1.0  0.6663824305878804  0.3521656699535071  0.3295776454628552  1.0000
  H   H4        1.0  0.3352091867910971  0.6461733631161906  0.6813262760184459  1.0000
  H   H5        1.0  0.582823216201227  0.2423035337027315  0.5378062945977291  1.0000
  H   H6        1.0  0.4219584254798576  0.765927649903581  0.4781516024318933  1.0000
  H   H7        1.0  0.6865183778036723  0.4433905728509444  0.7673074777200029  1.0000
  H   H8        1.0  0.32298677088329697  0.5736975027166265  0.24469902695022935  1.0000
  H   H9        1.0  0.4779951844098704  0.6182417781379073  0.9548368258823601  1.0000
  H   H10       1.0  0.5191753566846629  0.37408079871600813  0.0419972711263128  1.0000
  H   H11       1.0  0.11154295444955403  0.6145747308163079  0.957473507419536  1.0000
  H   H12       1.0  0.888890540013378  0.37866883632999293  0.03667664974544489  1.0000
  H   H13       1.0  0.2799449709089785  0.030519735352747504  0.2943283641076277  1.0000
  H   H14       1.0  0.7182599288233931  0.9668957907025869  0.6980644514809526  1.0000
  H   H15       1.0  0.6550955614812892  0.03219328631239899  0.2911163489406619  1.0000
  H   H16       1.0  0.34122535132281934  0.9639048578373133  0.7037934545475864  1.0000
  C   C1        1.0  0.8357414069562309  0.6583773500777991  0.6897055931513946  1.0000
  C   C2        1.0  0.16935883960806553  0.3537524690005468  0.3144085757000425  1.0000
  C   C3        1.0  0.8806067251246716  0.7190825051686216  0.5727895107491463  1.0000
  C   C4        1.0  0.12194751860283046  0.287966423531607  0.428035545537206  1.0000
  C   C5        1.0  0.8153438218994963  0.608430259725196  0.44350295055448186  1.0000
  C   C6        1.0  0.1853935438448459  0.3924105507600472  0.5598125760577731  1.0000
  C   C7        1.0  0.712360461214196  0.4356609404397105  0.4315888644124541  1.0000
  C   C8        1.0  0.2893328363129228  0.5659732146889808  0.5780484207974652  1.0000
  C   C9        1.0  0.6670138915410391  0.37564259375579917  0.5474517192946706  1.0000
  C   C10       1.0  0.3371364199311699  0.631859051988684  0.4647720636467909  1.0000
  C   C11       1.0  0.725292486215693  0.48710576266587674  0.6760340079254945  1.0000
  C   C12       1.0  0.281413555352124  0.5256076851615106  0.3338092916377278  1.0000
  C   C13       1.0  0.9070877699431394  0.7772908718334862  0.8280808799400959  1.0000
  C   C14       1.0  0.0955460969279542  0.23891444782709934  0.1741982249527041  1.0000
  C   C15       1.0  0.8445969016571054  0.6680183373116932  0.31481704612966155  1.0000
  C   C16       1.0  0.14921922213556368  0.3136944732719583  0.6782113653042857  1.0000
  C   C17       1.0  0.435769742825272  0.7107982485204332  0.03161100577390388  1.0000
  C   C18       1.0  0.5634778931155254  0.2839451807766196  0.9644496474683707  1.0000
  C   C19       1.0  0.2300588372914162  0.7103618068425844  0.03251043063451677  1.0000
  C   C20       1.0  0.7683135750124065  0.2847119215210511  0.9621790403029848  1.0000
  C   C21       1.0  0.3252551149379173  0.9389719838145325  0.2181140952552951  1.0000
  C   C22       1.0  0.6716513504882045  0.0564783567933844  0.7751612350914668  1.0000
  C   C23       1.0  0.5311898370768091  0.9393940444597106  0.21748123041462014  1.0000
  C   C24       1.0  0.46660121002916105  0.055335005100317886  0.7772069493430394  1.0000
  N   N1        1.0  0.5876272424589501  0.8255640614149158  0.1233901145886023  1.0000
  N   N2        1.0  0.41320218276602105  0.16873364107814837  0.8726650436904181  1.0000
  N   N3        1.0  0.1731135645699878  0.8253253232305864  0.12451811246862826  1.0000
  N   N4        1.0  0.8220956103990745  0.1701036130763427  0.8688835492861742  1.0000
  O   O1        1.0  0.8121262604147503  0.7333320988455085  0.9256410067239431  1.0000
  O   O2        1.0  0.19177939240762504  0.2840492112310287  0.07765470311983341  1.0000
  O   O3        1.0  0.056516579645027216  0.9087167709563245  0.8407767474235827  1.0000
  O   O4        1.0  0.943299800892973  0.10939799641764128  0.1602474776581175  1.0000
  O   O5        1.0  0.8012030205412018  0.5597708932088067  0.2020799705790637  1.0000
  O   O6        1.0  0.19034420975354743  0.406209374518994  0.8006088537745628  1.0000
  O   O7        1.0  0.9068475207763385  0.8314941232142273  0.3212650384505338  1.0000
  O   O8        1.0  0.0834853377892699  0.1506480062480904  0.6575791777096569  1.0000
