data_image0
_chemical_formula_structural       Cu2H32C32N20O8
_chemical_formula_sum              "Cu2 H32 C32 N20 O8"
_cell_length_a       7.999740519151176
_cell_length_b       13.01440990472606
_cell_length_c       13.014606796980754
_cell_angle_alpha    79.90056349682415
_cell_angle_beta     79.78473098733839
_cell_angle_gamma    79.78487595823984

_space_group_name_H-M_alt    "P 1"
_space_group_IT_number       1

loop_
  _space_group_symop_operation_xyz
  'x, y, z'

loop_
  _atom_site_type_symbol
  _atom_site_label
  _atom_site_symmetry_multiplicity
  _atom_site_fract_x
  _atom_site_fract_y
  _atom_site_fract_z
  _atom_site_occupancy
  Cu  Cu1       1.0  0.999999645641381  1.9326624570003628e-07  1.4077001609093877e-06  1.0000
  Cu  Cu2       1.0  0.4999981443478915  4.3988334399370575e-07  0.9999982372840751  1.0000
  H   H1        1.0  0.07765684765535504  0.27179490734699385  0.9998170995957381  1.0000
  H   H2        1.0  0.42233273541238253  0.0001783919011017982  0.7282192403034671  1.0000
  H   H3        1.0  0.9223364662709841  0.7282041186363132  0.00019314182187452457  1.0000
  H   H4        1.0  0.5776659383571782  0.9998246892413789  0.2717836274390279  1.0000
  H   H5        1.0  0.059955325885745495  0.25411864998216765  0.13919240691986093  1.0000
  H   H6        1.0  0.4400400527943874  0.8607976743523266  0.7458864558983151  1.0000
  H   H7        1.0  0.9400483317827835  0.7458796203657767  0.8608145183381809  1.0000
  H   H8        1.0  0.5599551779243369  0.13920388824796245  0.2541139537456446  1.0000
  H   H9        1.0  0.23119670499368536  0.3903873361294147  0.20945652091437236  1.0000
  H   H10       1.0  0.26881647930073876  0.790538870499347  0.6096078204735278  1.0000
  H   H11       1.0  0.7688167001848782  0.6096126178667093  0.7905429257524332  1.0000
  H   H12       1.0  0.731192910483408  0.20946191889897392  0.3903896274796637  1.0000
  H   H13       1.0  0.3806136207343229  0.5805487804935581  0.1882146299092398  1.0000
  H   H14       1.0  0.11940021660645783  0.8117921098328366  0.4194487755647174  1.0000
  H   H15       1.0  0.6193941104044499  0.41945360302080537  0.8117819790739489  1.0000
  H   H16       1.0  0.8806100713525638  0.1882102145598097  0.580550637406887  1.0000
  H   H17       1.0  0.4443955687619123  0.6359437615373835  0.05540389894476049  1.0000
  H   H18       1.0  0.05562174105988752  0.94460795976719  0.3640551327947674  1.0000
  H   H19       1.0  0.5555983755838341  0.3640578590701652  0.9445935680994638  1.0000
  H   H20       1.0  0.944386578348187  0.055392012910012105  0.6359440980145549  1.0000
  H   H21       1.0  0.03183073560138179  0.6483492215721894  0.26123336035131217  1.0000
  H   H22       1.0  0.4681817162762627  0.7387694351459543  0.3516458271567089  1.0000
  H   H23       1.0  0.968171607824175  0.3516492063453711  0.7387652301876529  1.0000
  H   H24       1.0  0.5318162779607363  0.26122596768147593  0.6483467996597839  1.0000
  H   H25       1.0  0.8552510960094537  0.850518916811957  0.21247177243338197  1.0000
  H   H26       1.0  0.644747980779691  0.7875297774130273  0.14947749075988534  1.0000
  H   H27       1.0  0.14474490712405697  0.1494794740083734  0.7875298220704678  1.0000
  H   H28       1.0  0.35524440974718635  0.21246254454597135  0.8505123921565174  1.0000
  H   H29       1.0  0.3024455871664954  0.8058476840984383  0.986592103368551  1.0000
  H   H30       1.0  0.19756690521987252  0.013414178761188094  0.1941554627887143  1.0000
  H   H31       1.0  0.697554537214387  0.19415464920997033  0.013408418493611395  1.0000
  H   H32       1.0  0.802442492527128  0.9865865821907392  0.8058435257700012  1.0000
  C   C1        1.0  0.31135226884106965  0.19333049113305376  0.06129609242627513  1.0000
  C   C2        1.0  0.18863815221288857  0.9386905226230625  0.8066713548613151  1.0000
  C   C3        1.0  0.6886478475769593  0.8066718706217484  0.9387028888303632  1.0000
  C   C4        1.0  0.8113603997780104  0.06130783752193739  0.19333150302542632  1.0000
  C   C5        1.0  0.14517849134571048  0.274571082168073  0.0650864502593365  1.0000
  C   C6        1.0  0.3548168718348351  0.9349056446637362  0.7254347235956261  1.0000
  C   C7        1.0  0.8548195042273079  0.725429575028521  0.9349199482233743  1.0000
  C   C8        1.0  0.6451794451856756  0.06509667776489178  0.2745669844032648  1.0000
  C   C9        1.0  0.22958055069092617  0.42782124317690046  0.12841168501587671  1.0000
  C   C10       1.0  0.2704332810811538  0.87158914090088  0.5721787943809532  1.0000
  C   C11       1.0  0.7704232751973735  0.5721763231210203  0.871590722064866  1.0000
  C   C12       1.0  0.7295763047927579  0.12841084488505317  0.4278195275142879  1.0000
  C   C13       1.0  0.27378313683291833  0.5226189479432292  0.07373855181933918  1.0000
  C   C14       1.0  0.22622924039503547  0.926271479820535  0.4773806434583321  1.0000
  C   C15       1.0  0.7262122979384316  0.47738178259828584  0.926264272372194  1.0000
  C   C16       1.0  0.7737793889186122  0.07373243868816098  0.5226179305432694  1.0000
  C   C17       1.0  0.3362402464770327  0.6086116813416567  0.1116256474497987  1.0000
  C   C18       1.0  0.1637829871062095  0.8883839790292002  0.3913843200719923  1.0000
  C   C19       1.0  0.6637618928959056  0.3913875786346779  0.8883705285415928  1.0000
  C   C20       1.0  0.836224195577536  0.11162067309037838  0.6086173701126967  1.0000
  C   C21       1.0  0.06047706593113134  0.711858969279909  0.19811760007692672  1.0000
  C   C22       1.0  0.439538735396681  0.8018870299027225  0.28813534074123487  1.0000
  C   C23       1.0  0.9395269321583726  0.2881378787447986  0.801881059129272  1.0000
  C   C24       1.0  0.5604531026937565  0.1981075748846806  0.7118588530739062  1.0000
  C   C25       1.0  0.9734720176355582  0.8114472053020806  0.17263958044976843  1.0000
  C   C26       1.0  0.5265380886997306  0.8273685942210278  0.18854798468617412  1.0000
  C   C27       1.0  0.026527800821177998  0.18855116795163696  0.8273623685228843  1.0000
  C   C28       1.0  0.47346176027240733  0.1726244108779724  0.8114463550423708  1.0000
  C   C29       1.0  0.20101062837834865  0.7921909952254821  0.05271406182526306  1.0000
  C   C30       1.0  0.2989928057558727  0.9472956178738554  0.2078077039304205  1.0000
  C   C31       1.0  0.7989893078756226  0.2078121132489201  0.947287126700381  1.0000
  C   C32       1.0  0.701008447386478  0.052702064438570104  0.7921888179508516  1.0000
  N   N1        1.0  0.062261032704633186  0.8604251926374287  0.08156155191539936  1.0000
  N   N2        1.0  0.43773926488284337  0.918444892858467  0.13957087881051686  1.0000
  N   N3        1.0  0.937732233444578  0.13957400402423303  0.9184394458690548  1.0000
  N   N4        1.0  0.5622625526402417  0.08155046395597051  0.8604236430803098  1.0000
  N   N5        1.0  0.20399121705639808  0.7015102100157332  0.12176264420625672  1.0000
  N   N6        1.0  0.2960297451344402  0.8782454692579333  0.2984887158362852  1.0000
  N   N7        1.0  0.7960120046368999  0.2984898240121368  0.8782340598372897  1.0000
  N   N8        1.0  0.7039745668420708  0.12175531037506457  0.7015100568649545  1.0000
  N   N9        1.0  0.182366133786573  0.3808636695284162  0.05551283815731982  1.0000
  N   N10       1.0  0.31762830587232566  0.9444845118379845  0.6191442512190123  1.0000
  N   N11       1.0  0.8176255055686783  0.6191370074637277  0.944493483079235  1.0000
  N   N12       1.0  0.6823642037878132  0.05551779971085579  0.3808586429165999  1.0000
  N   N13       1.0  0.1980465646470293  0.4420987066250533  0.959389616347906  1.0000
  N   N14       1.0  0.3019553814255289  0.04061119075916509  0.5579133297591383  1.0000
  N   N15       1.0  0.8019370598450948  0.5579035842786908  0.040615788672475645  1.0000
  N   N16       1.0  0.6980394730393726  0.9593919221731254  0.4420884132117919  1.0000
  N   N17       1.0  0.25245094338746554  0.5283224973504302  0.9707447075045224  1.0000
  N   N18       1.0  0.2475502672524357  0.029268055957025804  0.4716855050803019  1.0000
  N   N19       1.0  0.7475326731417982  0.47167982199970737  0.029259156910335038  1.0000
  N   N20       1.0  0.7524505472692695  0.970736658627686  0.5283137969499379  1.0000
  O   O1        1.0  0.44210158751524636  0.2140649067220579  0.08808350083152311  1.0000
  O   O2        1.0  0.05788520501933903  0.9119047533142319  0.7859371161691371  1.0000
  O   O3        1.0  0.5578995913160015  0.7859383002002431  0.9119121569634602  1.0000
  O   O4        1.0  0.942108002744476  0.08809991106451777  0.21406609874007637  1.0000
  O   O5        1.0  0.2943324291987324  0.10836607651535249  0.028500057131829182  1.0000
  O   O6        1.0  0.2056603034428619  0.9714914799133111  0.8916302872366941  1.0000
  O   O7        1.0  0.7056724829913534  0.8916322496109004  0.9715036483038304  1.0000
  O   O8        1.0  0.7943365899026632  0.0285084743477384  0.10837173168003737  1.0000
