data_image0
_chemical_formula_structural       Zn2H16C26Br2N2O8
_chemical_formula_sum              "Zn2 H16 C26 Br2 N2 O8"
_cell_length_a       7.655701638069873
_cell_length_b       9.773527813562694
_cell_length_c       10.752961631550912
_cell_angle_alpha    115.25085730159178
_cell_angle_beta     94.50105457048984
_cell_angle_gamma    102.9772234054649

_space_group_name_H-M_alt    "P 1"
_space_group_IT_number       1

loop_
  _space_group_symop_operation_xyz
  'x, y, z'

loop_
  _atom_site_type_symbol
  _atom_site_label
  _atom_site_symmetry_multiplicity
  _atom_site_fract_x
  _atom_site_fract_y
  _atom_site_fract_z
  _atom_site_occupancy
  Zn  Zn1       1.0  0.35180205277549687  0.030864917137506588  0.43061685173636016  1.0000
  Zn  Zn2       1.0  0.6481984316591323  0.9691283788551103  0.5693788601353161  1.0000
  H   H1        1.0  0.9496774185963803  0.9247533468806992  0.32413294561192163  1.0000
  H   H2        1.0  0.050326348921146284  0.07524585308270558  0.675862453642452  1.0000
  H   H3        1.0  0.7268762193306556  0.9720747530941336  0.17473571141427144  1.0000
  H   H4        1.0  0.2731242798884494  0.027930354147827092  0.8252673797764983  1.0000
  H   H5        1.0  0.18135477226077504  0.30855596787743167  0.14979222604128484  1.0000
  H   H6        1.0  0.8186469086854727  0.6914526777505614  0.8502150958230528  1.0000
  H   H7        1.0  0.3857063581560354  0.24500135549205024  0.2992246158968896  1.0000
  H   H8        1.0  0.6142985916146554  0.7550013840384009  0.7007740845424663  1.0000
  H   H9        1.0  0.11737162764755024  0.34091193501602374  0.597850724406598  1.0000
  H   H10       1.0  0.8826430031539303  0.6590884103001925  0.4021559573076061  1.0000
  H   H11       1.0  0.669541024026053  0.4223912890673346  0.3986840802622637  1.0000
  H   H12       1.0  0.33047203008717935  0.5776043360388173  0.6013188195310164  1.0000
  H   H13       1.0  0.1979182543667618  0.35359363876312233  0.8369982042084345  1.0000
  H   H14       1.0  0.8020777847766  0.6464020367511555  0.16299260352889894  1.0000
  H   H15       1.0  0.7739900693754362  0.41338456699776316  0.931783984241143  1.0000
  H   H16       1.0  0.22600624028296323  0.5866158386000607  0.06820495631696837  1.0000
  C   C1        1.0  0.9956752703302668  0.0071355323884106  0.28197919150382944  1.0000
  C   C2        1.0  0.004325749874119656  0.9928672119611405  0.7180220808951673  1.0000
  C   C3        1.0  0.8719260542732525  0.0335710588224956  0.1989831251395131  1.0000
  C   C4        1.0  0.12807706307862793  0.966434041663689  0.8010210398772274  1.0000
  C   C5        1.0  0.9387916293708896  0.14295419325355846  0.15067222371288116  1.0000
  C   C6        1.0  0.061208614117653236  0.8570579951542071  0.8493401139761972  1.0000
  C   C7        1.0  0.12517279700342945  0.22248263180806296  0.1858899275527435  1.0000
  C   C8        1.0  0.874828365061667  0.7775283814364043  0.8141154951490605  1.0000
  C   C9        1.0  0.23875086386553324  0.18804906378633038  0.2687623061948514  1.0000
  C   C10       1.0  0.7612518611554009  0.8119548607808936  0.731237660131633  1.0000
  C   C11       1.0  0.7512946363539114  0.22584377971217148  0.49545274975533715  1.0000
  C   C12       1.0  0.24871266103451722  0.7741542229789573  0.504548891689204  1.0000
  C   C13       1.0  0.880162802550366  0.3677302913477191  0.4981985179145809  1.0000
  C   C14       1.0  0.11985274419750164  0.632268872900127  0.5018058962552274  1.0000
  C   C15       1.0  0.06658936465612436  0.411524329491847  0.556067625625829  1.0000
  C   C16       1.0  0.9334270954079782  0.5884736477825498  0.443939168442455  1.0000
  C   C17       1.0  0.8147428579529431  0.45710612139342993  0.4425436101998557  1.0000
  C   C18       1.0  0.18527098450441307  0.5428918638177577  0.5574611805538865  1.0000
  C   C19       1.0  0.47107885433393193  0.22644781757069407  0.7362209723157207  1.0000
  C   C20       1.0  0.5289173097815336  0.7735443108650982  0.2637703243596262  1.0000
  C   C21       1.0  0.4846470766734895  0.3688452039231932  0.8715322953410052  1.0000
  C   C22       1.0  0.515351060143402  0.6311528289087392  0.12846047552549314  1.0000
  C   C23       1.0  0.3296514241475989  0.41764652578131484  0.9088942083806373  1.0000
  C   C24       1.0  0.6703457988270286  0.5823526928430526  0.09109711207595689  1.0000
  C   C25       1.0  0.654871920456685  0.45258294800230187  0.9629855218344047  1.0000
  C   C26       1.0  0.3451275267416775  0.5474150844042781  0.03700546222363236  1.0000
  Br  Br1       1.0  0.7780056753156896  0.18142824247910028  0.035333361261095264  1.0000
  Br  Br2       1.0  0.22198069605884996  0.8185934131366182  0.9646930379854339  1.0000
  N   N1        1.0  0.1757421018789245  0.08246331555571368  0.3159436102096507  1.0000
  N   N2        1.0  0.8242603536790297  0.91753588129  0.6840563643189057  1.0000
  O   O1        1.0  0.5838309116711144  0.19263293909376958  0.4408408675377444  1.0000
  O   O2        1.0  0.4161771751135106  0.807367426064431  0.5591608058901157  1.0000
  O   O3        1.0  0.8176571153057992  0.14870996419303137  0.5473028528718444  1.0000
  O   O4        1.0  0.18234126882514087  0.8512809685768444  0.4526955433135597  1.0000
  O   O5        1.0  0.3456428887337211  0.19148584664333865  0.6334779528141183  1.0000
  O   O6        1.0  0.6543448794273061  0.8084968407116763  0.3665147862303612  1.0000
  O   O7        1.0  0.5869412150071084  0.1512109036970628  0.736071651466645  1.0000
  O   O8        1.0  0.41305796115018006  0.8487823974449639  0.2639221292591926  1.0000
