data_image0
_chemical_formula_structural       Li4H32C56N4O24
_chemical_formula_sum              "Li4 H32 C56 N4 O24"
_cell_length_a       4.8617263230105765
_cell_length_b       13.060005195065166
_cell_length_c       18.885773935054974
_cell_angle_alpha    89.99972668446203
_cell_angle_beta     89.99996176746787
_cell_angle_gamma    90.00023691599205

_space_group_name_H-M_alt    "P 1"
_space_group_IT_number       1

loop_
  _space_group_symop_operation_xyz
  'x, y, z'

loop_
  _atom_site_type_symbol
  _atom_site_label
  _atom_site_symmetry_multiplicity
  _atom_site_fract_x
  _atom_site_fract_y
  _atom_site_fract_z
  _atom_site_occupancy
  Li  Li1       1.0  0.6843176035355826  0.3031366166639985  0.46823707625129163  1.0000
  Li  Li2       1.0  0.18431551412098204  0.1968535134405158  0.5317761207429825  1.0000
  Li  Li3       1.0  0.31569680975261605  0.8031506559542124  0.0317648891982856  1.0000
  Li  Li4       1.0  0.8156818742342936  0.6968752661285296  0.9682323410996146  1.0000
  H   H1        1.0  0.4169234665095091  0.3804330955598304  0.35495487599145287  1.0000
  H   H2        1.0  0.9168756950268034  0.11955892352476383  0.6450519316412979  1.0000
  H   H3        1.0  0.5830650670166905  0.8804574845962422  0.14505001133071718  1.0000
  H   H4        1.0  0.083085866571281  0.6195596571797282  0.8549567853392828  1.0000
  H   H5        1.0  0.2389803384742635  0.3691264470671527  0.4238459160079202  1.0000
  H   H6        1.0  0.7389740294135906  0.13085687584988653  0.5761535057090439  1.0000
  H   H7        1.0  0.7610409793545331  0.8691400992087851  0.07616642163274889  1.0000
  H   H8        1.0  0.2610185111284836  0.630865830671624  0.9238488199792058  1.0000
  H   H9        1.0  0.28876236609247746  0.3371650667385779  0.7857252304650115  1.0000
  H   H10       1.0  0.788749230662596  0.16282905242609053  0.21428318514862346  1.0000
  H   H11       1.0  0.7112262982674339  0.8371715644938575  0.7142705898447588  1.0000
  H   H12       1.0  0.21130064592120593  0.6628166779388707  0.28572136140474663  1.0000
  H   H13       1.0  0.20544396234478066  0.2593698803292099  0.6680569017263379  1.0000
  H   H14       1.0  0.7053861006012243  0.24060726537852875  0.33195417408453654  1.0000
  H   H15       1.0  0.7945705763279068  0.7593848832462984  0.8319412933164897  1.0000
  H   H16       1.0  0.29459265028922493  0.7406287552424686  0.16805594021158038  1.0000
  H   H17       1.0  0.5871833666351662  0.6738247078783745  0.4821829483080506  1.0000
  H   H18       1.0  0.08718686944502  0.826165640842504  0.5178227887830218  1.0000
  H   H19       1.0  0.41279052769773733  0.17382943638407514  0.0178083244560696  1.0000
  H   H20       1.0  0.9128428102602943  0.3261771247388411  0.9821746563147966  1.0000
  H   H21       1.0  0.25546297661784934  0.5310971500474296  0.4670040588152631  1.0000
  H   H22       1.0  0.7554770067548874  0.9688911602957904  0.5330027116859027  1.0000
  H   H23       1.0  0.7445052165878395  0.0311007524706923  0.032988744002750495  1.0000
  H   H24       1.0  0.24456248782274068  0.4689063156127063  0.9670011458464954  1.0000
  H   H25       1.0  0.6318468313218305  0.7611635090488706  0.5988203295205423  1.0000
  H   H26       1.0  0.13183530164344862  0.7388284397175015  0.40118540077696707  1.0000
  H   H27       1.0  0.36815127222109123  0.2611731826743195  0.9011693876273483  1.0000
  H   H28       1.0  0.8681825101536591  0.23883254411454408  0.0988120114376301  1.0000
  H   H29       1.0  0.34181563186464814  0.7021223739338255  0.7014278405058645  1.0000
  H   H30       1.0  0.8418140391757803  0.7978752575071157  0.2985799758474457  1.0000
  H   H31       1.0  0.658169473699779  0.2021224811391207  0.7985620715162652  1.0000
  H   H32       1.0  0.15820031551207595  0.2978737344655259  0.201421477493156  1.0000
  C   C1        1.0  0.9194322957433985  0.4498416129423576  0.5647830317726061  1.0000
  C   C2        1.0  0.4194267968149605  0.05014581583640881  0.43522854097473385  1.0000
  C   C3        1.0  0.08055762173255232  0.9498440863829744  0.9352134756678294  1.0000
  C   C4        1.0  0.58056012026605  0.5501684573871729  0.06478114291352449  1.0000
  C   C5        1.0  0.11421878134158452  0.5361548599585789  0.5750451723129544  1.0000
  C   C6        1.0  0.6142166123876152  0.963840124487362  0.42496426715315744  1.0000
  C   C7        1.0  0.8857624215144715  0.03615444566735702  0.9249479349595902  1.0000
  C   C8        1.0  0.38579136062044483  0.46385130815983194  0.0750435219099543  1.0000
  C   C9        1.0  0.7412772158358011  0.41910162365388703  0.6232265574465501  1.0000
  C   C10       1.0  0.2412763414477866  0.08089012542141923  0.3767839833875684  1.0000
  C   C11       1.0  0.25870824599843445  0.9191040082413908  0.87676952194856  1.0000
  C   C12       1.0  0.7587150312877144  0.5809065123216612  0.1232261285422283  1.0000
  C   C13       1.0  0.6286422026857964  0.4291615910670572  0.7485531581128058  1.0000
  C   C14       1.0  0.1286456923576722  0.07083840750981811  0.2514579293350963  1.0000
  C   C15       1.0  0.3713310297268323  0.9291619501266625  0.7514412995877321  1.0000
  C   C16       1.0  0.8713867061178038  0.5708326640049323  0.2485500978061309  1.0000
  C   C17       1.0  0.13998964017777382  0.5852143570894058  0.6410407962330281  1.0000
  C   C18       1.0  0.639991230077719  0.9147829640662763  0.358969168808997  1.0000
  C   C19       1.0  0.8599777100961463  0.08520899833046514  0.8589489721398352  1.0000
  C   C20       1.0  0.36001414041567875  0.4147867618241465  0.14103772317500327  1.0000
  C   C21       1.0  0.9722266691078265  0.5518051531175773  0.7017266781063398  1.0000
  C   C22       1.0  0.47224039093304543  0.9481972730016679  0.2982816479050925  1.0000
  C   C23       1.0  0.027738252716439107  0.05179969900778051  0.7982658480249469  1.0000
  C   C24       1.0  0.5277776924645396  0.44819861315414045  0.2017230158061523  1.0000
  C   C25       1.0  0.41580589579480426  0.3576461703029068  0.7403359960243988  1.0000
  C   C26       1.0  0.9157944583210738  0.1423496755647662  0.259673459264647  1.0000
  C   C27       1.0  0.5841809394675295  0.8576529254955577  0.7596586976917408  1.0000
  C   C28       1.0  0.08422433730775943  0.6423458413525438  0.24033221386464018  1.0000
  C   C29       1.0  0.36919679640548253  0.3153002818619728  0.6749275770942943  1.0000
  C   C30       1.0  0.8691650720033623  0.18468553827698034  0.32508294429894846  1.0000
  C   C31       1.0  0.6308039661015459  0.8153112519124618  0.8250699038662572  1.0000
  C   C32       1.0  0.13082539820077702  0.684699072020692  0.1749273545716719  1.0000
  C   C33       1.0  0.460758938747496  0.649577146465049  0.52680123825057  1.0000
  C   C34       1.0  0.960749198291218  0.850413776560693  0.47320656002646194  1.0000
  C   C35       1.0  0.5392235255753804  0.14958199236639302  0.9731888471825129  1.0000
  C   C36       1.0  0.039276025196954806  0.35042552584594944  0.026792601898634402  1.0000
  C   C37       1.0  0.5296276986271381  0.3415931017082984  0.6137762017908841  1.0000
  C   C38       1.0  0.0296112038632046  0.1583944934861918  0.3862354302354375  1.0000
  C   C39       1.0  0.47036307187235593  0.8416018720916085  0.8862211923980823  1.0000
  C   C40       1.0  0.9703728033434873  0.6584166308275953  0.11377495539159097  1.0000
  C   C41       1.0  0.7833817522709483  0.4639138076850315  0.691334888478849  1.0000
  C   C42       1.0  0.28339291762640784  0.0360833660049593  0.308675645942472  1.0000
  C   C43       1.0  0.21659186664158633  0.9639143000425962  0.8086594545263422  1.0000
  C   C44       1.0  0.7166123549194552  0.5360907959219504  0.1913319663844106  1.0000
  C   C45       1.0  0.27565347394310896  0.5692080007311804  0.5179730467209112  1.0000
  C   C46       1.0  0.7756589999802019  0.9307818720349915  0.4820347797060832  1.0000
  C   C47       1.0  0.7243239827772074  0.0692115389428238  0.9820167744633749  1.0000
  C   C48       1.0  0.22436917421030245  0.43079549811264434  0.01797100045951079  1.0000
  C   C49       1.0  0.4859764950188962  0.698369415875007  0.5925718255429755  1.0000
  C   C50       1.0  0.9859746295191911  0.8016261401097541  0.40743438039367413  1.0000
  C   C51       1.0  0.5140147394880543  0.19837544218777484  0.9074175693559782  1.0000
  C   C52       1.0  0.014045937574017803  0.30163203724393384  0.09256653105583008  1.0000
  C   C53       1.0  0.32588495263146217  0.6663400128554997  0.6494909241082495  1.0000
  C   C54       1.0  0.8258794940718348  0.8336591254896178  0.3505153061682264  1.0000
  C   C55       1.0  0.6741038687382428  0.1663390207693567  0.850497517513105  1.0000
  C   C56       1.0  0.17413937237879654  0.33366181351839697  0.1494849700669931  1.0000
  N   N1        1.0  0.6829172272121937  0.459927829607203  0.8220645200516683  1.0000
  N   N2        1.0  0.18295761110231726  0.04008756637732352  0.1779439116188826  1.0000
  N   N3        1.0  0.31704811979887654  0.959920955101204  0.6779298361215068  1.0000
  N   N4        1.0  0.8171258673157595  0.5400582616742043  0.32205892205558223  1.0000
  O   O1        1.0  0.47335534889143827  0.2979271240601308  0.5544734397120124  1.0000
  O   O2        1.0  0.9733440385239477  0.2020665131946018  0.445535477329912  1.0000
  O   O3        1.0  0.5266513910657268  0.7979416976562705  0.9455246280790348  1.0000
  O   O4        1.0  0.026628113111669908  0.7020922027127625  0.05447264616208969  1.0000
  O   O5        1.0  0.9218098855599169  0.40469328955801126  0.5061866194584752  1.0000
  O   O6        1.0  0.4218108901043465  0.09529720567419993  0.4938228349254102  1.0000
  O   O7        1.0  0.07819598489147953  0.9047022466116562  0.9938105664752043  1.0000
  O   O8        1.0  0.5781580172143067  0.595324841717023  0.006187758937947799  1.0000
  O   O9        1.0  0.9802877683470542  0.5984710990372123  0.7591370091741466  1.0000
  O   O10       1.0  0.48029496648055686  0.9015420592370236  0.2408665501024458  1.0000
  O   O11       1.0  0.019659160499287502  0.09845837140510129  0.740850597463975  1.0000
  O   O12       1.0  0.5197287686436951  0.40153533418791915  0.259136149604707  1.0000
  O   O13       1.0  0.4138975536407302  0.34979205433394617  0.40220213005391503  1.0000
  O   O14       1.0  0.9138852263906333  0.15018617760940603  0.5977988535691237  1.0000
  O   O15       1.0  0.5860906391765967  0.8498274935469184  0.09779862238406879  1.0000
  O   O16       1.0  0.08610547226363961  0.6501996069410655  0.9022049968153353  1.0000
  O   O17       1.0  0.8876508370378249  0.4224707791799744  0.8515714322528535  1.0000
  O   O18       1.0  0.38771846225373713  0.07754952571650621  0.14844808775401216  1.0000
  O   O19       1.0  0.11231409333151994  0.9224538393016534  0.6484262245535035  1.0000
  O   O20       1.0  0.6123942291081335  0.577515108651987  0.35156785976552374  1.0000
  O   O21       1.0  0.5054105688700262  0.5123180747399871  0.8519250184404824  1.0000
  O   O22       1.0  0.0054663016192436015  0.9877020105018844  0.14807120004940796  1.0000
  O   O23       1.0  0.49453128814460023  0.012322796526291303  0.6480676379976557  1.0000
  O   O24       1.0  0.9946221549012153  0.48765555952564904  0.3519142713881606  1.0000
