data_image0
_chemical_formula_structural       ZnH10C6S2N4O8
_chemical_formula_sum              "Zn1 H10 C6 S2 N4 O8"
_cell_length_a       7.060764783356958
_cell_length_b       7.288494461817856
_cell_length_c       7.324225682484283
_cell_angle_alpha    63.02666819088451
_cell_angle_beta     67.64583693763014
_cell_angle_gamma    72.0690777766564

_space_group_name_H-M_alt    "P 1"
_space_group_IT_number       1

loop_
  _space_group_symop_operation_xyz
  'x, y, z'

loop_
  _atom_site_type_symbol
  _atom_site_label
  _atom_site_symmetry_multiplicity
  _atom_site_fract_x
  _atom_site_fract_y
  _atom_site_fract_z
  _atom_site_occupancy
  Zn  Zn1       1.0  0.9999979376830693  1.8007469436034577e-06  1.0988434199680255e-06  1.0000
  H   H1        1.0  0.19804484287323018  0.3299206877585803  0.8270455217156824  1.0000
  H   H2        1.0  0.8019580346173428  0.6700784648978415  0.17294988732597016  1.0000
  H   H3        1.0  0.9859691537253853  0.3929776065819084  0.7606304868045938  1.0000
  H   H4        1.0  0.014033556122981806  0.6070231820984374  0.2393696889650628  1.0000
  H   H5        1.0  0.23819855085780972  0.2805271774127648  0.5037128895363737  1.0000
  H   H6        1.0  0.7617982411410722  0.7194720291197358  0.4962875419371569  1.0000
  H   H7        1.0  0.3967749107990599  0.17448125942510737  0.1860568446137094  1.0000
  H   H8        1.0  0.6032277990493142  0.8255195292552386  0.8139433311559401  1.0000
  H   H9        1.0  0.12484167248690878  0.6793207562923841  0.7669744096539973  1.0000
  H   H10       1.0  0.8751549518697672  0.3206800862640407  0.23303078854753786  1.0000
  C   C1        1.0  0.3212673937706326  0.0742740072521499  0.3456513227068001  1.0000
  C   C2        1.0  0.6787306578905259  0.9257267369446253  0.6543465499018454  1.0000
  C   C3        1.0  0.2844518811703622  0.8706031967587079  0.4253646581952354  1.0000
  C   C4        1.0  0.7155475137694579  0.12939916056068057  0.5746360510906714  1.0000
  C   C5        1.0  0.1823074538852936  0.8204502224242416  0.644602732378715  1.0000
  C   C6        1.0  0.8176908908426695  0.17954899893612017  0.3553984668151531  1.0000
  S   S1        1.0  0.34289008800720194  0.7227317282799749  0.2717423270302817  1.0000
  S   S2        1.0  0.657111090016201  0.27726906443710675  0.728258429904571  1.0000
  N   N1        1.0  0.15772977122335874  0.9830083214246486  0.6952341443255534  1.0000
  N   N2        1.0  0.8422680709873944  0.016994021066878397  0.3047657972400089  1.0000
  N   N3        1.0  0.2445004172062042  0.1339553608413198  0.5121073695101614  1.0000
  N   N4        1.0  0.755498977733623  0.8660469964780687  0.48789333977574506  1.0000
  O   O1        1.0  0.2992726826915728  0.8744381408181426  0.0679497905707223  1.0000
  O   O2        1.0  0.7007228287409505  0.1255595091855  0.9320518508821607  1.0000
  O   O3        1.0  0.2010369722025516  0.5675525271798918  0.39195682446705166  1.0000
  O   O4        1.0  0.7989680650547939  0.4324436134961402  0.6080473543509229  1.0000
  O   O5        1.0  0.5612792934869405  0.625821416471652  0.23834742043644047  1.0000
  O   O6        1.0  0.438722261629067  0.3741761419267392  0.761646500813484  1.0000
  O   O7        1.0  0.05008011486521723  0.31161767236706334  0.878642472372981  1.0000
  O   O8        1.0  0.9499225740790535  0.6883830974487  0.12135635451113566  1.0000
