data_image0
_chemical_formula_structural       Al4H36C68O24
_chemical_formula_sum              "Al4 H36 C68 O24"
_cell_length_a       6.71321141978885
_cell_length_b       23.605143154525162
_cell_length_c       26.200165851619534
_cell_angle_alpha    78.66908520328465
_cell_angle_beta     90.001447426825
_cell_angle_gamma    90.00133499588188

_space_group_name_H-M_alt    "P 1"
_space_group_IT_number       1

loop_
  _space_group_symop_operation_xyz
  'x, y, z'

loop_
  _atom_site_type_symbol
  _atom_site_label
  _atom_site_symmetry_multiplicity
  _atom_site_fract_x
  _atom_site_fract_y
  _atom_site_fract_z
  _atom_site_occupancy
  Al  Al1       1.0  0.7454864722074249  0.7512745522793622  0.24889158564482727  1.0000
  Al  Al2       1.0  0.24797532893080645  0.2503160798182832  0.749255537031253  1.0000
  Al  Al3       1.0  0.24549317619700162  0.7487111779105006  0.2511216124369966  1.0000
  Al  Al4       1.0  0.7479699178051008  0.2496730774007361  0.7507537297881086  1.0000
  H   H1        1.0  0.31027499929337676  0.37412262766400783  0.8380412194023776  1.0000
  H   H2        1.0  0.7877254266544611  0.7009243990511391  0.0966041080147946  1.0000
  H   H3        1.0  0.8102976357764788  0.12589925387299414  0.6619466240054734  1.0000
  H   H4        1.0  0.28781434695302016  0.7990604244039544  0.40341460994989836  1.0000
  H   H5        1.0  0.31295349337042216  0.44244050487760933  0.8998564271766796  1.0000
  H   H6        1.0  0.8092426981379506  0.6404593819928551  0.0297684494450863  1.0000
  H   H7        1.0  0.8129995767283164  0.05758354449226031  0.6001353523671966  1.0000
  H   H8        1.0  0.3093480067133926  0.8595294896659592  0.47024290722730205  1.0000
  H   H9        1.0  0.7018876535071429  0.3981846828531345  0.9397524047196982  1.0000
  H   H10       1.0  0.19361313504869324  0.5218021385953548  0.13082589561155092  1.0000
  H   H11       1.0  0.20185284008780977  0.10178825513068544  0.5602637724392139  1.0000
  H   H12       1.0  0.693575652080398  0.9782093411884247  0.3691678885878531  1.0000
  H   H13       1.0  0.6954391641316136  0.33503093602060113  0.873839955900941  1.0000
  H   H14       1.0  0.19764269720521102  0.5873824360273616  0.19342941697249216  1.0000
  H   H15       1.0  0.1954073517951187  0.16494283920937383  0.6261718101897815  1.0000
  H   H16       1.0  0.6976048261699432  0.912622400532136  0.30656602727759713  1.0000
  H   H17       1.0  0.723796583528248  0.5650518337389201  0.004966318694137299  1.0000
  H   H18       1.0  0.3031515979021222  0.44082919605676096  0.989495802697249  1.0000
  H   H19       1.0  0.22384762157644642  0.9349357740786814  0.4950304899174824  1.0000
  H   H20       1.0  0.8031208758268136  0.05918680674334809  0.5105070875254896  1.0000
  H   H21       1.0  0.3117363297996931  0.4589671564814991  0.538061231250431  1.0000
  H   H22       1.0  0.6688553359745057  0.5391114072135608  0.46098490677290027  1.0000
  H   H23       1.0  0.8117350638524459  0.0410546599628034  0.9619705950900369  1.0000
  H   H24       1.0  0.1688548977232003  0.9608481913652016  0.0390019497215093  1.0000
  H   H25       1.0  0.3102148209137141  0.5392340699413865  0.46010063742601653  1.0000
  H   H26       1.0  0.6701593610267054  0.4588933158100446  0.5389628311681562  1.0000
  H   H27       1.0  0.8102497979449765  0.9607894416982459  0.0399409564647613  1.0000
  H   H28       1.0  0.17016737202334303  0.041055704867510215  0.9610201194975614  1.0000
  H   H29       1.0  0.7215340559268455  0.5001089770374136  0.8878689965470983  1.0000
  H   H30       1.0  0.48984960155734575  0.47575702216101934  0.042795395505969204  1.0000
  H   H31       1.0  0.2215514922498301  0.9998486823360081  0.6121465250647944  1.0000
  H   H32       1.0  0.9898407590554827  0.024278357577038896  0.4572088591799002  1.0000
  H   H33       1.0  0.4988405624025348  0.6790890384917886  0.24069685296414892  1.0000
  H   H34       1.0  0.5000648673620348  0.3243184945485779  0.7268491485577399  1.0000
  H   H35       1.0  0.9988503744756301  0.8208955772830605  0.25930743400263623  1.0000
  H   H36       1.0  6.104637022020001e-05  0.17567853606178113  0.7731675592051772  1.0000
  C   C1        1.0  0.49242059462932997  0.8267577742103853  0.17344200806781632  1.0000
  C   C2        1.0  0.49620279872802814  0.1745790818706965  0.8274299104953186  1.0000
  C   C3        1.0  0.9924150926705552  0.6732386037104305  0.3265761115645843  1.0000
  C   C4        1.0  0.9962097571412231  0.3253980496176254  0.6725715474512627  1.0000
  C   C5        1.0  0.49398855681240417  0.8126572021301682  0.31267647768657986  1.0000
  C   C6        1.0  0.4989026230582354  0.18659880189368752  0.687634871240199  1.0000
  C   C7        1.0  0.9939529474136821  0.6873315255754519  0.1873319756618699  1.0000
  C   C8        1.0  0.9989216485911927  0.3133831701848493  0.8123817939280971  1.0000
  C   C9        1.0  0.17761548224012103  0.38028738696048947  0.8602950039241861  1.0000
  C   C10       1.0  0.8807482980019119  0.6623606953447662  0.1032249318252454  1.0000
  C   C11       1.0  0.6776176762125843  0.1197201174331255  0.6397022835942464  1.0000
  C   C12       1.0  0.3807859164538741  0.8376316688455462  0.3967855141022198  1.0000
  C   C13       1.0  0.17960830593168  0.41744495911445517  0.8954013560569435  1.0000
  C   C14       1.0  0.8915735774782548  0.627742984264188  0.066031163055996  1.0000
  C   C15       1.0  0.679636345429941  0.08256528006985768  0.6045951842286712  1.0000
  C   C16       1.0  0.3916030364203564  0.8722595658556999  0.433970129252245  1.0000
  C   C17       1.0  0.007353257593543101  0.4254430292627801  0.9238232230051581  1.0000
  C   C18       1.0  0.0077496310304497  0.5771543865115091  0.07448714425598268  1.0000
  C   C19       1.0  0.5073439241568068  0.07454686789666451  0.5761897663383166  1.0000
  C   C20       1.0  0.507761601426516  0.922854853409241  0.4255106951580672  1.0000
  C   C21       1.0  0.8339513633653867  0.3944561610989012  0.9163208432004453  1.0000
  C   C22       1.0  0.1103442848010161  0.5620536888019669  0.1220089723251263  1.0000
  C   C23       1.0  0.33390862394319504  0.10551923046597977  0.5836960325510816  1.0000
  C   C24       1.0  0.6103429679019357  0.9379535716451245  0.3779882114057926  1.0000
  C   C25       1.0  0.8302917239373359  0.3583752751664165  0.8802371139806054  1.0000
  C   C26       1.0  0.11011906404078792  0.5982790491780605  0.15781326542079196  1.0000
  C   C27       1.0  0.33025581705487644  0.14160234288109308  0.6197750129144097  1.0000
  C   C28       1.0  0.6101108813385209  0.9017255890524039  0.34218625671616104  1.0000
  C   C29       1.0  0.002223718467711  0.3511208412759571  0.8518947856964161  1.0000
  C   C30       1.0  0.9947951106839881  0.6487301920756039  0.1487027486016501  1.0000
  C   C31       1.0  0.5022011818664041  0.14886642662202124  0.6481122751575227  1.0000
  C   C32       1.0  0.49482815177314177  0.8512610139632812  0.3513080467779021  1.0000
  C   C33       1.0  0.85067692197007  0.5039128860834837  0.9641790956931898  1.0000
  C   C34       1.0  0.18505406445066802  0.5061479045190396  0.027314257203016695  1.0000
  C   C35       1.0  0.35070229440691497  0.9960741957121327  0.5358256914886468  1.0000
  C   C36       1.0  0.6850549678413529  0.9938623278935309  0.47269063999129207  1.0000
  C   C37       1.0  0.8541582010112664  0.5385270508607434  0.0019467677339193006  1.0000
  C   C38       1.0  0.17421997622746235  0.46813083660998706  0.9925752729521093  1.0000
  C   C39       1.0  0.35419729263092853  0.9614647840052298  0.49805419976987503  1.0000
  C   C40       1.0  0.6742206056203701  0.03187300759434209  0.5074289606317065  1.0000
  C   C41       1.0  0.017189802194693002  0.5405695618754861  0.0347513272918079  1.0000
  C   C42       1.0  0.0100996608093737  0.4657546185507968  0.9602503756947555  1.0000
  C   C43       1.0  0.5172170066059891  0.9594347211600223  0.4652506089026218  1.0000
  C   C44       1.0  0.5101120207797508  0.03423824962337109  0.5397548792226416  1.0000
  C   C45       1.0  0.17096316142773563  0.5213508797099563  0.4776471990656788  1.0000
  C   C46       1.0  0.8094884830797896  0.4766893376757508  0.5213940151657611  1.0000
  C   C47       1.0  0.6709849803472211  0.9786602938482075  0.0223819171736324  1.0000
  C   C48       1.0  0.3094947496468379  0.023269470604539308  0.9785994786352885  1.0000
  C   C49       1.0  0.989366894750603  0.5444030022514212  0.45552013474146236  1.0000
  C   C50       1.0  0.9910413405145846  0.45367057717822945  0.5435185562655107  1.0000
  C   C51       1.0  0.4893763287006578  0.9555939137756438  0.0444932541940801  1.0000
  C   C52       1.0  0.49104679737885704  0.0463084444869466  0.9564835693369886  1.0000
  C   C53       1.0  0.8087070838476791  0.5212566343774726  0.47814403462204785  1.0000
  C   C54       1.0  0.17178329229784595  0.47675221777934945  0.5208774523205904  1.0000
  C   C55       1.0  0.30871428650172567  0.9787082612645859  0.0218526133756782  1.0000
  C   C56       1.0  0.6717952338252999  0.023250900412826132  0.9791438496598844  1.0000
  C   C57       1.0  0.9885706570953374  0.5897071022493563  0.4112379717176324  1.0000
  C   C58       1.0  0.9919746077697412  0.4085633015502452  0.5879361711890638  1.0000
  C   C59       1.0  0.48858763142298767  0.9102963527738482  0.08878043502389227  1.0000
  C   C60       1.0  0.49196212406666723  0.091408092587919  0.9120640548241924  1.0000
  C   C61       1.0  0.9934667589051217  0.3699825789708555  0.626418993526464  1.0000
  C   C62       1.0  0.9882433606412206  0.6284302224311202  0.37289158004894324  1.0000
  C   C63       1.0  0.49344619406907253  0.12999373150898208  0.8735761885538836  1.0000
  C   C64       1.0  0.48825652424758914  0.871571896201928  0.12713304827761363  1.0000
  C   C65       1.0  0.6866163954534416  0.5125882304765171  0.9257168565004863  1.0000
  C   C66       1.0  0.38976531897463945  0.5125384065478257  0.0467257132899306  1.0000
  C   C67       1.0  0.1866501091762416  0.9873887390963747  0.5742928398569802  1.0000
  C   C68       1.0  0.8897766703070858  0.987489558793193  0.4532754535626324  1.0000
  O   O1        1.0  0.3253223858322869  0.7946016375608167  0.3003387902061618  1.0000
  O   O2        1.0  0.6670948710048423  0.19971365734053845  0.704682769611658  1.0000
  O   O3        1.0  0.8252962097315263  0.7053877552267094  0.1996693855059064  1.0000
  O   O4        1.0  0.1671036443257492  0.3002703103079938  0.7953346155171488  1.0000
  O   O5        1.0  0.664890095893405  0.8103791295364356  0.19043526303772043  1.0000
  O   O6        1.0  0.3276674743825865  0.19210508125350145  0.80806968684945  1.0000
  O   O7        1.0  0.1648909941253933  0.689610211480229  0.3095805824753981  1.0000
  O   O8        1.0  0.8276798734851881  0.3078758587278898  0.6919326519551987  1.0000
  O   O9        1.0  0.6622761452109743  0.801085769700407  0.2945915066150492  1.0000
  O   O10       1.0  0.3285253298396498  0.2017102352153017  0.7017905034893772  1.0000
  O   O11       1.0  0.1622406986760296  0.6989048715304803  0.2054180579701992  1.0000
  O   O12       1.0  0.8285425051741413  0.29827186615101897  0.7982242955622354  1.0000
  O   O13       1.0  0.8243132324879028  0.6910051566333663  0.3072796192698277  1.0000
  O   O14       1.0  0.1671108987983345  0.3078762717998771  0.6901982134410928  1.0000
  O   O15       1.0  0.324324194129055  0.8089903715485818  0.1927394062307854  1.0000
  O   O16       1.0  0.6670980446761945  0.19210713553936637  0.809805948777189  1.0000
  O   O17       1.0  0.496938262361205  0.7156247794734868  0.2522944461605476  1.0000
  O   O18       1.0  0.4983274614597378  0.284760206723746  0.7459634924752764  1.0000
  O   O19       1.0  0.9969437669561503  0.7843576251618313  0.2477140889693601  1.0000
  O   O20       1.0  0.998323005725112  0.21523334120355034  0.7540445630504209  1.0000
  O   O21       1.0  0.5237619666561742  0.533637831226649  0.9326861756263368  1.0000
  O   O22       1.0  0.45592096610061367  0.5543435901413858  0.06230337794090701  1.0000
  O   O23       1.0  0.0237841245246173  0.9663410325276016  0.5673159648654647  1.0000
  O   O24       1.0  0.955985393622335  0.9456960853401668  0.4376897417192893  1.0000
