data_image0
_chemical_formula_structural       Zr6H28C52Br2O42
_chemical_formula_sum              "Zr6 H28 C52 Br2 O42"
_cell_length_a       14.783900783539718
_cell_length_b       14.772513700612365
_cell_length_c       14.77815063311606
_cell_angle_alpha    60.03797671365232
_cell_angle_beta     60.016309675439736
_cell_angle_gamma    60.09897336159386

_space_group_name_H-M_alt    "P 1"
_space_group_IT_number       1

loop_
  _space_group_symop_operation_xyz
  'x, y, z'

loop_
  _atom_site_type_symbol
  _atom_site_label
  _atom_site_symmetry_multiplicity
  _atom_site_fract_x
  _atom_site_fract_y
  _atom_site_fract_z
  _atom_site_occupancy
  Zr  Zr1       1.0  0.877492808956475  0.8835317074020068  0.6188349402408236  1.0000
  Zr  Zr2       1.0  0.1184987522891134  0.11865013380798928  0.38312030413383263  1.0000
  Zr  Zr3       1.0  0.11658277762843018  0.8788964423410661  0.6235685958109158  1.0000
  Zr  Zr4       1.0  0.8790388623033962  0.12126716241332497  0.38139041799058054  1.0000
  Zr  Zr5       1.0  0.11845967866270248  0.8812957284563082  0.382762162335908  1.0000
  Zr  Zr6       1.0  0.8797595015683868  0.11978334488621543  0.6207508217644176  1.0000
  H   H1        1.0  0.09278864532525696  0.7175400287280382  0.595691824235793  1.0000
  H   H2        1.0  0.09577571671496805  0.09460387973986431  0.21885186268423243  1.0000
  H   H3        1.0  0.09397720646310148  0.09234008727208473  0.5965806924447465  1.0000
  H   H4        1.0  0.7162536494818283  0.09631833916358792  0.5941535462027899  1.0000
  H   H5        1.0  0.15907433538018273  0.5694051110109511  0.3756395181458032  1.0000
  H   H6        1.0  0.8306611844992774  0.4445567320025887  0.608860175368747  1.0000
  H   H7        1.0  0.592705519256512  0.13761583702490998  0.9248425161529569  1.0000
  H   H8        1.0  0.4213305239159765  0.8482294238304889  0.0951546600256491  1.0000
  H   H9        1.0  0.8360295849047289  0.12076081253070473  0.10926147239285913  1.0000
  H   H10       1.0  0.14820412416635548  0.8611254900418147  0.9102531787806855  1.0000
  H   H11       1.0  0.5921324587084272  0.42188880259825373  0.3511744251195097  1.0000
  H   H12       1.0  0.4223499900334604  0.5954336902862208  0.6386364579015195  1.0000
  H   H13       1.0  0.9864796643573972  0.5768126526253495  0.7419671313112701  1.0000
  H   H14       1.0  0.9967278708912629  0.4071605931993997  0.7398206286974727  1.0000
  H   H15       1.0  0.9941823406661995  0.2385804797356741  0.07617847960631244  1.0000
  H   H16       1.0  0.0002767074999070272  0.23696208518989437  0.9085031950052881  1.0000
  H   H17       1.0  0.5923231938183023  0.8483643133978516  0.6380844027790786  1.0000
  H   H18       1.0  0.42227824762301214  0.1337394647428241  0.3470848118277203  1.0000
  H   H19       1.0  0.16995244355838682  0.3323592429071738  0.36296499906283936  1.0000
  H   H20       1.0  0.8190495393543314  0.6833506304753599  0.6192951949572532  1.0000
  H   H21       1.0  0.35523635642487517  0.14709500172421025  0.16287422937183044  1.0000
  H   H22       1.0  0.6579918557754072  0.8393606804106992  0.856442043575136  1.0000
  H   H23       1.0  0.8267033473530461  0.13356574341040775  0.8693259175119864  1.0000
  H   H24       1.0  0.15692778911215294  0.8468995090036842  0.15107595624340325  1.0000
  H   H25       1.0  0.35465067545237633  0.6601240121719841  0.3408325163618785  1.0000
  H   H26       1.0  0.6614519619772565  0.35854511059036287  0.6468353914511552  1.0000
  H   H27       1.0  0.3552150229091779  0.8361210430461341  0.648842927104603  1.0000
  H   H28       1.0  0.6589444485380228  0.14650462437553086  0.3367539616870303  1.0000
  C   C1        1.0  0.9959854654323194  0.7007675559962507  0.49338576674629303  1.0000
  C   C2        1.0  0.30948634945093517  0.994691773963851  0.2016704805568424  1.0000
  C   C3        1.0  0.9972566277289585  0.3081864738528993  0.49769484926696345  1.0000
  C   C4        1.0  0.6968636531661404  0.998706782613283  0.8106376648663699  1.0000
  C   C5        1.0  0.9839089613025389  0.7051114940318401  0.8118758425301993  1.0000
  C   C6        1.0  0.6978972163403653  0.9956606361759696  0.4957338541014452  1.0000
  C   C7        1.0  0.9910039716078956  0.31023649481732446  0.20444378001626967  1.0000
  C   C8        1.0  0.3094670879767348  0.9937032235443439  0.4964240524561064  1.0000
  C   C9        1.0  0.3083214629840897  0.6990368283329006  0.499623118527751  1.0000
  C   C10       1.0  0.9951977426312056  0.9942703364687872  0.8116931266788612  1.0000
  C   C11       1.0  0.6987576041660049  0.3113474359953159  0.4966334632075443  1.0000
  C   C12       1.0  0.9947265969318554  0.9951377940706932  0.2011784049712519  1.0000
  C   C13       1.0  0.9969875484867575  0.410779568975009  0.49253484461132774  1.0000
  C   C14       1.0  0.9933089389623079  0.6024094471408218  0.4928795565985524  1.0000
  C   C15       1.0  0.09101922684610037  0.4469079629930165  0.42435687906398567  1.0000
  C   C16       1.0  0.898393816475142  0.5676323125610025  0.5592712909015066  1.0000
  C   C17       1.0  0.08710778375984782  0.5421365507027573  0.4264670917960274  1.0000
  C   C18       1.0  0.9025662633859638  0.47194622336507314  0.5579334224002963  1.0000
  C   C19       1.0  0.4120568953179456  0.9937847900787062  0.10498788263547702  1.0000
  C   C20       1.0  0.6011535547913808  0.9928930342983762  0.9142217839831589  1.0000
  C   C21       1.0  0.46195388815913674  0.07609564656608812  0.05729220517352469  1.0000
  C   C22       1.0  0.5531908021173845  0.9086185493272225  0.9638267340394223  1.0000
  C   C23       1.0  0.5555174876343186  0.07392336673214558  0.9624423729929958  1.0000
  C   C24       1.0  0.4591794962123217  0.9112779155267176  0.058180723103916365  1.0000
  C   C25       1.0  0.9915705374021544  0.9932136098979357  0.9139349639214776  1.0000
  C   C26       1.0  0.9937126794325195  0.9899368239627079  0.10448461221737673  1.0000
  C   C27       1.0  0.9010498715452544  0.06711018877798826  0.9713914360117002  1.0000
  C   C28       1.0  0.08268730957296816  0.9138750051136597  0.048883748406439116  1.0000
  C   C29       1.0  0.9042979335620204  0.06393790348028021  0.06559934999420852  1.0000
  C   C30       1.0  0.0799634109577241  0.9178665989746618  0.9540042352499684  1.0000
  C   C31       1.0  0.41163261839651016  0.6031460288745761  0.4943503743375361  1.0000
  C   C32       1.0  0.6021529822051478  0.41407237021753207  0.495657945389567  1.0000
  C   C33       1.0  0.4611885420529518  0.5546924909931761  0.41053647991935804  1.0000
  C   C34       1.0  0.5548750170127686  0.46459078724586783  0.5772745368408182  1.0000
  C   C35       1.0  0.5551726318085528  0.46050281101536694  0.41356961520480007  1.0000
  C   C36       1.0  0.4599303108516041  0.5578731935719148  0.5752649594547421  1.0000
  C   C37       1.0  0.9773741175800197  0.6059223809116644  0.9156379008263897  1.0000
  C   C38       1.0  0.9869272004920405  0.5070447401562317  0.9108831504850273  1.0000
  C   C39       1.0  0.9622374806841804  0.6100106643847667  0.014094924421151102  1.0000
  C   C40       1.0  0.9918184471938009  0.5025138026784219  0.8145177326780202  1.0000
  C   C41       1.0  0.9966602824670261  0.4073888675016592  0.8135660230554934  1.0000
  C   C42       1.0  0.9832203274524359  0.4139130793390676  0.10506023311486964  1.0000
  C   C43       1.0  0.9655266883002441  0.5132370170544008  0.10941846492694665  1.0000
  C   C44       1.0  0.9896056623841715  0.40931970176745114  0.007420610793374569  1.0000
  C   C45       1.0  0.996351941229655  0.31217894824003173  0.0026890076436671727  1.0000
  C   C46       1.0  0.9988081249672264  0.3114841583282129  0.9085308429193191  1.0000
  C   C47       1.0  0.41237694472297914  0.9893654972939742  0.494390521574708  1.0000
  C   C48       1.0  0.6016708738219096  0.9933492328724042  0.4913448953119046  1.0000
  C   C49       1.0  0.4618061161660733  0.9063278083240293  0.577185793998474  1.0000
  C   C50       1.0  0.5540194728060044  0.0745790788316256  0.4068032876111901  1.0000
  C   C51       1.0  0.5554375824621188  0.9104910199943247  0.5740569941692044  1.0000
  C   C52       1.0  0.4598320456085929  0.07095215251747779  0.4104834044807788  1.0000
  Br  Br1       1.0  0.9393616631934731  0.5212687547995714  0.2450853399122935  1.0000
  Br  Br2       1.0  0.9316124379792683  0.7467943960678697  0.022797042063963605  1.0000
  O   O1        1.0  0.9169557463796849  0.7429098282072036  0.5696670424107638  1.0000
  O   O2        1.0  0.26602200378312796  0.07397057801416201  0.241338980062082  1.0000
  O   O3        1.0  0.07776651646127418  0.2634217469663795  0.4237965992281687  1.0000
  O   O4        1.0  0.7346544787502793  0.9246944796597845  0.7662060031977943  1.0000
  O   O5        1.0  0.06485761915735119  0.7386147850732313  0.7721245318426924  1.0000
  O   O6        1.0  0.7377362263751267  0.07464384855671814  0.4199187378793426  1.0000
  O   O7        1.0  0.9154468192346031  0.2685673567510348  0.24521963586782658  1.0000
  O   O8        1.0  0.2663834568862668  0.9180446997496859  0.575690685922041  1.0000
  O   O9        1.0  0.2661612462207119  0.7394135521709018  0.4230098970140477  1.0000
  O   O10       1.0  0.9180578232282458  0.07219367887374513  0.7704160195538992  1.0000
  O   O11       1.0  0.7397329292047417  0.26904798580883243  0.5746937537247163  1.0000
  O   O12       1.0  0.07416207844600091  0.92014616143085  0.24029582242897618  1.0000
  O   O13       1.0  0.07327979859429955  0.9209531686175512  0.7682471805793656  1.0000
  O   O14       1.0  0.7361398690250099  0.2676409453331062  0.42386552757410817  1.0000
  O   O15       1.0  0.9204334162270414  0.07304546761401542  0.23992685152828844  1.0000
  O   O16       1.0  0.26373286852028605  0.7369057550740479  0.5787374339513535  1.0000
  O   O17       1.0  0.9097600581907203  0.7453006289954729  0.768762955221739  1.0000
  O   O18       1.0  0.26641187050557863  0.07177603836833403  0.4226639712875908  1.0000
  O   O19       1.0  0.07179755434974308  0.26967738980968653  0.23822425464888405  1.0000
  O   O20       1.0  0.736707610727109  0.9220495256451855  0.5738877055539718  1.0000
  O   O21       1.0  0.7368391383682963  0.07598551316176119  0.7681481454090288  1.0000
  O   O22       1.0  0.07538616876181703  0.7381584906020818  0.42154356053974606  1.0000
  O   O23       1.0  0.2665799776691244  0.9204860148836289  0.24100915445539778  1.0000
  O   O24       1.0  0.9211977052015289  0.2676304605041224  0.5739637145450088  1.0000
  O   O25       1.0  0.7965128078317392  0.06923557688049439  0.567569733458356  1.0000
  O   O26       1.0  0.06622392278750049  0.06613450908494663  0.5701679838318512  1.0000
  O   O27       1.0  0.066701436617052  0.0683413857060415  0.299161570122557  1.0000
  O   O28       1.0  0.06433441658787581  0.797845610824389  0.5698692775093122  1.0000
  O   O29       1.0  0.14701214419827816  0.9499186142811311  0.4536403476967692  1.0000
  O   O30       1.0  0.9496354350699788  0.9519020910696981  0.45062877808103236  1.0000
  O   O31       1.0  0.9498791392244641  0.14908190209037303  0.4519919507738309  1.0000
  O   O32       1.0  0.9481707017870915  0.951192434148652  0.6499480596791687  1.0000
  O   O33       1.0  0.18502355853494382  0.3928616883139853  0.3588114379768755  1.0000
  O   O34       1.0  0.8038522095687954  0.6228787110626258  0.6235345160596425  1.0000
  O   O35       1.0  0.42275707272263924  0.15739177012913064  0.09839154176600572  1.0000
  O   O36       1.0  0.593262466014522  0.8263155501604589  0.9238096347198026  1.0000
  O   O37       1.0  0.8118872252435381  0.14089709894523836  0.939072820233939  1.0000
  O   O38       1.0  0.17075127500884  0.8383961943318211  0.08233915409044822  1.0000
  O   O39       1.0  0.42106179553849193  0.5945945510525235  0.32832979821100855  1.0000
  O   O40       1.0  0.59689880104208  0.4258261035120938  0.6577902643890354  1.0000
  O   O41       1.0  0.42188806322329236  0.8240050389936115  0.6598155893184342  1.0000
  O   O42       1.0  0.5948235705772619  0.15603330172932323  0.32334813419868175  1.0000
