data_image0
_chemical_formula_structural       Cd2H24C44N12O8
_chemical_formula_sum              "Cd2 H24 C44 N12 O8"
_cell_length_a       9.744771003206028
_cell_length_b       10.442391287981582
_cell_length_c       10.861267888345628
_cell_angle_alpha    85.96364093860622
_cell_angle_beta     65.83052018168283
_cell_angle_gamma    71.07992373993943

_space_group_name_H-M_alt    "P 1"
_space_group_IT_number       1

loop_
  _space_group_symop_operation_xyz
  'x, y, z'

loop_
  _atom_site_type_symbol
  _atom_site_label
  _atom_site_symmetry_multiplicity
  _atom_site_fract_x
  _atom_site_fract_y
  _atom_site_fract_z
  _atom_site_occupancy
  Cd  Cd1       1.0  0.35114730827263685  0.5753141818114429  0.17206395963840035  1.0000
  Cd  Cd2       1.0  0.6488544102249846  0.42468573130264525  0.8279370274222371  1.0000
  H   H1        1.0  0.6737922989776521  0.8303674351466769  0.22366236033709436  1.0000
  H   H2        1.0  0.32620830635963927  0.16963247364135015  0.7763371904679061  1.0000
  H   H3        1.0  0.3488225928614241  0.25074098779839465  0.09762728672118469  1.0000
  H   H4        1.0  0.6511780275912926  0.7492589073512903  0.9023704181080063  1.0000
  H   H5        1.0  0.5056065677918654  0.43548509038599553  0.3879640440000073  1.0000
  H   H6        1.0  0.4943940375454189  0.5645148184020315  0.6120355068049859  1.0000
  H   H7        1.0  0.4792497119753775  0.25687071205309314  0.5563129916886566  1.0000
  H   H8        1.0  0.5207516384217926  0.7431302091594675  0.44368713554901257  1.0000
  H   H9        1.0  0.2571000121882463  0.15873974386781242  0.6085113416866361  1.0000
  H   H10       1.0  0.7429017138670916  0.8412601624271051  0.39148872238609994  1.0000
  H   H11       1.0  0.05258623091593508  0.6459778926067586  0.07727872525244087  1.0000
  H   H12       1.0  0.94741397609004  0.3540230515564176  0.9227236576812103  1.0000
  H   H13       1.0  0.8097212229498821  0.5760876852899344  0.13014331634015272  1.0000
  H   H14       1.0  0.190278991613809  0.4239132520540778  0.8698581436055902  1.0000
  H   H15       1.0  0.7582019734636846  0.40278274604548153  0.29653013191461497  1.0000
  H   H16       1.0  0.2417986243158906  0.5972171695617164  0.7034703418782866  1.0000
  H   H17       1.0  0.8337696219329089  0.2519460673833507  0.4653233963829847  1.0000
  H   H18       1.0  0.16623211168014512  0.7480538320923956  0.5346757447018503  1.0000
  H   H19       1.0  0.020140360512002096  0.16007663239808786  0.575665962489154  1.0000
  H   H20       1.0  0.9798606204834571  0.8399222614722958  0.42433352515091366  1.0000
  H   H21       1.0  0.07349442405880777  0.9319527963120822  0.18540361977181152  1.0000
  H   H22       1.0  0.9265054286608814  0.0680461068705753  0.8145962775884141  1.0000
  H   H23       1.0  0.9520184097168068  0.14800645071390056  0.13034922421687156  1.0000
  H   H24       1.0  0.0479795634107774  0.8519944916163241  0.8696512091933996  1.0000
  C   C1        1.0  0.40670194475870863  0.808319349088791  0.21992673693842585  1.0000
  C   C2        1.0  0.5932975323028131  0.1916805690115098  0.78007322358674  1.0000
  C   C3        1.0  0.21615257583300726  0.051983922432029324  0.15572757454322064  1.0000
  C   C4        1.0  0.7838465255703397  0.9480170105859145  0.844272449146878  1.0000
  C   C5        1.0  0.4564087612626437  0.9292148829757639  0.1991674534307747  1.0000
  C   C6        1.0  0.5435918440746406  0.0707850258122633  0.8008320973742186  1.0000
  C   C7        1.0  0.36389143555242504  0.049405799179069704  0.16368583990918478  1.0000
  C   C8        1.0  0.636109545443034  0.9505930946913141  0.8363136477308757  1.0000
  C   C9        1.0  0.599392826187582  0.9243928419591119  0.20274470648298146  1.0000
  C   C10       1.0  0.40060815480787676  0.07560605191127223  0.797254781157079  1.0000
  C   C11       1.0  0.41702647769378837  0.1613037122334973  0.13039459751067983  1.0000
  C   C12       1.0  0.5829730069254493  0.8386961990476327  0.8696044400265844  1.0000
  C   C13       1.0  0.6504972739653142  0.03751415236527581  0.17296152476906454  1.0000
  C   C14       1.0  0.3495029557138024  0.9624867713403875  0.8270380892008686  1.0000
  C   C15       1.0  0.5602083321114862  0.1568545682469065  0.1345837169365466  1.0000
  C   C16       1.0  0.43979115250775197  0.8431453430342302  0.8654153206007179  1.0000
  C   C17       1.0  0.8013686366782268  0.0332546573890298  0.17422395240477323  1.0000
  C   C18       1.0  0.19862971210753258  0.9667452700235585  0.825776417840558  1.0000
  C   C19       1.0  0.6244568297923507  0.26891430603383526  0.09304538094949785  1.0000
  C   C20       1.0  0.37554264726917796  0.7310856120664724  0.906954579575668  1.0000
  C   C21       1.0  0.41268868579844314  0.3890870652259296  0.41338955948842926  1.0000
  C   C22       1.0  0.5873119195388482  0.6109128435620976  0.586609991316571  1.0000
  C   C23       1.0  0.39897895415143825  0.2877029701937631  0.505292179818774  1.0000
  C   C24       1.0  0.6010216436281367  0.7122969454134277  0.49470829397412786  1.0000
  C   C25       1.0  0.2766456280453795  0.23484590223948493  0.5347766963753029  1.0000
  C   C26       1.0  0.7233564812258418  0.7651529823186181  0.46522238154459217  1.0000
  C   C27       1.0  0.1692410890247729  0.28374364556001563  0.47276119475927897  1.0000
  C   C28       1.0  0.8307598995284022  0.7162552414911973  0.5272373698928732  1.0000
  C   C29       1.0  0.19370483941563774  0.3853388227867074  0.3795981125165611  1.0000
  C   C30       1.0  0.8062961491375376  0.6146600642645056  0.6204004521355913  1.0000
  C   C31       1.0  0.08834259051225496  0.43573940643998554  0.3113465139378278  1.0000
  C   C32       1.0  0.9116580223827456  0.5642604955288705  0.6886521138792643  1.0000
  C   C33       1.0  0.021054209385702967  0.5743825537183866  0.15357996618104144  1.0000
  C   C34       1.0  0.9789448844599348  0.42561838611872826  0.8464209804969657  1.0000
  C   C35       1.0  0.8878659485707064  0.5336103461643447  0.18175755914742092  1.0000
  C   C36       1.0  0.11213427355069432  0.4663905843604966  0.8182429778104205  1.0000
  C   C37       1.0  0.8577917487725558  0.43918294971201277  0.27607047235073867  1.0000
  C   C38       1.0  0.14220884900701947  0.5608169658951853  0.7239300014421627  1.0000
  C   C39       1.0  0.9584089763195959  0.3867393631795153  0.3438729010707248  1.0000
  C   C40       1.0  0.04159123824408789  0.6132615741644899  0.656128558875018  1.0000
  C   C41       1.0  0.9353617518631978  0.2869629752249666  0.4409531413696044  1.0000
  C   C42       1.0  0.06463772519833097  0.7130369428753411  0.5590468191555543  1.0000
  C   C43       1.0  0.03772252323781802  0.23608250036901515  0.5019447126739465  1.0000
  C   C44       1.0  0.9622799541338694  0.7639153760906154  0.4980552250689173  1.0000
  N   N1        1.0  0.2710405821597276  0.8156389926416809  0.21228701038614858  1.0000
  N   N2        1.0  0.7289588873440777  0.18436093227779796  0.7877138731269184  1.0000
  N   N3        1.0  0.18113820342077244  0.9347287155527939  0.18321596697042242  1.0000
  N   N4        1.0  0.8188612811984655  0.0652711957283429  0.8167830705668347  1.0000
  N   N5        1.0  0.8429904409375623  0.14637169466684702  0.13441157804090403  1.0000
  N   N6        1.0  0.15700902100853403  0.8536282370718027  0.8655902284600713  1.0000
  N   N7        1.0  0.762296869314234  0.26149590021083924  0.09302836738739723  1.0000
  N   N8        1.0  0.23770108869792486  0.7385050557577273  0.9069739119986834  1.0000
  N   N9        1.0  0.3138576424386982  0.4357956365500117  0.35259602361487197  1.0000
  N   N10       1.0  0.686143346114477  0.5642032505012012  0.6474025410372872  1.0000
  N   N11       1.0  0.11798897814655615  0.5264931893150689  0.21646261449674134  1.0000
  N   N12       1.0  0.8820116196330191  0.47350672629212914  0.7835378592961673  1.0000
  O   O1        1.0  0.49270684858949926  0.6920497344534767  0.23868185545696008  1.0000
  O   O2        1.0  0.5072926284720296  0.3079501836468239  0.7613181050682056  1.0000
  O   O3        1.0  0.546794798661935  0.37724365694131023  0.050394003773675325  1.0000
  O   O4        1.0  0.45320430274141904  0.6227572760766337  0.9496060199164232  1.0000
  O   O5        1.0  0.1269462792445211  0.1543929391568568  0.12496200049022828  1.0000
  O   O6        1.0  0.8730532053747169  0.8456069721242803  0.8750370370470292  1.0000
  O   O7        1.0  0.8887322834649539  0.9326247482511578  0.2095452837447665  1.0000
  O   O8        1.0  0.1112671935965679  0.0673751698491429  0.7904546767803992  1.0000
