data_image0
_chemical_formula_structural       Na2CdH24C20O24
_chemical_formula_sum              "Na2 Cd1 H24 C20 O24"
_cell_length_a       7.07625107471218
_cell_length_b       10.89383335111338
_cell_length_c       10.570346055926608
_cell_angle_alpha    84.46448041661972
_cell_angle_beta     70.47603682963539
_cell_angle_gamma    73.49893451542802

_space_group_name_H-M_alt    "P 1"
_space_group_IT_number       1

loop_
  _space_group_symop_operation_xyz
  'x, y, z'

loop_
  _atom_site_type_symbol
  _atom_site_label
  _atom_site_symmetry_multiplicity
  _atom_site_fract_x
  _atom_site_fract_y
  _atom_site_fract_z
  _atom_site_occupancy
  Na  Na1       1.0  0.3184368142005739  0.65647676682444  0.9999216920300853  1.0000
  Na  Na2       1.0  0.6818102312922747  0.3437470388586732  8.521407686856197e-05  1.0000
  Cd  Cd1       1.0  8.44427099480154e-05  0.999931869935793  0.9999974939317511  1.0000
  H   H1        1.0  0.36386905761673216  0.5001920790631402  0.271616496263988  1.0000
  H   H2        1.0  0.6360300438441728  0.49980059747603894  0.7283919898602917  1.0000
  H   H3        1.0  0.11948157003202883  0.49989529312170344  0.7617306094352331  1.0000
  H   H4        1.0  0.880537569988235  0.500087179871116  0.23827902207089824  1.0000
  H   H5        1.0  0.9302600040157715  0.9281775584480129  0.2800132947150331  1.0000
  H   H6        1.0  0.7879126102540968  0.07188784568726451  0.27985922774676913  1.0000
  H   H7        1.0  0.06984821549055908  0.0718237744101131  0.720012005567071  1.0000
  H   H8        1.0  0.21220958047342708  0.9281117440300835  0.7201216119809216  1.0000
  H   H9        1.0  0.7603472668355379  0.6015486126242705  0.9219819751810334  1.0000
  H   H10       1.0  0.31772183840602947  0.39854238461261104  0.9219830963769624  1.0000
  H   H11       1.0  0.23969257184585052  0.39850911306767506  0.07802135465779969  1.0000
  H   H12       1.0  0.6823222035063098  0.6015142822237038  0.07801521526055671  1.0000
  H   H13       1.0  0.40691499501814826  0.8794549157876831  0.07913505430984454  1.0000
  H   H14       1.0  0.5143329384785531  0.1203780039767182  0.07912323706674582  1.0000
  H   H15       1.0  0.5930291931608669  0.12132122378176997  0.9207768732198076  1.0000
  H   H16       1.0  0.4855513162002366  0.8803775715602031  0.9208559399143894  1.0000
  H   H17       1.0  0.952520546203296  0.7686072487190572  0.9202791554947893  1.0000
  H   H18       1.0  0.12697581480647108  0.23137977019271716  0.9207235995390164  1.0000
  H   H19       1.0  0.047446906260631666  0.23137259643375074  0.07972734878785559  1.0000
  H   H20       1.0  0.8729997361898968  0.7686009483300964  0.07928059995774107  1.0000
  H   H21       1.0  0.9073021595056119  0.8279943979466821  0.5263684149052706  1.0000
  H   H22       1.0  0.5669805620296556  0.17225492022267022  0.5266748259622389  1.0000
  H   H23       1.0  0.09268418242738358  0.1719950286077534  0.47364645907436653  1.0000
  H   H24       1.0  0.4330109379876035  0.8277341240716966  0.47331791028069853  1.0000
  C   C1        1.0  0.30948966330824845  0.5001250695336951  0.3807122731010751  1.0000
  C   C2        1.0  0.690447087574775  0.4998473134539694  0.6192948051076925  1.0000
  C   C3        1.0  0.17406070276286562  0.49998017596927014  0.6526871554079818  1.0000
  C   C4        1.0  0.8259284877823134  0.4999871586331394  0.34732119403542316  1.0000
  C   C5        1.0  0.16931074156940434  0.6117521647415317  0.4450059030826665  1.0000
  C   C6        1.0  0.38560195440025774  0.3883992150204279  0.4451516661247225  1.0000
  C   C7        1.0  0.8306221515134599  0.3882128440459526  0.5550166237536587  1.0000
  C   C8        1.0  0.6143475088187744  0.6115689943732434  0.5548377802745322  1.0000
  C   C9        1.0  0.0965610112074274  0.6114325080020534  0.5876248179143175  1.0000
  C   C10       1.0  0.316365941891256  0.3886293510584551  0.5877713526344053  1.0000
  C   C11       1.0  0.903406399678886  0.3885359733170048  0.4123879189530938  1.0000
  C   C12       1.0  0.6836134331228224  0.6113378879529492  0.41222758600513737  1.0000
  C   C13       1.0  0.9430395254013533  0.717588731518738  0.6825427267589105  1.0000
  C   C14       1.0  0.37502308597046163  0.28227035574156634  0.6827902310145646  1.0000
  C   C15       1.0  0.056961930291485885  0.2823939693650104  0.3174750051252957  1.0000
  C   C16       1.0  0.6249931616156417  0.7177071336409995  0.3172054216841643  1.0000
  C   C17       1.0  0.11545564729274116  0.7180983751523938  0.34805031722128627  1.0000
  C   C18       1.0  0.5360666658616752  0.28215941307259135  0.3482772677717065  1.0000
  C   C19       1.0  0.8844064477093669  0.28185384745611225  0.6519843289551018  1.0000
  C   C20       1.0  0.46381824846105957  0.7177946104148987  0.651698647940151  1.0000
  O   O1        1.0  0.9009775756850688  0.6979176455651981  0.8067405202792557  1.0000
  O   O2        1.0  0.29286463019708703  0.30159132724723753  0.8069707264181292  1.0000
  O   O3        1.0  0.09907831489189799  0.3020521901697181  0.1932682599551967  1.0000
  O   O4        1.0  0.7071939893997976  0.6983707913823166  0.19303432765708808  1.0000
  O   O5        1.0  0.8556962203996508  0.8258058224343898  0.6377576348431475  1.0000
  O   O6        1.0  0.5073039535328548  0.17425578153125804  0.6380877552731761  1.0000
  O   O7        1.0  0.14432189844541193  0.17418747782652133  0.3622716147689716  1.0000
  O   O8        1.0  0.49273708066088767  0.8257318636482655  0.36189447216120385  1.0000
  O   O9        1.0  0.9734681314503318  0.8222472862292706  0.39607003405779295  1.0000
  O   O10       1.0  0.630778464770437  0.1781049641205428  0.396316563915633  1.0000
  O   O11       1.0  0.02643851103209737  0.1777286811094285  0.6039715289784054  1.0000
  O   O12       1.0  0.36915249480786366  0.8218725434605504  0.6036504699501677  1.0000
  O   O13       1.0  0.20739665868384097  0.7008272286440373  0.22547295489163588  1.0000
  O   O14       1.0  0.5656817412451289  0.2994987185046227  0.22572533431959127  1.0000
  O   O15       1.0  0.7923435768740957  0.29908376103009  0.7745692844888055  1.0000
  O   O16       1.0  0.43408758862647573  0.7004214651635082  0.7742447538334716  1.0000
  O   O17       1.0  0.6736657486812092  0.5629153973604631  3.7691329424648335e-05  1.0000
  O   O18       1.0  0.32657351399151924  0.43702083884380744  0.9999649760057848  1.0000
  O   O19       1.0  0.3618212060513883  0.8913339638184967  4.3481662103783623e-05  1.0000
  O   O20       1.0  0.6382036960542764  0.10760712832033902  0.99990180216205  1.0000
  O   O21       1.0  0.9815923489772517  0.7912261660354147  0.9997744060975008  1.0000
  O   O22       1.0  0.0183959116375974  0.20873917502120784  0.00022842467490849332  1.0000
  O   O23       1.0  0.8879759721029431  0.9997996482935894  0.22000086415987147  1.0000
  O   O24       1.0  0.11242092717795067  0.0002675015765731988  0.7799993400939584  1.0000
