data_image0
_chemical_formula_structural       Al6H92C96O34
_chemical_formula_sum              "Al6 H92 C96 O34"
_cell_length_a       12.597793476619568
_cell_length_b       12.474549012766339
_cell_length_c       28.419763285894447
_cell_angle_alpha    88.29149451814264
_cell_angle_beta     90.18593189060326
_cell_angle_gamma    120.69742131253606

_space_group_name_H-M_alt    "P 1"
_space_group_IT_number       1

loop_
  _space_group_symop_operation_xyz
  'x, y, z'

loop_
  _atom_site_type_symbol
  _atom_site_label
  _atom_site_symmetry_multiplicity
  _atom_site_fract_x
  _atom_site_fract_y
  _atom_site_fract_z
  _atom_site_occupancy
  Al  Al1       1.0  0.18024923662414954  0.5994479344571177  0.4962378097505038  1.0000
  Al  Al2       1.0  0.9145820769654094  0.5759876508901202  0.49809594975782556  1.0000
  Al  Al3       1.0  0.9229101875937713  0.34034825758153187  0.497989144013502  1.0000
  Al  Al4       1.0  0.1417517422037022  0.06016968221847923  0.9973184834817063  1.0000
  Al  Al5       1.0  0.404855201815259  0.3144164940024083  0.9981137091014531  1.0000
  Al  Al6       1.0  0.4033395510965505  0.07329162236001002  0.9986519958649469  1.0000
  H   H1        1.0  0.7475479342168115  0.542887766540865  0.2091620828081631  1.0000
  H   H2        1.0  0.3689087387721131  0.4559802115688855  0.21803617178611742  1.0000
  H   H3        1.0  0.24667065254551085  0.7173772640598984  0.2114266963356783  1.0000
  H   H4        1.0  0.553208882074145  0.4153293233860823  0.276825636655893  1.0000
  H   H5        1.0  0.23771441098065793  0.021403597794787305  0.2925605007075518  1.0000
  H   H6        1.0  0.3403935945790904  0.9668169100354405  0.3036045303963846  1.0000
  H   H7        1.0  0.36804754370196946  0.9502911209560452  0.2232492038369784  1.0000
  H   H8        1.0  0.2969357239208605  0.04026962931429521  0.21327723680334293  1.0000
  H   H9        1.0  0.019585556443040292  0.8857530359701828  0.2913019367648176  1.0000
  H   H10       1.0  0.9749142582739906  0.7627695197708848  0.2038291650426274  1.0000
  H   H11       1.0  0.08236205694868916  0.6404517827267713  0.2141147202312794  1.0000
  H   H12       1.0  0.162956759822471  0.14525133095846604  0.3076806614627401  1.0000
  H   H13       1.0  0.8937435350214641  0.4733134009680171  0.2610352448996096  1.0000
  H   H14       1.0  0.05954944459887896  0.9259684946213297  0.21094400581938544  1.0000
  H   H15       1.0  0.7889721853783199  0.3042234031051906  0.7958728515514295  1.0000
  H   H16       1.0  0.772643813151042  0.25215828476833485  0.7159884173139943  1.0000
  H   H17       1.0  0.45247456420532467  0.17857836448043682  0.7001114525484553  1.0000
  H   H18       1.0  0.547586446440171  0.11316897872113436  0.6958883988633673  1.0000
  H   H19       1.0  0.5831179333135168  0.12018195146458772  0.7774339944936629  1.0000
  H   H20       1.0  0.44794771285277324  0.12678997565637223  0.781500993366322  1.0000
  H   H21       1.0  0.7078947849780661  0.5097484617813636  0.7096600042006431  1.0000
  H   H22       1.0  0.5554976023741814  0.42476557801608544  0.6885289099533339  1.0000
  H   H23       1.0  0.13619347713292743  0.11728739364514955  0.22651685218372825  1.0000
  H   H24       1.0  0.7975896354204083  0.25113634959616604  0.20925856805540383  1.0000
  H   H25       1.0  0.8478688790433536  0.41466255705030625  0.7050353816619578  1.0000
  H   H26       1.0  0.8131817971763906  0.4538595774308903  0.7822814237925259  1.0000
  H   H27       1.0  0.469799051484216  0.3274097581133759  0.7620066839076074  1.0000
  H   H28       1.0  0.3888128290352242  0.48067976982225974  0.7836426005387838  1.0000
  H   H29       1.0  0.3660475988076826  0.44792830054041144  0.7024774363039442  1.0000
  H   H30       1.0  0.06737616733549602  0.14789522206685046  0.7123532255212197  1.0000
  H   H31       1.0  0.22568659815743078  0.21410822535212765  0.6985569747841042  1.0000
  H   H32       1.0  0.279151915224908  0.2400308951677773  0.7784617851518476  1.0000
  H   H33       1.0  0.12026520212115338  0.14757150473074893  0.7917815950718394  1.0000
  H   H34       1.0  0.29675944966558626  0.22509794169016578  0.2207949841174042  1.0000
  H   H35       1.0  0.06965334746237066  0.446447133842675  0.7190428520276909  1.0000
  H   H36       1.0  0.6043432195394087  0.12404863048117686  0.2772245083166567  1.0000
  H   H37       1.0  0.9723465769554025  0.2838394070665374  0.7153478495565793  1.0000
  H   H38       1.0  0.06478435951488852  0.41429569359587504  0.8011104802949234  1.0000
  H   H39       1.0  0.3047385008395835  0.5470894918613284  0.700741340069925  1.0000
  H   H40       1.0  0.2944328383288449  0.5473266386899525  0.7834377223775492  1.0000
  H   H41       1.0  0.9927163799125082  0.2512154616594061  0.7959106852631166  1.0000
  H   H42       1.0  0.9666407823154871  0.7124759768720638  0.8103918003267907  1.0000
  H   H43       1.0  0.9469555486609451  0.733576880250759  0.7283180789010828  1.0000
  H   H44       1.0  0.2764273957837702  0.9733949612399402  0.7062769907377489  1.0000
  H   H45       1.0  0.20398659757965729  0.5051199674424325  0.27841761586762465  1.0000
  H   H46       1.0  0.1257179424865457  0.9500446609266224  0.7023578916636383  1.0000
  H   H47       1.0  0.10044587399366375  0.9391270078852332  0.785042713307199  1.0000
  H   H48       1.0  0.45873643936067043  0.19638272993166345  0.22489746547456954  1.0000
  H   H49       1.0  0.2625950038285012  0.012366738938496307  0.7859838157172733  1.0000
  H   H50       1.0  0.18596614869837677  0.6416617273262802  0.7235648109943043  1.0000
  H   H51       1.0  0.3104238328382252  0.7903399238215274  0.7059111011863095  1.0000
  H   H52       1.0  0.2501609850654773  0.7000003974352895  0.8005439184009974  1.0000
  H   H53       1.0  0.9637641440446741  0.6020367070642154  0.7243740154679942  1.0000
  H   H54       1.0  0.027420322071328985  0.6141525402723789  0.8031106493917903  1.0000
  H   H55       1.0  0.9816677598239637  0.18559693182368875  0.2052762819645082  1.0000
  H   H56       1.0  0.333723791264994  0.4955698581883398  0.2954368497187403  1.0000
  H   H57       1.0  0.31114008090794704  0.28002743578048955  0.30018995405710314  1.0000
  H   H58       1.0  0.3027123005675421  0.6382044709405436  0.3454706408336818  1.0000
  H   H59       1.0  0.281703260453547  0.7619481281824464  0.362783835003512  1.0000
  H   H60       1.0  0.5167538262129412  0.7957543717897908  0.3171756640977179  1.0000
  H   H61       1.0  0.4928673521010579  0.9175784696885857  0.33379350402719876  1.0000
  H   H62       1.0  0.4534518424291252  0.8301968453940494  0.41919398158376  1.0000
  H   H63       1.0  0.6043986833467372  0.8758382099864408  0.39843932139910987  1.0000
  H   H64       1.0  0.4859200176865314  0.7162216360364158  0.4020861509279429  1.0000
  H   H65       1.0  0.7381935813441841  0.6091161908569235  0.2921413925980545  1.0000
  H   H66       1.0  0.8124761165496184  0.7732510744247141  0.2834930251784868  1.0000
  H   H67       1.0  0.26697370183168084  0.5073080801154148  0.2009249552242878  1.0000
  H   H68       1.0  0.8309602194554201  0.6383827293438601  0.3727402100803516  1.0000
  H   H69       1.0  0.8939051120241359  0.8006158184487264  0.3657457456596589  1.0000
  H   H70       1.0  0.6768337593496272  0.763490719850893  0.3543307958161109  1.0000
  H   H71       1.0  0.6926497254807414  0.705033640595886  0.4097399506388015  1.0000
  H   H72       1.0  0.6162193481072435  0.6009774005004616  0.3637043737541816  1.0000
  H   H73       1.0  0.9721518235700727  0.5814815848202671  0.3481381484230255  1.0000
  H   H74       1.0  0.10977920555396987  0.5814219629211339  0.365915279031718  1.0000
  H   H75       1.0  0.9871118038362212  0.44883371368244007  0.339186330498805  1.0000
  H   H76       1.0  0.7730926966274295  0.6192278895319703  0.7714053333616633  1.0000
  H   H77       1.0  0.7405065673115345  0.5443037541005753  0.8290693983731503  1.0000
  H   H78       1.0  0.9883658085362016  0.31217076365894064  0.2867740496727365  1.0000
  H   H79       1.0  0.7002366886941686  0.6594333953624628  0.8156561741352917  1.0000
  H   H80       1.0  0.5598331145324806  0.9330449022042873  0.7803644300139327  1.0000
  H   H81       1.0  0.45605684204883085  0.7752038068267099  0.7670949577483057  1.0000
  H   H82       1.0  0.4985498420671206  0.8909781236678004  0.8644851433042791  1.0000
  H   H83       1.0  0.3841655470200109  0.7360060830528071  0.853707603220393  1.0000
  H   H84       1.0  0.54363223252372  0.6876117947720177  0.8263560920318795  1.0000
  H   H85       1.0  0.5753391055329189  0.7434403793404842  0.8843885579246091  1.0000
  H   H86       1.0  0.6628808307098524  0.8438221675261065  0.8364050801084701  1.0000
  H   H87       1.0  0.7978813369091923  0.08084450130364472  0.25492551274354724  1.0000
  H   H88       1.0  0.8075151204669668  0.14167486107004382  0.3123458036160188  1.0000
  H   H89       1.0  0.03431464087645961  0.34736840659545726  0.20635074935654535  1.0000
  H   H90       1.0  0.7887529311543986  0.9903133962288921  0.30652013879898027  1.0000
  H   H91       1.0  0.3841525965211546  0.6793700813137493  0.5202801180152932  1.0000
  H   H92       1.0  0.9378018494348054  0.9708293588149107  0.024573769461859702  1.0000
  C   C1        1.0  0.09283705546679487  0.7454648258623137  0.43714624876515273  1.0000
  C   C2        1.0  0.7104710679850258  0.3494776878564494  0.3405668896167171  1.0000
  C   C3        1.0  0.03331216603628206  0.2611960683274006  0.2749532692429639  1.0000
  C   C4        1.0  0.7857756419269463  0.3873138133937601  0.4287679618638195  1.0000
  C   C5        1.0  0.21554438539350682  0.23391231404976062  0.28772004368269694  1.0000
  C   C6        1.0  0.20937657567063891  0.21251443735080502  0.23424570633883957  1.0000
  C   C7        1.0  0.2071796997802977  0.28772871785870546  0.11502367653307033  1.0000
  C   C8        1.0  0.16205282179748076  0.31814171041437334  0.2982152120555881  1.0000
  C   C9        1.0  0.05000408898768428  0.2739415363625922  0.22080658290445143  1.0000
  C   C10       1.0  0.181897686224282  0.30543471036051534  0.20707414275725716  1.0000
  C   C11       1.0  0.2748127264922786  0.43842169246158863  0.22329132967021084  1.0000
  C   C12       1.0  0.7340714501867965  0.3608682213915913  0.38250517704828724  1.0000
  C   C13       1.0  0.24805805731192274  0.4492100200791712  0.2752616618697559  1.0000
  C   C14       1.0  0.1936349426183028  0.29569842385369344  0.15685201827476192  1.0000
  C   C15       1.0  0.14788204373589764  0.32970294930834865  0.3481230266689225  1.0000
  C   C16       1.0  0.10569335822617629  0.38640162965251795  0.4320379561510279  1.0000
  C   C17       1.0  0.13265052848150558  0.3484854296393962  0.3885922623090893  1.0000
  C   C18       1.0  0.1731713723920194  0.716816341485128  0.2797806512345531  1.0000
  C   C19       1.0  0.25953576932085537  0.9498389370544232  0.28328587528109495  1.0000
  C   C20       1.0  0.2843943194606807  0.9542041178821778  0.23008321497089676  1.0000
  C   C21       1.0  0.20266696382657295  0.879037846174768  0.11407650362468053  1.0000
  C   C22       1.0  0.14735640672790135  0.8209367480572994  0.2990756902866352  1.0000
  C   C23       1.0  0.5553994147962272  0.25737882876481427  0.2336679373110755  1.0000
  C   C24       1.0  0.16818001570962335  0.7221388801084744  0.2254062433626487  1.0000
  C   C25       1.0  0.1735349480247166  0.84203353980935  0.206969105025216  1.0000
  C   C26       1.0  0.053696780363459436  0.8379257148198819  0.22194379320736607  1.0000
  C   C27       1.0  0.03132333276361963  0.8126136425310831  0.2755568418196432  1.0000
  C   C28       1.0  0.08391022737753663  0.6994692945068622  0.5695663137237335  1.0000
  C   C29       1.0  0.18886378020876285  0.85721803491564  0.1562504300924843  1.0000
  C   C30       1.0  0.13344056207019858  0.8160420550511845  0.34958816253352865  1.0000
  C   C31       1.0  0.11919766020524497  0.8101815303087823  0.3921800285556359  1.0000
  C   C32       1.0  0.7652752791170342  0.33501768919349223  0.7213344295385725  1.0000
  C   C33       1.0  0.5394753042672632  0.18737958968974774  0.7122406925018652  1.0000
  C   C34       1.0  0.6617809534814115  0.32723988795491726  0.1949632599032896  1.0000
  C   C35       1.0  0.5415617429949791  0.1755820365331715  0.7664940808594238  1.0000
  C   C36       1.0  0.5823372032728001  0.28846314479603313  0.8806686828020746  1.0000
  C   C37       1.0  0.6483167587254998  0.31668777825149164  0.6956700793445664  1.0000
  C   C38       1.0  0.7557584084082477  0.3551531023951426  0.7741302391673771  1.0000
  C   C39       1.0  0.6189072579697594  0.3068582244659695  0.7876863861092431  1.0000
  C   C40       1.0  0.7579528124395054  0.3713578391877519  0.5581578434003376  1.0000
  C   C41       1.0  0.5709149218288161  0.3877152510647407  0.7628775811029627  1.0000
  C   C42       1.0  0.6218581938625717  0.4186062605461273  0.7119171876898137  1.0000
  C   C43       1.0  0.6006515441949742  0.2984350335782509  0.8383277920307395  1.0000
  C   C44       1.0  0.6708399171531169  0.32590313817058814  0.6452302226405067  1.0000
  C   C45       1.0  0.6365462403612484  0.21724480610655672  0.2618467482671889  1.0000
  C   C46       1.0  0.6979107774961903  0.3384340051731273  0.6035291386737568  1.0000
  C   C47       1.0  0.2926133312855582  0.4606003941852849  0.7171050911726624  1.0000
  C   C48       1.0  0.1599633478415754  0.22679920679554041  0.7195142548157278  1.0000
  C   C49       1.0  0.18935197788434271  0.23245168729970098  0.7725538392642975  1.0000
  C   C50       1.0  0.21637371849865872  0.32613374123027944  0.8865499299305313  1.0000
  C   C51       1.0  0.16611098467819113  0.3492054904073427  0.702878184083062  1.0000
  C   C52       1.0  0.09857749056946122  0.3779265872100766  0.563954633336394  1.0000
  C   C53       1.0  0.3004599598261564  0.4676995258012086  0.771289945505309  1.0000
  C   C54       1.0  0.19260870493007326  0.3470494373463496  0.7941921981260835  1.0000
  C   C55       1.0  0.06961674549179969  0.34100048544359407  0.7824141927301795  1.0000
  C   C56       1.0  0.6899025954216641  0.3396505045895781  0.2914687225697464  1.0000
  C   C57       1.0  0.061521532382073446  0.3565209143574819  0.7286273086947547  1.0000
  C   C58       1.0  0.20656663807843495  0.3407650234641864  0.8446416843842927  1.0000
  C   C59       1.0  0.14740457297116893  0.3514945356688131  0.6525894379017032  1.0000
  C   C60       1.0  0.12721991163771654  0.3555606998732088  0.6109116086906994  1.0000
  C   C61       1.0  0.00875406547545754  0.6978203535697319  0.7367247439376357  1.0000
  C   C62       1.0  0.18182520659637907  0.9174438611415784  0.7203956613464513  1.0000
  C   C63       1.0  0.17880968036485004  0.9297480476038091  0.7740671464405013  1.0000
  C   C64       1.0  0.6082627849592727  0.37956835959139573  0.26156820077643067  1.0000
  C   C65       1.0  0.19987888541439236  0.8651168513534627  0.8905062002092309  1.0000
  C   C66       1.0  0.13208590040391494  0.779020670432864  0.7092505798462483  1.0000
  C   C67       1.0  0.7435094864625497  0.2875356868609345  0.22478204915463354  1.0000
  C   C68       1.0  0.033975798946215746  0.7012600426334148  0.790016050032655  1.0000
  C   C69       1.0  0.16482329730143158  0.8116078267079134  0.7998937854868585  1.0000
  C   C70       1.0  0.25799245474206606  0.7792114562036617  0.7792937870162931  1.0000
  C   C71       1.0  0.22555713486481466  0.7423338353718166  0.7274874431676749  1.0000
  C   C72       1.0  0.183705843984029  0.8354458787346745  0.8496442567877267  1.0000
  C   C73       1.0  0.11443151372664322  0.7595430623126379  0.6591687308730843  1.0000
  C   C74       1.0  0.10089265856420575  0.7399427620224159  0.6173284603444246  1.0000
  C   C75       1.0  0.2301330660491203  0.26689886352175324  0.0675355430870681  1.0000
  C   C76       1.0  0.7152405226993891  0.44969695300022045  0.22444973160228443  1.0000
  C   C77       1.0  0.5591612353981718  0.2703439121126793  0.05889395146513011  1.0000
  C   C78       1.0  0.7969957032796061  0.4102452657844822  0.2525885245450255  1.0000
  C   C79       1.0  0.2260408340852962  0.930415926204866  0.0667440118435536  1.0000
  C   C80       1.0  0.2326842055913474  0.287453601901028  0.9328291930674766  1.0000
  C   C81       1.0  0.5379200886512905  0.26533393458090876  0.9286284152908666  1.0000
  C   C82       1.0  0.22553547360094942  0.9261144210146457  0.934717616405351  1.0000
  C   C83       1.0  0.6153190939756498  0.2996683767905282  0.1042655056784625  1.0000
  C   C84       1.0  0.3297597419374866  0.7359991947780956  0.3375205516613775  1.0000
  C   C85       1.0  0.4679868300878666  0.8207862765288924  0.34279767835823793  1.0000
  C   C86       1.0  0.5054768611783728  0.8109703882791379  0.39323941792319067  1.0000
  C   C87       1.0  0.818838330340398  0.6978252491335583  0.3023367719429402  1.0000
  C   C88       1.0  0.8166245839071635  0.709791862757598  0.3553622902976771  1.0000
  C   C89       1.0  0.6397580071563097  0.31465349554950006  0.1460294662817176  1.0000
  C   C90       1.0  0.6941573323272011  0.6940213388043903  0.3716381689980112  1.0000
  C   C91       1.0  0.03724258216818304  0.5510023868257294  0.3395662420614017  1.0000
  C   C92       1.0  0.7069743189406593  0.5826168422846366  0.8012481692419939  1.0000
  C   C93       1.0  0.4710830982813618  0.8501981785015572  0.7909666994514524  1.0000
  C   C94       1.0  0.47608832323224  0.8120095442189311  0.8419965161187193  1.0000
  C   C95       1.0  0.5697377457785817  0.7694941589690389  0.8476500103535117  1.0000
  C   C96       1.0  0.8327390565079683  0.08519711130504962  0.2909806190848556  1.0000
  O   O1        1.0  0.17322922780520858  0.49979544492403255  0.4421667898805381  1.0000
  O   O2        1.0  0.52984235183618  0.1642853156631858  0.0425309899275987  1.0000
  O   O3        1.0  0.3297982732866913  0.9561777571907232  0.0478409819735646  1.0000
  O   O4        1.0  0.17070987967483833  0.7176167019816619  0.4518954186790937  1.0000
  O   O5        1.0  0.15013668819234757  0.9568347041136324  0.9486857735978447  1.0000
  O   O6        1.0  0.1564685083241457  0.17661193785078672  0.9459570015695319  1.0000
  O   O7        1.0  0.3271413324330723  0.3673508212361369  0.9562104707160517  1.0000
  O   O8        1.0  0.5147264762681159  0.3443380479642356  0.9462682921688099  1.0000
  O   O9        1.0  0.5191508097872058  0.16419838786260507  0.9490848436206818  1.0000
  O   O10       1.0  0.32658585190704054  0.9491722616275597  0.9550581678903711  1.0000
  O   O11       1.0  0.31862075517614125  0.15011634353884062  0.9984665277306561  1.0000
  O   O12       1.0  0.7814088892175804  0.4760857193106819  0.5392892889394503  1.0000
  O   O13       1.0  0.9877220428884003  0.7124415118919318  0.4568758283539509  1.0000
  O   O14       1.0  0.8080722505964388  0.48982215906279697  0.44653777861795163  1.0000
  O   O15       1.0  0.8114655887228395  0.3090253063603755  0.447940508507962  1.0000
  O   O16       1.0  0.011077142825776272  0.30281686989305  0.4561902631143653  1.0000
  O   O17       1.0  0.17908011273917882  0.4751195248968403  0.5417646418556288  1.0000
  O   O18       1.0  0.16668034166539053  0.6835846932125307  0.5520079950088005  1.0000
  O   O19       1.0  0.983474862065364  0.6788949609704177  0.5495510582062408  1.0000
  O   O20       1.0  0.296060533064434  0.7474511685705849  0.2896287988839603  1.0000
  O   O21       1.0  0.9242661777964046  0.6939773955350435  0.2855725375610803  1.0000
  O   O22       1.0  0.08472406168640838  0.5910492827024711  0.2923945609765113  1.0000
  O   O23       1.0  0.7901835573677687  0.2985344722261233  0.5409875539249498  1.0000
  O   O24       1.0  0.5856529349747176  0.49280572987088084  0.786936573202027  1.0000
  O   O25       1.0  0.3794119108061693  0.8844047885006179  0.7832100517773314  1.0000
  O   O26       1.0  0.9622829030357494  0.13396443206454486  0.29139701042562655  1.0000
  O   O27       1.0  0.9898739389470209  0.2991628980092075  0.5491115094718069  1.0000
  O   O28       1.0  0.004195141998657395  0.5044911010787418  0.497562865959928  1.0000
  O   O29       1.0  0.1465459859173777  0.9514804066599752  0.048663961235178  1.0000
  O   O30       1.0  0.148201396001987  0.16974330709941657  0.04814610186130611  1.0000
  O   O31       1.0  0.3360883465478963  0.34823805832770205  0.0494793394256519  1.0000
  O   O32       1.0  0.5362316552795646  0.34983232280038834  0.0390708171728917  1.0000
  O   O33       1.0  0.3419073951177651  0.6895803827231219  0.4936201286795452  1.0000
  O   O34       1.0  0.9802982144798094  0.9796643557597309  0.9951731951253964  1.0000
