data_image0
_chemical_formula_structural       Sn4H68C52S8N4O8
_chemical_formula_sum              "Sn4 H68 C52 S8 N4 O8"
_cell_length_a       9.800973072
_cell_length_b       10.52491360244106
_cell_length_c       21.045
_cell_angle_alpha    90.0
_cell_angle_beta     90.0
_cell_angle_gamma    101.4079914382986

_space_group_name_H-M_alt    "P 1"
_space_group_IT_number       1

loop_
  _space_group_symop_operation_xyz
  'x, y, z'

loop_
  _atom_site_type_symbol
  _atom_site_label
  _atom_site_symmetry_multiplicity
  _atom_site_fract_x
  _atom_site_fract_y
  _atom_site_fract_z
  _atom_site_occupancy
  Sn  Sn1       1.0  0.6926594141368269  0.22233833799420918  0.7367897362793983  1.0000
  Sn  Sn2       1.0  0.307341578422374  0.27766170261845247  0.2367892611071483  1.0000
  Sn  Sn3       1.0  0.3073369593733801  0.7776578661272282  0.2632116892373517  1.0000
  Sn  Sn4       1.0  0.6926611318903966  0.7223403171588174  0.7632126395818517  1.0000
  H   H1        1.0  0.077527363507663  0.0650859122089997  0.6416345925397948  1.0000
  H   H2        1.0  0.9224725996612975  0.4349092820238099  0.1416355428842948  1.0000
  H   H3        1.0  0.92246860732984  0.9349131997403575  0.3583649322879552  1.0000
  H   H4        1.0  0.07752764919828078  0.5650859528216614  0.8583644571157053  1.0000
  H   H5        1.0  0.18538662394318098  0.21020106427932458  0.6709598479448786  1.0000
  H   H6        1.0  0.8146139568599293  0.28979703778139754  0.1709617486338786  1.0000
  H   H7        1.0  0.8146097586504196  0.7897999862219719  0.3290396768828714  1.0000
  H   H8        1.0  0.18538670375574637  0.710200135616013  0.8290401520551215  1.0000
  H   H9        1.0  0.04363986202738348  0.9774363058852131  0.7517495842242781  1.0000
  H   H10       1.0  0.9563604848115403  0.522567693056665  0.2517495842242781  1.0000
  H   H11       1.0  0.9563591788140684  0.0225676524439962  0.2482508909479719  1.0000
  H   H12       1.0  0.04364141107242859  0.47743529599657814  0.7482499406034719  1.0000
  H   H13       1.0  0.15686572220721468  0.1208910069910658  0.7818032786885212  1.0000
  H   H14       1.0  0.8431334356163305  0.379110002897569  0.2818051793775211  1.0000
  H   H15       1.0  0.8431335154288958  0.8791090742342647  0.2181962461392288  1.0000
  H   H16       1.0  0.1568672340827391  0.6208920168797006  0.7181962461392288  1.0000
  H   H17       1.0  0.15183124356573066  0.8558668057141147  0.6704286053694447  1.0000
  H   H18       1.0  0.8481705171693648  0.6441294390199914  0.1704276550249446  1.0000
  H   H19       1.0  0.8481673855196233  0.14413521406315508  0.32956806842480557  1.0000
  H   H20       1.0  0.1518278969545577  0.35586676510144594  0.8295718698028055  1.0000
  H   H21       1.0  0.33241138578987517  0.8681213618215508  0.6566172487526742  1.0000
  H   H22       1.0  0.6675885402095645  0.6318758521885215  0.1566158232359243  1.0000
  H   H23       1.0  0.6675837706188261  0.1318787194037725  0.3433784746970758  1.0000
  H   H24       1.0  0.3324121204061114  0.3681213212088891  0.8433818009028259  1.0000
  H   H25       1.0  0.41256404002935904  0.0511196147359243  0.5566528866714152  1.0000
  H   H26       1.0  0.5874353236722314  0.44888236442868384  0.0566481349489223  1.0000
  H   H27       1.0  0.5874315281354328  0.9488824050413456  0.44334616298408497  1.0000
  H   H28       1.0  0.41256411984192437  0.5511186860726127  0.9433499643620777  1.0000
  H   H29       1.0  0.3722663404893467  0.0589222863063483  0.440360180565456  1.0000
  H   H30       1.0  0.6277395658928597  0.4410864777900584  0.9403549536707061  1.0000
  H   H31       1.0  0.6277320827179622  0.9410787641949483  0.559637918745544  1.0000
  H   H32       1.0  0.3722668229746163  0.558918449815124  0.059640769779044  1.0000
  H   H33       1.0  0.1556844122002374  0.9328854744080175  0.3928044666191468  1.0000
  H   H34       1.0  0.8443226831973476  0.5671262787416325  0.892802565930147  1.0000
  H   H35       1.0  0.8443152281085844  0.0671116989893932  0.6071931575196033  1.0000
  H   H36       1.0  0.15568698155212957  0.43288446451938256  0.10719790924210322  1.0000
  H   H37       1.0  0.9757340143925928  0.799952182747269  0.4627469707769052  1.0000
  H   H38       1.0  0.024274289023111406  0.7000508469186357  0.9627479211214052  1.0000
  H   H39       1.0  0.024267057979180596  0.2000469292020881  0.5372506533618449  1.0000
  H   H40       1.0  0.9757320998443645  0.2999540806865468  0.0372539795675948  1.0000
  H   H41       1.0  0.016787575126876685  0.791556314282296  0.579273461629839  1.0000
  H   H42       1.0  0.9832162262219342  0.708439930451803  0.0792748871465889  1.0000
  H   H43       1.0  0.9832071876925069  0.20845152115079904  0.4207255880256611  1.0000
  H   H44       1.0  0.016788918293869397  0.291554335117695  0.920727013542411  1.0000
  H   H45       1.0  0.7561350791690487  0.3220293409370355  0.852841530054647  1.0000
  H   H46       1.0  0.24385999742708006  0.17797166895159927  0.352842005226897  1.0000
  H   H47       1.0  0.243861303424552  0.677971709564261  0.147157994773103  1.0000
  H   H48       1.0  0.7561378172294723  0.8220313201016436  0.647158945117603  1.0000
  H   H49       1.0  0.7291470837899751  0.1488836970474452  0.8575514373960544  1.0000
  H   H50       1.0  0.2708479928061607  0.35111731284118963  0.35755048705155457  1.0000
  H   H51       1.0  0.2708482784967714  0.8511173534538514  0.1424509384651955  1.0000
  H   H52       1.0  0.7291496159723464  0.6488847069360801  0.6424504632929455  1.0000
  H   H53       1.0  0.5813008297011352  0.22710232939404307  0.854596816345925  1.0000
  H   H54       1.0  0.41869526720184763  0.2728986804945919  0.35459776669042503  1.0000
  H   H55       1.0  0.41869473846365673  0.7728996903832267  0.145404133998575  1.0000
  H   H56       1.0  0.5813023415766523  0.727103339282678  0.645404609170825  1.0000
  H   H57       1.0  0.7547919548624974  0.4506154298656924  0.6761924447612274  1.0000
  H   H58       1.0  0.24520801738984938  0.049384610746969294  0.1761919695889773  1.0000
  H   H59       1.0  0.24520891163122366  0.5493827128076916  0.3238108814445226  1.0000
  H   H60       1.0  0.7547910143682158  0.9506145012023808  0.8238113566167726  1.0000
  H   H61       1.0  0.7042437924379357  0.3219692458268071  0.619277263007838  1.0000
  H   H62       1.0  0.2957551595075572  0.1780307947858617  0.119277263007838  1.0000
  H   H63       1.0  0.2957585061187373  0.6780308353985233  0.3807241625089119  1.0000
  H   H64       1.0  0.7042426460656017  0.8219673478875222  0.880724637681162  1.0000
  H   H65       1.0  0.877258019281818  0.3527689590965933  0.6526200997861693  1.0000
  H   H66       1.0  0.1227423647266335  0.1472330200680148  0.1526205749584193  1.0000
  H   H67       1.0  0.1227424354558124  0.647227245024844  0.3473837015918235  1.0000
  H   H68       1.0  0.8772572846655818  0.8527689997092549  0.8473832264195736  1.0000
  C   C1        1.0  0.3969679350963346  0.10419619765826839  0.6940931337609868  1.0000
  C   C2        1.0  0.6030306050930676  0.3958019044024539  0.1940921834164868  1.0000
  C   C3        1.0  0.6030294587207266  0.895800006463169  0.3059059158945132  1.0000
  C   C4        1.0  0.3969696528499043  0.6041981768228765  0.8059078165835132  1.0000
  C   C5        1.0  0.1504184196937501  0.10587498364087368  0.6794069850320739  1.0000
  C   C6        1.0  0.8495846043957727  0.3941202105919288  0.1794079353765738  1.0000
  C   C7        1.0  0.8495804061862627  0.8941231590325103  0.32059301496792614  1.0000
  C   C8        1.0  0.15041891126242038  0.6058759935295086  0.8205930149679261  1.0000
  C   C9        1.0  0.0806008323954828  0.082015286326893  0.7449845569018764  1.0000
  C   C10       1.0  0.9193991398568713  0.4179847542857686  0.2449840817296263  1.0000
  C   C11       1.0  0.919399425547489  0.9179847948984374  0.2550163934426237  1.0000
  C   C12       1.0  0.08060132396414589  0.582016296215528  0.7550149679258739  1.0000
  C   C13       1.0  0.9594167136752957  0.15130300987225806  0.748564504632931  1.0000
  C   C14       1.0  0.040581826514099396  0.34869509218845707  0.248564504632931  1.0000
  C   C15       1.0  0.040582720755473575  0.8486931942491793  0.251435970539319  1.0000
  C   C16       1.0  0.9594196666971585  0.6513108046926988  0.751433594678069  1.0000
  C   C17       1.0  0.2429688850382163  0.9132208034986036  0.6460798289379923  1.0000
  C   C18       1.0  0.7570320612680703  0.5867764105114688  0.1460774530767424  1.0000
  C   C19       1.0  0.7570285178622385  0.08678024700269299  0.3539173200285077  1.0000
  C   C20       1.0  0.242970443166648  0.41322463998982767  0.8539206462342578  1.0000
  C   C21       1.0  0.21793102779777473  0.9190257972918089  0.5753974815870748  1.0000
  C   C22       1.0  0.7820715473661223  0.5809694781663239  0.0753955808980749  1.0000
  C   C23       1.0  0.782066777775384  0.08097234538157488  0.4245996673794252  1.0000
  C   C24       1.0  0.21793544096872347  0.4190286645070599  0.9246039439296753  1.0000
  C   C25       1.0  0.31698160215803733  0.995457084746995  0.5359995248277514  1.0000
  C   C26       1.0  0.6830209820892534  0.5045430370909969  0.0359942979330015  1.0000
  C   C27       1.0  0.6830158007424174  0.0045439657543014  0.4639990496554987  1.0000
  C   C28       1.0  0.31698376883722545  0.495458982686273  0.9640038013779986  1.0000
  C   C29       1.0  0.2942172678602049  0.0003004755511569  0.4707683535281504  1.0000
  C   C30       1.0  0.7057912876864663  0.4997063499933033  0.9707645521501576  1.0000
  C   C31       1.0  0.7057889151292258  0.9997034827780524  0.5292325968163426  1.0000
  C   C32       1.0  0.2942132573619674  0.5002947005079932  0.0292340223330925  1.0000
  C   C33       1.0  0.17204203786936026  0.9291101444990986  0.4440090282727454  1.0000
  C   C34       1.0  0.8279617725628298  0.5708909466148667  0.9440066524115025  1.0000
  C   C35       1.0  0.827963321607875  0.0708899367262319  0.5559881206937547  1.0000
  C   C36       1.0  0.1720362388883814  0.4291081653344903  0.055990971727254604  1.0000
  C   C37       1.0  0.07244447926341727  0.8539321308750372  0.48303254929911793  1.0000
  C   C38       1.0  0.9275611659044357  0.6460679909629546  0.9830315989546179  1.0000
  C   C39       1.0  0.9275543466165955  0.1460660117983466  0.5169655500118822  1.0000
  C   C40       1.0  0.07244806892217069  0.35393112098640234  0.0169679258731321  1.0000
  C   C41       1.0  0.09515195575855977  0.8491070750890016  0.5485008315514364  1.0000
  C   C42       1.0  0.9048528658970979  0.6508891696451045  0.0485008315514364  1.0000
  C   C43       1.0  0.9048438182842843  0.15089591396424137  0.4514953670705637  1.0000
  C   C44       1.0  0.09515228770209208  0.34910994230425263  0.9515001187930636  1.0000
  C   C45       1.0  0.6882897557046589  0.23089025989059309  0.8386832976954113  1.0000
  C   C46       1.0  0.3117061353202716  0.2691097807220686  0.338684248039911  1.0000
  C   C47       1.0  0.3117054007040352  0.7691098213347374  0.1613176526490818  1.0000
  C   C48       1.0  0.6882922878870303  0.730891269779228  0.6613176526490818  1.0000
  C   C49       1.0  0.7674568829185872  0.3540765123821216  0.6613466381563313  1.0000
  C   C50       1.0  0.23254308933375967  0.14592352823053997  0.16134616298408133  1.0000
  C   C51       1.0  0.232543983575134  0.6459216302912623  0.3386557377049186  1.0000
  C   C52       1.0  0.7674557365462532  0.8540746144428438  0.8386562128771687  1.0000
  S   S1        1.0  0.5373342803022751  0.026174328333880195  0.6889180327868871  1.0000
  S   S2        1.0  0.4626656919500717  0.4738257122787815  0.1889170824423871  1.0000
  S   S3        1.0  0.4626653600065467  0.9738228450635303  0.3110819672131129  1.0000
  S   S4        1.0  0.5373327312572371  0.5261753382225152  0.8110810168686129  1.0000
  S   S5        1.0  0.4251805115187608  0.2580755430627306  0.7243487764314551  1.0000
  S   S6        1.0  0.5748192548555409  0.2419235282739649  0.22434830125920513  1.0000
  S   S7        1.0  0.5748211694037693  0.7419216303346869  0.2756516987407949  1.0000
  S   S8        1.0  0.42517916835176806  0.7580775222273317  0.7756540746020448  1.0000
  N   N1        1.0  0.27093464534038253  0.043613541612771194  0.6743986695177  1.0000
  N   N2        1.0  0.7290649060724802  0.45637971406809186  0.17439724400095002  1.0000
  N   N3        1.0  0.7290617281698316  0.9563826625086662  0.32559990496555  1.0000
  N   N4        1.0  0.2709357545431955  0.5436174593293188  0.8256022808268  1.0000
  O   O1        1.0  0.8414492401224005  0.08956885397264357  0.72526110715134  1.0000
  O   O2        1.0  0.15855074121333956  0.41043603301987724  0.22526300784033992  1.0000
  O   O3        1.0  0.15854878041219678  0.9104351043565657  0.27473936802091  1.0000
  O   O4        1.0  0.8414519690994382  0.5895659867573925  0.7747369921596601  1.0000
  O   O5        1.0  0.9731462809533085  0.2633968681461596  0.7710610596341142  1.0000
  O   O6        1.0  0.026851856563382594  0.23660414174247527  0.2710591589451141  1.0000
  O   O7        1.0  0.02685275080475689  0.7366022438031976  0.2289417913993788  1.0000
  O   O8        1.0  0.973144526030218  0.7633969087588212  0.7289413162271289  1.0000
