data_image0
_chemical_formula_structural       Zn8H24C88Br16O42
_chemical_formula_sum              "Zn8 H24 C88 Br16 O42"
_cell_length_a       23.731373996487942
_cell_length_b       23.732442470004408
_cell_length_c       23.730834579975138
_cell_angle_alpha    65.76824087588008
_cell_angle_beta     72.8586296487428
_cell_angle_gamma    107.146622206808

_space_group_name_H-M_alt    "P 1"
_space_group_IT_number       1

loop_
  _space_group_symop_operation_xyz
  'x, y, z'

loop_
  _atom_site_type_symbol
  _atom_site_label
  _atom_site_symmetry_multiplicity
  _atom_site_fract_x
  _atom_site_fract_y
  _atom_site_fract_z
  _atom_site_occupancy
  Zn  Zn1       1.0  0.05918187110680852  0.9588202391260766  0.4846325447564227  1.0000
  Zn  Zn2       1.0  0.059178583734045324  0.10037279108991733  0.45618227571173975  1.0000
  Zn  Zn3       1.0  0.9408151647382826  0.9846468016364299  0.45880362405157665  1.0000
  Zn  Zn4       1.0  0.9408205328100652  0.9561786077169504  0.6003714164937151  1.0000
  Zn  Zn5       1.0  0.943446862318666  0.5438201381196636  0.01535885370854834  1.0000
  Zn  Zn6       1.0  0.056548375681146  0.5153579287198511  0.04382588911361306  1.0000
  Zn  Zn7       1.0  0.9434464439784449  0.39963642650574394  0.04118930626884786  1.0000
  Zn  Zn8       1.0  0.0565429278617488  0.5411849630236604  0.8996298530044059  1.0000
  H   H1        1.0  0.9204707452679204  0.6496276653703249  0.11613784027012027  1.0000
  H   H2        1.0  0.07946816605789316  0.6160584450712465  0.14971953764581503  1.0000
  H   H3        1.0  0.9317804254076522  0.8998653494824043  0.33848510394612674  1.0000
  H   H4        1.0  0.06815606529900736  0.8384647319403629  0.39992093634441533  1.0000
  H   H5        1.0  0.07953555702677309  0.4633720607297462  0.7708565914494302  1.0000
  H   H6        1.0  0.9205181588338364  0.27081495083135837  0.963418729924534  1.0000
  H   H7        1.0  0.06811824713555845  0.22970742751030576  0.5319300309119797  1.0000
  H   H8        1.0  0.9317975254591105  0.03190918121559602  0.7297271209283096  1.0000
  H   H9        1.0  0.7383624357465733  0.4680886143914834  0.1000676721836484  1.0000
  H   H10       1.0  0.7383569468978095  0.2702946907397037  0.16157876158790424  1.0000
  H   H11       1.0  0.2657725722932724  0.22919040657446035  0.3503055155383308  1.0000
  H   H12       1.0  0.26576514836196447  0.036634570724878364  0.3838442301293128  1.0000
  H   H13       1.0  0.2616281354442693  0.6000142801895479  0.9681012374394199  1.0000
  H   H14       1.0  0.26163201706168604  0.6615242254298936  0.7702917764324085  1.0000
  H   H15       1.0  0.734232201308302  0.850308141331496  0.7291797976380967  1.0000
  H   H16       1.0  0.7342210790910004  0.8838793211285182  0.5366118074522889  1.0000
  H   H17       1.0  0.8372417534841574  0.734693841245225  0.8096716465035528  1.0000
  H   H18       1.0  0.0443964856726213  0.6469438311795488  0.690297506470678  1.0000
  H   H19       1.0  0.9556099698724906  0.7652944086711745  0.8974660209428154  1.0000
  H   H20       1.0  0.16278101484021357  0.8530760112383365  0.602561842501018  1.0000
  H   H21       1.0  0.8372431575538783  0.10254134102007857  0.35306207220352787  1.0000
  H   H22       1.0  0.044385836622247384  0.3974589374836486  0.2653028084200315  1.0000
  H   H23       1.0  0.9556391092993268  0.19031433830653555  0.14691347725856468  1.0000
  H   H24       1.0  0.16276908098176793  0.3097018789540159  0.23467833443794467  1.0000
  C   C1        1.0  0.18359756267354752  0.09181827636253813  0.408176474739932  1.0000
  C   C2        1.0  0.9999986679028723  0.1373952003917014  0.3625892914742579  1.0000
  C   C3        1.0  0.9999737977992567  0.9101934418543538  0.41020846065929123  1.0000
  C   C4        1.0  0.8163961786386905  0.9081860804697899  0.5918058008958555  1.0000
  C   C5        1.0  1.4637660655380653e-05  0.862613010153709  0.6373872779215192  1.0000
  C   C6        1.0  0.999979191849562  0.08979611442657666  0.5898082355337095  1.0000
  C   C7        1.0  0.9999803284710181  0.5917735914525651  0.09182919011564666  1.0000
  C   C8        1.0  1.6572234720578362e-05  0.3626136441193496  0.1373881290642487  1.0000
  C   C9        1.0  0.820395010194865  0.4102071853676678  0.08980591330205825  1.0000
  C   C10       1.0  8.196157232013617e-06  0.4081866667683017  0.9082120250869609  1.0000
  C   C11       1.0  3.5314613506206143e-09  0.6374003777742134  0.8625991697635842  1.0000
  C   C12       1.0  0.17959569473435286  0.589782284354712  0.9102089734141715  1.0000
  C   C13       1.0  1.639878652085952e-05  0.8044285244525826  0.6955720131282207  1.0000
  C   C14       1.0  9.299889249925173e-06  0.6955891548530816  0.8044072981285455  1.0000
  C   C15       1.0  0.9573417191479695  0.7778296144183804  0.7659739121387688  1.0000
  C   C16       1.0  0.04381879121263661  0.7233312586039774  0.7340103678331931  1.0000
  C   C17       1.0  0.9561950081946053  0.7221789929298202  0.8204799205971508  1.0000
  C   C18       1.0  0.04267797410621214  0.7766969598187077  0.6794997355962735  1.0000
  C   C19       1.0  4.88130023511189e-06  0.19558295519831861  0.30440310675231796  1.0000
  C   C20       1.0  1.1738301402910913e-05  0.3044225821891899  0.19557074007296657  1.0000
  C   C21       1.0  0.9573472046267143  0.17952401460701856  0.2766551831718971  1.0000
  C   C22       1.0  0.04381888709902178  0.3204885277244359  0.22217323202776382  1.0000
  C   C23       1.0  0.9562018609895447  0.23403024927097968  0.22329607574081936  1.0000
  C   C24       1.0  0.04267090311428493  0.2659775558666979  0.27782340792917654  1.0000
  C   C25       1.0  0.9999658758653779  0.6291739479994191  0.12926326936931107  1.0000
  C   C26       1.0  0.9551747610881239  0.6562153930143925  0.13718727028344802  1.0000
  C   C27       1.0  0.9556387314819049  0.6912775700805018  0.1717355768124235  1.0000
  C   C28       1.0  0.9999895363015981  0.7003352254868748  0.20037204728452454  1.0000
  C   C29       1.0  0.044329203891443555  0.6716943536281548  0.19132900383231552  1.0000
  C   C30       1.0  0.04477452733107886  0.6371081506918588  0.15629813128831677  1.0000
  C   C31       1.0  0.999997296108823  0.7356771195443841  0.2357006388499772  1.0000
  C   C32       1.0  0.9999923139746372  0.7663597354453844  0.26637498183411873  1.0000
  C   C33       1.0  0.9999890370692341  0.8016914527260898  0.3017248746589445  1.0000
  C   C34       1.0  0.9612330530689662  0.8372197203269638  0.3038352643522659  1.0000
  C   C35       1.0  0.9613032053721328  0.872460777994974  0.3382052551160443  1.0000
  C   C36       1.0  0.9999728371290076  0.8727622221660454  0.37279816090856627  1.0000
  C   C37       1.0  0.038634730820234754  0.8381717411085321  0.37251086751597745  1.0000
  C   C38       1.0  0.038721566016214105  0.8038016637221475  0.3372639056521935  1.0000
  C   C39       1.0  2.774523716208612e-05  0.37076388664665677  0.8708002100558688  1.0000
  C   C40       1.0  0.04483052577653279  0.4076233172151334  0.7989692748330557  1.0000
  C   C41       1.0  0.044368145198852516  0.372609422846466  0.76436985325136  1.0000
  C   C42       1.0  6.41929418780645e-06  0.2996335804458781  0.7996618200543113  1.0000
  C   C43       1.0  0.9556660721277268  0.2643422398978999  0.8726443241639644  1.0000
  C   C44       1.0  0.9552177811496563  0.29892810440214407  0.907674954525085  1.0000
  C   C45       1.0  0.9999837615869327  0.2642946667908891  0.764330433257065  1.0000
  C   C46       1.0  0.9999799530709979  0.23362442548319268  0.7336393994166102  1.0000
  C   C47       1.0  0.9999778221085619  0.19829041860779037  0.6982933074243152  1.0000
  C   C48       1.0  0.03869969285469923  0.23492467651767163  0.6240250749727564  1.0000
  C   C49       1.0  0.03861712602946457  0.20047169610511875  0.5888578643695154  1.0000
  C   C50       1.0  0.9999654234320657  0.12721776599675408  0.6272288938670771  1.0000
  C   C51       1.0  0.9613125662029063  0.08884260000018439  0.7004896259054121  1.0000
  C   C52       1.0  0.9612346831921245  0.12400533733052324  0.7349362012479618  1.0000
  C   C53       1.0  0.7455494122748053  0.3727829264489559  0.12722816780445365  1.0000
  C   C54       1.0  0.7106721651843488  0.4111626333421016  0.1274857625960379  1.0000
  C   C55       1.0  0.641055146209851  0.3759933683439414  0.16272836345500244  1.0000
  C   C56       1.0  0.6034133986119059  0.3017197953000449  0.19828064212882168  1.0000
  C   C57       1.0  0.6410511741157023  0.26508091440177856  0.19619889184224346  1.0000
  C   C58       1.0  0.7106637066405385  0.2995279292129354  0.16184412282308366  1.0000
  C   C59       1.0  0.532734493311459  0.2663793294079114  0.2336234371716941  1.0000
  C   C60       1.0  0.4713756023513652  0.23570855709498054  0.2642928212813942  1.0000
  C   C61       1.0  0.40070696309836523  0.20036952989440251  0.29962396594931556  1.0000
  C   C62       1.0  0.3630160825867962  0.23566133494607314  0.30868284433813636  1.0000
  C   C63       1.0  0.2934021220473256  0.20107704242273894  0.34371661908214435  1.0000
  C   C64       1.0  0.2584313786250334  0.12923926324240403  0.3707426202224796  1.0000
  C   C65       1.0  0.29340286245387404  0.09238071226464242  0.36280094760068954  1.0000
  C   C66       1.0  0.36302196839047707  0.12739514078531045  0.3282438004813031  1.0000
  C   C67       1.0  0.2544377502728354  0.6271771859616139  0.8727945493577138  1.0000
  C   C68       1.0  0.28931882150805427  0.6274411087631437  0.9111729612261997  1.0000
  C   C69       1.0  0.3589432303582073  0.6626822237006921  0.8760075030837344  1.0000
  C   C70       1.0  0.3965786656247448  0.69823838727222  0.8017422326076017  1.0000
  C   C71       1.0  0.3589359404577266  0.6961498373953462  0.7650914453073485  1.0000
  C   C72       1.0  0.28932517143583436  0.6617878686670836  0.7995336250113498  1.0000
  C   C73       1.0  0.46725664916927917  0.7335895679057814  0.766390759470369  1.0000
  C   C74       1.0  0.5286221372114426  0.7642776197183141  0.7357019081791237  1.0000
  C   C75       1.0  0.5992897443959394  0.7996245989906968  0.7003649172392344  1.0000
  C   C76       1.0  0.6369805243173732  0.8086766419631177  0.7356567249866687  1.0000
  C   C77       1.0  0.7065945792008961  0.8437230955787599  0.7010662670501235  1.0000
  C   C78       1.0  0.7415613072830143  0.8707578287224893  0.6292289914923687  1.0000
  C   C79       1.0  0.706586358991977  0.862827006317943  0.5923608795391575  1.0000
  C   C80       1.0  0.6369771063238403  0.8282717642188404  0.6273752216781862  1.0000
  C   C81       1.0  0.9170471057844624  0.8122545291956134  0.7850829155065427  1.0000
  C   C82       1.0  0.09735504098080852  0.7021457158414821  0.7149000416598311  1.0000
  C   C83       1.0  0.9026568268750169  0.6877502286448024  0.8952001377907591  1.0000
  C   C84       1.0  0.0829891604605992  0.79789794879126  0.6047688485124924  1.0000
  C   C85       1.0  0.9170488930144316  0.10480301571754326  0.29783255068367964  1.0000
  C   C86       1.0  0.0973515373388239  0.39520217618454034  0.1877566037154921  1.0000
  C   C87       1.0  0.9026743295712618  0.21492630031378468  0.20209318332300807  1.0000
  C   C88       1.0  0.08296701894798288  0.2850797822919092  0.3122557026893062  1.0000
  Br  Br1       1.0  0.10519909436057881  0.680656573592522  0.2276717803325995  1.0000
  Br  Br2       1.0  0.8947767793269538  0.7276293269328281  0.18067463656301894  1.0000
  Br  Br3       1.0  0.09230159903057017  0.758475530109685  0.33742046875423165  1.0000
  Br  Br4       1.0  0.9076677323250243  0.8373640276216183  0.2584902444053154  1.0000
  Br  Br5       1.0  0.8947906260718669  0.16713616525346017  0.9245551001087478  1.0000
  Br  Br6       1.0  0.10526220969576645  0.42452401938941636  0.6671610917228392  1.0000
  Br  Br7       1.0  0.9076732637844885  0.07028575014493317  0.8338490832795102  1.0000
  Br  Br8       1.0  0.09225108254172207  0.33382922784056046  0.5702971450222803  1.0000
  Br  Br9       1.0  0.5958653228951435  0.1661716289300515  0.24156142079322512  1.0000
  Br  Br10      1.0  0.5958729639455245  0.429722544861335  0.16254485802853216  1.0000
  Br  Br11      1.0  0.40830670106223715  0.07547446031836104  0.3192709771932628  1.0000
  Br  Br12      1.0  0.40831437806586734  0.3328624680009683  0.27237246504800794  1.0000
  Br  Br13      1.0  0.40412672854712645  0.7415159087121738  0.6661786883045553  1.0000
  Br  Br14      1.0  0.4041169118605198  0.6624726373240365  0.929751819965418  1.0000
  Br  Br15      1.0  0.5916794635761137  0.8193161761225911  0.5754585364659093  1.0000
  Br  Br16      1.0  0.591689288828448  0.7723279506721852  0.8328692244301124  1.0000
  O   O1        1.0  0.9999987811350904  5.481890632066577e-06  0.49999812081036776  1.0000
  O   O2        1.0  0.15456431473266014  0.027921098174267953  0.4263814822249472  1.0000
  O   O3        1.0  0.05152228634179322  0.15355672496806969  0.37111847179310337  1.0000
  O   O4        1.0  0.9657310947899309  0.9429951986131476  0.4063120408276858  1.0000
  O   O5        1.0  0.1545644502340551  0.12668899298449085  0.4190094967983597  1.0000
  O   O6        1.0  0.03422288218020972  0.9063056480171171  0.4430129209675259  1.0000
  O   O7        1.0  0.9484802712725225  0.07736186348849104  0.3979344631836031  1.0000
  O   O8        1.0  0.8454277133064921  0.9264199099727508  0.5278965716114996  1.0000
  O   O9        1.0  0.9484862708596681  0.8711262843446692  0.6535492216464507  1.0000
  O   O10       1.0  0.8454309834555148  0.9189948601086828  0.6266903060128614  1.0000
  O   O11       1.0  0.05153589247473881  0.8979728326881687  0.5773485002758676  1.0000
  O   O12       1.0  0.0342181795094731  0.1279253994657594  0.5227647105227434  1.0000
  O   O13       1.0  0.9657454614194166  0.02274241922317107  0.6279481092964545  1.0000
  O   O14       1.0  0.9999959983203157  0.5000021453441976  8.377263327963147e-08  1.0000
  O   O15       1.0  0.9542945504781172  0.5809689309244916  0.0735960029015318  1.0000
  O   O16       1.0  0.024700281169579404  0.4226444938550459  0.1288778427072685  1.0000
  O   O17       1.0  0.8493102144339204  0.37207093905530575  0.09370450165857137  1.0000
  O   O18       1.0  0.0456636875647831  0.5735522907068287  0.08102199829897222  1.0000
  O   O19       1.0  0.8493078027639102  0.4772528500257354  0.056991392386841214  1.0000
  O   O20       1.0  0.9753286085943528  0.3464534782791094  0.1020233866716466  1.0000
  O   O21       1.0  0.954303555102989  0.37332241982595366  0.9721148183375521  1.0000
  O   O22       1.0  0.024681731745566496  0.6020423886887016  0.8464352228518949  1.0000
  O   O23       1.0  0.045692814941134  0.47209184024927714  0.8733380570716776  1.0000
  O   O24       1.0  0.9753156151752195  0.6288791399884704  0.9226416845053648  1.0000
  O   O25       1.0  0.15068349679927456  0.5569846560079484  0.9772539308980231  1.0000
  O   O26       1.0  0.15068721818737899  0.5936869104204235  0.8720618770176287  1.0000
  O   O27       1.0  0.8499085696827676  0.7772737266640918  0.8106780247089989  1.0000
  O   O28       1.0  0.9432053323695373  0.8659248527808148  0.7830618563151077  1.0000
  O   O29       1.0  0.08798143687834431  0.6606181853088701  0.6892988257214868  1.0000
  O   O30       1.0  0.14900380205601504  0.7262784529506946  0.7169444347230255  1.0000
  O   O31       1.0  0.9120237829478343  0.7227125653559843  0.9273709458362164  1.0000
  O   O32       1.0  0.8510037033591259  0.634069580849193  0.922705736980255  1.0000
  O   O33       1.0  0.15011941572408466  0.8394229814978972  0.5726326424825319  1.0000
  O   O34       1.0  0.056826106402098835  0.7737651802699903  0.577252730873454  1.0000
  O   O35       1.0  0.8499193053420058  0.07264393059294608  0.3393692291295736  1.0000
  O   O36       1.0  0.9432191532473199  0.07730201645560436  0.27368191309989953  1.0000
  O   O37       1.0  0.08797834411564769  0.42736056726570854  0.22272868970129175  1.0000
  O   O38       1.0  0.1490100227700212  0.42271293105562796  0.1340787393891247  1.0000
  O   O39       1.0  0.9120600832366536  0.18932898866440714  0.16055645553137035  1.0000
  O   O40       1.0  0.8510236789416297  0.21695744761485275  0.2262237045426688  1.0000
  O   O41       1.0  0.15010660065073728  0.31068677518613447  0.27727331311189124  1.0000
  O   O42       1.0  0.05680283910439243  0.2830408453877809  0.3659386243941968  1.0000
