data_image0
_chemical_formula_structural       Mg2Ag2H36C36N6O12
_chemical_formula_sum              "Mg2 Ag2 H36 C36 N6 O12"
_cell_length_a       10.75055059846986
_cell_length_b       11.412870560686025
_cell_length_c       14.218789421059606
_cell_angle_alpha    98.6068426010771
_cell_angle_beta     107.1116456039854
_cell_angle_gamma    113.79441278985095

_space_group_name_H-M_alt    "P 1"
_space_group_IT_number       1

loop_
  _space_group_symop_operation_xyz
  'x, y, z'

loop_
  _atom_site_type_symbol
  _atom_site_label
  _atom_site_symmetry_multiplicity
  _atom_site_fract_x
  _atom_site_fract_y
  _atom_site_fract_z
  _atom_site_occupancy
  Mg  Mg1       1.0  0.2463205320311274  0.5664066362053218  0.32365197420389075  1.0000
  Mg  Mg2       1.0  0.7536774190305023  0.43359173220213165  0.676348461795726  1.0000
  Ag  Ag1       1.0  0.5473209856329004  0.8696183218380681  0.9444362492951299  1.0000
  Ag  Ag2       1.0  0.4526780077481263  0.1303820448556365  0.05556888164029062  1.0000
  H   H1        1.0  0.6763131831611701  0.6830365752812356  0.5820366070786704  1.0000
  H   H2        1.0  0.32368858489652996  0.31697085686995763  0.4179657798894992  1.0000
  H   H3        1.0  0.6056740828736905  0.6381664312328468  0.676801372068354  1.0000
  H   H4        1.0  0.3943281326909513  0.3618399930035423  0.32319888353457327  1.0000
  H   H5        1.0  0.6655410655834755  0.8048256387239261  0.6708791087448772  1.0000
  H   H6        1.0  0.33446069894735325  0.1951817911056395  0.32912398045069574  1.0000
  H   H7        1.0  0.033900493390305354  0.6988715583682463  0.5177395577954869  1.0000
  H   H8        1.0  0.9660987460485159  0.30113288744687583  0.4822548684389218  1.0000
  H   H9        1.0  0.18425995924378907  0.774424147836548  0.6424157991007746  1.0000
  H   H10       1.0  0.815737860494572  0.2255813123434436  0.3575812446236312  1.0000
  H   H11       1.0  0.06417028184612407  0.5992230518674191  0.5978689749145403  1.0000
  H   H12       1.0  0.9358255970320782  0.4007824235343094  0.4021283388319574  1.0000
  H   H13       1.0  0.9922246644816823  0.07972383994436427  0.19179698145269697  1.0000
  H   H14       1.0  0.007775122045536858  0.920272485288777  0.8082050257383101  1.0000
  H   H15       1.0  0.8386868264040214  0.07210213277431882  0.21707771248230048  1.0000
  H   H16       1.0  0.16131200203715668  0.92789420819539  0.7829219719238409  1.0000
  H   H17       1.0  0.014304333615363879  0.1348753585067897  0.322453647497035  1.0000
  H   H18       1.0  0.985693427818347  0.8651189679252765  0.6775462575651332  1.0000
  H   H19       1.0  0.8813694422342306  0.5399461414728535  0.04868975589938876  1.0000
  H   H20       1.0  0.11863078121933762  0.46004916888060177  0.9513122266085858  1.0000
  H   H21       1.0  0.73337014075571  0.3877308797193209  0.04432500294698367  1.0000
  H   H22       1.0  0.26663653183260283  0.6122674120646181  0.9556766757491316  1.0000
  H   H23       1.0  0.8398065004873628  0.37963290430059965  0.9719778875089061  1.0000
  H   H24       1.0  0.16019092588768996  0.6203644626421009  0.028020903250208593  1.0000
  H   H25       1.0  0.4358733971098942  0.386959202191548  0.13467903987793767  1.0000
  H   H26       1.0  0.5641404600888433  0.6130471283927719  0.8653202978198492  1.0000
  H   H27       1.0  0.571721452882997  0.5373123384877659  0.12698690655005151  1.0000
  H   H28       1.0  0.4282855236562994  0.46270312446928596  0.8730204317159149  1.0000
  H   H29       1.0  0.3868023983088164  0.4580364068459345  0.03570460140952038  1.0000
  H   H30       1.0  0.6132075771695967  0.541969954181866  0.9642952763324502  1.0000
  H   H31       1.0  0.4526592978901362  0.9465538014266671  0.18779307715027468  1.0000
  H   H32       1.0  0.5473452848804143  0.05345158574341011  0.8122089904297383  1.0000
  H   H33       1.0  0.6231626807469866  0.9812309668427587  0.2816318613139898  1.0000
  H   H34       1.0  0.3768339960449154  0.0187613334435426  0.7183717755412147  1.0000
  H   H35       1.0  0.4843074078479005  0.9934925442695003  0.3219825703540522  1.0000
  H   H36       1.0  0.5156953865469588  0.0065057802795393995  0.6780189461588435  1.0000
  C   C1        1.0  0.6105739216466758  0.6988772051005868  0.6234055393027943  1.0000
  C   C2        1.0  0.3894317175507424  0.30113018964225086  0.3765984143034089  1.0000
  C   C3        1.0  0.4586613646085807  0.6590916892846436  0.5478063901463344  1.0000
  C   C4        1.0  0.5413390449460351  0.3409076607225714  0.4521968255264923  1.0000
  C   C5        1.0  0.35701086977095275  0.6807740120106799  0.5869975204898381  1.0000
  C   C6        1.0  0.6429861196777579  0.31922436981171387  0.4130012949523163  1.0000
  C   C7        1.0  0.21465408674421127  0.6614842046402813  0.5224074902459036  1.0000
  C   C8        1.0  0.7853446103736983  0.33851922810195845  0.4775888018850267  1.0000
  C   C9        1.0  0.11916588412022819  0.6862056844914549  0.573159796165875  1.0000
  C   C10       1.0  0.8808362542647927  0.31379873036537015  0.4268366828313148  1.0000
  C   C11       1.0  0.4023641908831194  0.7257782267358336  0.6943789306960468  1.0000
  C   C12       1.0  0.5976308435979688  0.2742201610217947  0.30562296367781266  1.0000
  C   C13       1.0  0.9589977210936809  0.13180887087002452  0.24332167282960884  1.0000
  C   C14       1.0  0.0410049714334803  0.8681874280480741  0.7566809826693727  1.0000
  C   C15       1.0  0.006673941305422129  0.27376727186672406  0.23819397903810105  1.0000
  C   C16       1.0  0.9933337140570015  0.7262310204320315  0.7618051068510566  1.0000
  C   C17       1.0  0.9185955580596641  0.2958819564430685  0.15127440578205414  1.0000
  C   C18       1.0  0.08140793819429595  0.7041103079793346  0.8487230192903112  1.0000
  C   C19       1.0  0.9531396830479649  0.42622970205681554  0.13647865693923217  1.0000
  C   C20       1.0  0.046857458885213414  0.5737616019228042  0.863519337413713  1.0000
  C   C21       1.0  0.8455441125402668  0.4343562510202901  0.04508397979194002  1.0000
  C   C22       1.0  0.15446095777340216  0.5656390177963716  0.9549183810019102  1.0000
  C   C23       1.0  0.7894210480283235  0.1847040988852768  0.07826671545428349  1.0000
  C   C24       1.0  0.2105928809483899  0.8152931421550776  0.9217287267759531  1.0000
  C   C25       1.0  0.45604578300820003  0.4816406993511679  0.1173681132329065  1.0000
  C   C26       1.0  0.5439623428971458  0.518367695564443  0.8826330022272799  1.0000
  C   C27       1.0  0.41590473469344846  0.5620756854497202  0.18566226558687043  1.0000
  C   C28       1.0  0.5840892398339007  0.4379206924135204  0.814338444988202  1.0000
  C   C29       1.0  0.4669767146379794  0.7027112946902675  0.1949215306945006  1.0000
  C   C30       1.0  0.5330178829167593  0.2972881079470469  0.8050803883623914  1.0000
  C   C31       1.0  0.4391798364218572  0.7916554852979302  0.2598109535541865  1.0000
  C   C32       1.0  0.5608195903586477  0.208343864194461  0.7401948549255977  1.0000
  C   C33       1.0  0.5040118670821341  0.9372837588682469  0.2637033803079162  1.0000
  C   C34       1.0  0.4959865173789737  0.062713592337893  0.7362977332360643  1.0000
  C   C35       1.0  0.5419051664748478  0.7559988182392913  0.13359758864490343  1.0000
  C   C36       1.0  0.4580834941763498  0.24398750086551502  0.8664000118458617  1.0000
  N   N1        1.0  0.4415633590570137  0.762758987728752  0.7845743309136565  1.0000
  N   N2        1.0  0.5584289907938496  0.2372434892139522  0.2154211260430543  1.0000
  N   N3        1.0  0.6793371990870867  0.09132452816809428  0.017737284978039638  1.0000
  N   N4        1.0  0.32066702911569667  0.9086727913025854  0.9822588051352525  1.0000
  N   N5        1.0  0.6013963451804255  0.8017678832266454  0.08044129212245812  1.0000
  N   N6        1.0  0.3985956113071366  0.19822650047876783  0.9195559118689687  1.0000
  O   O1        1.0  0.42477654989870217  0.6093406455201916  0.4532399091789117  1.0000
  O   O2        1.0  0.575231226840529  0.39067078061954413  0.5467629008878419  1.0000
  O   O3        1.0  0.16496624918521968  0.6237459382969706  0.4250183473383018  1.0000
  O   O4        1.0  0.8350348186654628  0.37625645970058497  0.5749790545423181  1.0000
  O   O5        1.0  0.12217979945837235  0.36728758555155133  0.30968609787025503  1.0000
  O   O6        1.0  0.8778186692360845  0.6327117796774072  0.6903173878246633  1.0000
  O   O7        1.0  0.06773054144478856  0.5325090146176166  0.1958665191632036  1.0000
  O   O8        1.0  0.9322607849616488  0.46748233967047526  0.8041308808012103  1.0000
  O   O9        1.0  0.3374452066956406  0.5021969952314079  0.23107263093248054  1.0000
  O   O10       1.0  0.6625461267645321  0.4977943636999384  0.7689233645771266  1.0000
  O   O11       1.0  0.3628595604333922  0.7532693258705405  0.31178287658450177  1.0000
  O   O12       1.0  0.6371222654076405  0.24672615578813856  0.6882135955182064  1.0000
