data_image0
_chemical_formula_structural       Cu2H18C10S2N2O10
_chemical_formula_sum              "Cu2 H18 C10 S2 N2 O10"
_cell_length_a       5.4668375780593585
_cell_length_b       8.584145942195411
_cell_length_c       9.154331884019122
_cell_angle_alpha    110.5159241306497
_cell_angle_beta     90.00045390785148
_cell_angle_gamma    89.99974020577325

_space_group_name_H-M_alt    "P 1"
_space_group_IT_number       1

loop_
  _space_group_symop_operation_xyz
  'x, y, z'

loop_
  _atom_site_type_symbol
  _atom_site_label
  _atom_site_symmetry_multiplicity
  _atom_site_fract_x
  _atom_site_fract_y
  _atom_site_fract_z
  _atom_site_occupancy
  Cu  Cu1       1.0  0.2496547975964774  0.8289067326781845  0.10774923838377494  1.0000
  Cu  Cu2       1.0  0.7496612634823236  0.17108672260221172  0.8922481439130152  1.0000
  H   H1        1.0  0.9893925309756781  0.9478565125910591  0.34573322730057043  1.0000
  H   H2        1.0  0.48940183226757483  0.05213771589166779  0.6542678477804956  1.0000
  H   H3        1.0  0.27817595471370277  0.0054089667486608  0.3992608806209006  1.0000
  H   H4        1.0  0.7781986883648316  0.9945820029571734  0.6007424068397427  1.0000
  H   H5        1.0  0.9439119004169285  0.5257951473839383  0.9385719026456414  1.0000
  H   H6        1.0  0.4438956733381262  0.47420170205784723  0.06143414583750942  1.0000
  H   H7        1.0  0.7851198220840274  0.6869541651905351  0.9909352828483763  1.0000
  H   H8        1.0  0.2851202411960685  0.3130318655051525  0.009071915059671216  1.0000
  H   H9        1.0  0.9552888747324602  0.22165007252874597  0.37707169215855885  1.0000
  H   H10       1.0  0.4552996941088949  0.7783467535980577  0.6229344086622177  1.0000
  H   H11       1.0  0.2792007430124457  0.3855019608637987  0.32159008215028  1.0000
  H   H12       1.0  0.7792006659439538  0.6144989268699061  0.6784131223408494  1.0000
  H   H13       1.0  0.47505985154865743  0.2094204634844914  0.24531805809931484  1.0000
  H   H14       1.0  0.975067115262817  0.7905750179929495  0.7546811597338845  1.0000
  H   H15       1.0  0.3081795840764059  0.48583818404495094  0.7563548499396475  1.0000
  H   H16       1.0  0.8081822078467981  0.5141675188589685  0.2436391308617658  1.0000
  H   H17       1.0  0.0979310788110794  0.4458116198712858  0.6017054713169188  1.0000
  H   H18       1.0  0.5979170309611632  0.5541821761887602  0.3982945007389702  1.0000
  C   C1        1.0  0.023858861550046104  0.12522295302844097  0.1312066312043498  1.0000
  C   C2        1.0  0.5238798542971139  0.8748256709346761  0.8688051186295525  1.0000
  C   C3        1.0  0.1043157951429095  0.15497861344346828  0.2989034289734249  1.0000
  C   C4        1.0  0.6043221586368049  0.8450225919878631  0.7010945893569273  1.0000
  C   C5        1.0  0.3321476155325628  0.2665531707990496  0.33216890649281794  1.0000
  C   C6        1.0  0.8321486534134126  0.733446334571724  0.6678308544137792  1.0000
  C   C7        1.0  0.23256879102129352  0.3865888341204736  0.6546408998208406  1.0000
  C   C8        1.0  0.7325648021508043  0.6134009046487704  0.3453530128935185  1.0000
  C   C9        1.0  0.10521244496045773  0.2595210419355211  0.7112299384521705  1.0000
  C   C10       1.0  0.6051980143507123  0.7404514841052643  0.2887512163224315  1.0000
  S   S1        1.0  0.47959217914591074  0.3046269476873319  0.5187092421651087  1.0000
  S   S2        1.0  0.9795857241811491  0.6953796884167145  0.4812903087521078  1.0000
  N   N1        1.0  0.14931606104935466  0.9929091501854046  0.3145178443474137  1.0000
  N   N2        1.0  0.6493337127501276  0.0070920033886068  0.6854847633837552  1.0000
  O   O1        1.0  0.052624155225672105  0.9801273466539013  0.03091680151494097  1.0000
  O   O2        1.0  0.5526176408102687  0.019875047327154498  0.969063848764961  1.0000
  O   O3        1.0  0.9360076552834613  0.640857859584429  0.015844559475745323  1.0000
  O   O4        1.0  0.4360174850439266  0.35914768232432676  0.9841609652065628  1.0000
  O   O5        1.0  0.9372273742912824  0.24708705761312894  0.09884985048268649  1.0000
  O   O6        1.0  0.437234275198449  0.7529221729002699  0.9011524969400071  1.0000
  O   O7        1.0  0.16474787843660013  0.10989041329717959  0.665096508035042  1.0000
  O   O8        1.0  0.664746052958094  0.8901181211044997  0.33490309179767763  1.0000
  O   O9        1.0  0.9301523253451834  0.322962957676907  0.8106908785784556  1.0000
  O   O10       1.0  0.430127450493714  0.6770276708018556  0.18930982012748387  1.0000
