data_image0
_chemical_formula_structural       Cu6H24C34S4N14F8
_chemical_formula_sum              "Cu6 H24 C34 S4 N14 F8"
_cell_length_a       8.745104870381462
_cell_length_b       11.555285714725747
_cell_length_c       11.709778017214429
_cell_angle_alpha    95.10865813432484
_cell_angle_beta     105.01744788552236
_cell_angle_gamma    107.10003049556823

_space_group_name_H-M_alt    "P 1"
_space_group_IT_number       1

loop_
  _space_group_symop_operation_xyz
  'x, y, z'

loop_
  _atom_site_type_symbol
  _atom_site_label
  _atom_site_symmetry_multiplicity
  _atom_site_fract_x
  _atom_site_fract_y
  _atom_site_fract_z
  _atom_site_occupancy
  Cu  Cu1       1.0  0.022241566330734503  0.08506140017965441  0.2733586463365256  1.0000
  Cu  Cu2       1.0  0.9777581441864597  0.9149387906467651  0.7266409281588366  1.0000
  Cu  Cu3       1.0  0.641868568231999  0.82170361475049  0.3039216862197875  1.0000
  Cu  Cu4       1.0  0.35813249126553615  0.178299328843714  0.69607582301888  1.0000
  Cu  Cu5       1.0  0.9019636762384238  0.37341835751075075  0.008252347312804904  1.0000
  Cu  Cu6       1.0  0.09803802253711066  0.626580891788393  0.9917458632296456  1.0000
  H   H1        1.0  0.6075101868799352  0.03167415430207401  0.632467649187923  1.0000
  H   H2        1.0  0.392481994009472  0.9683251667582482  0.36753113014678707  1.0000
  H   H3        1.0  0.20786394603069888  0.7520022569097194  0.7028128824160688  1.0000
  H   H4        1.0  0.7921359541043815  0.2479933220323716  0.2971880818019769  1.0000
  H   H5        1.0  0.3833009163749352  0.782072118105326  0.9161675013044643  1.0000
  H   H6        1.0  0.6166987290621648  0.21792530132016455  0.08383098984641887  1.0000
  H   H7        1.0  0.24366384742962313  0.3995088406589034  0.6704459768311181  1.0000
  H   H8        1.0  0.7563342334328456  0.6004904405487821  0.32955403881988593  1.0000
  H   H9        1.0  0.6070817531443424  0.7112690223686967  0.6050501327238108  1.0000
  H   H10       1.0  0.3929187008346418  0.28873301963015063  0.3949531587304023  1.0000
  H   H11       1.0  0.4208271435138045  0.6828650590829852  0.3963572339647071  1.0000
  H   H12       1.0  0.5791757743600314  0.3171369563122042  0.6036431561515911  1.0000
  H   H13       1.0  0.07400734126140653  0.4261158033535395  0.24407110130290016  1.0000
  H   H14       1.0  0.925989931337341  0.5738844114108942  0.755930525564267  1.0000
  H   H15       1.0  0.1554110599623968  0.7285920811753216  0.4031625748811151  1.0000
  H   H16       1.0  0.8445938721461774  0.2714089900269415  0.596835602316169  1.0000
  H   H17       1.0  0.02608296660390838  0.7634730978044926  0.27858017483843156  1.0000
  H   H18       1.0  0.9739195407135028  0.23653077406800802  0.721422836007349  1.0000
  H   H19       1.0  0.7648670713287585  0.027056679897391706  0.05856570762173158  1.0000
  H   H20       1.0  0.2351283948465053  0.9729444577347551  0.9414313404355851  1.0000
  H   H21       1.0  0.6325993582090773  0.7120908938603279  0.9189139174076997  1.0000
  H   H22       1.0  0.36740264721724697  0.28790650962410774  0.08108506826969368  1.0000
  H   H23       1.0  0.7428369104146526  0.6748048027971052  0.0500316851389186  1.0000
  H   H24       1.0  0.2571666858408648  0.3251962923695899  0.9499713385917589  1.0000
  C   C1        1.0  0.0069378250249557145  0.19553583951170592  0.1674246628955558  1.0000
  C   C2        1.0  0.9930678971539635  0.8044597075746936  0.8325800845371062  1.0000
  C   C3        1.0  0.4389576201729001  0.7438987464638631  0.18756848353295646  1.0000
  C   C4        1.0  0.5610452845736519  0.2561004921990957  0.8124291253066429  1.0000
  C   C5        1.0  0.15587305187904835  0.11169675390029712  0.4328699060101683  1.0000
  C   C6        1.0  0.8441231837344033  0.8883062322386267  0.5671300100398965  1.0000
  C   C7        1.0  0.04572973893463231  0.5930789708852232  0.2520737235919412  1.0000
  C   C8        1.0  0.9542739092737024  0.4069221189501705  0.7479276022065164  1.0000
  C   C9        1.0  0.7428081131085448  0.850426722340778  0.0667362636171873  1.0000
  C   C10       1.0  0.2571924707524715  0.14957530632981533  0.9332627830064837  1.0000
  C   C11       1.0  0.595285040125532  0.921006183983465  0.8934618384625636  1.0000
  C   C12       1.0  0.4047159023390918  0.07899399354112549  0.10653628536384468  1.0000
  C   C13       1.0  0.6536671684696528  0.9912669762761863  0.8126350984970042  1.0000
  C   C14       1.0  0.3463325420475485  0.0087332145502259  0.1873644759983577  1.0000
  C   C15       1.0  0.5582478770792886  0.9777497962027649  0.6942647091138736  1.0000
  C   C16       1.0  0.44174824150125863  0.022250423866537996  0.3057358215239319  1.0000
  C   C17       1.0  0.3995751735009136  0.889806397811796  0.6585421963551994  1.0000
  C   C18       1.0  0.6004204954195204  0.11019290466825281  0.3414590227015068  1.0000
  C   C19       1.0  0.3337028926315355  0.8185846633831914  0.7349394376679824  1.0000
  C   C20       1.0  0.6662951622545279  0.1814146204901448  0.26506142694912427  1.0000
  C   C21       1.0  0.4326645960403683  0.8354144133709911  0.853482925986057  1.0000
  C   C22       1.0  0.5673326374546905  0.1645830273268629  0.1465167685705211  1.0000
  C   C23       1.0  0.22436770682508472  0.5289030504801034  0.41609891084576117  1.0000
  C   C24       1.0  0.7756336852996526  0.47109804463374166  0.5838985245617464  1.0000
  C   C25       1.0  0.17911623210599004  0.45036332969808524  0.49512296033561387  1.0000
  C   C26       1.0  0.8208862361077324  0.5496377681078359  0.5048781181995848  1.0000
  C   C27       1.0  0.28122378607246645  0.46210011799774964  0.6110441094825703  1.0000
  C   C28       1.0  0.7187747184737107  0.5379000834648409  0.388956066715643  1.0000
  C   C29       1.0  0.4332457648733197  0.5578014274408787  0.647358158259564  1.0000
  C   C30       1.0  0.5667559210530867  0.44220060125613975  0.35264368252569506  1.0000
  C   C31       1.0  0.48563435760956253  0.6386334989452394  0.5736522939043383  1.0000
  C   C32       1.0  0.5143644276109995  0.361364859368301  0.42634950639492786  1.0000
  C   C33       1.0  0.3802548595063869  0.6227083804456586  0.4573187034253507  1.0000
  C   C34       1.0  0.6197474916744242  0.3772899512906421  0.5426829896975817  1.0000
  S   S1        1.0  0.9060190178486708  0.5535768443432901  0.10953988576959973  1.0000
  S   S2        1.0  0.09398105127213792  0.4464214953371196  0.8904587659284926  1.0000
  S   S3        1.0  0.8580015828340348  0.88568390614747  0.2173434783741469  1.0000
  S   S4        1.0  0.14199902700339354  0.11431811985747231  0.782654719283421  1.0000
  N   N1        1.0  0.9868634096033305  0.27004588921576567  0.10773837400789438  1.0000
  N   N2        1.0  0.013131032435765473  0.7299552403929964  0.8922533329895187  1.0000
  N   N3        1.0  0.3124010215749919  0.698358848411516  0.10968638513327986  1.0000
  N   N4        1.0  0.687597750518286  0.3016367331698007  0.8903126338892873  1.0000
  N   N5        1.0  0.24044492698244113  0.1348272903312235  0.5334472317784886  1.0000
  N   N6        1.0  0.7595545548131852  0.8651747383129377  0.4665490206836012  1.0000
  N   N7        1.0  0.11374537310037172  0.5105413013711698  0.2984958756873795  1.0000
  N   N8        1.0  0.8862558891423263  0.48945980707093645  0.7015058045506706  1.0000
  N   N9        1.0  0.082504012883838  0.704025940916324  0.3160656218032755  1.0000
  N   N10       1.0  0.9174989049899979  0.29597607447886537  0.6839347683130228  1.0000
  N   N11       1.0  0.7000419463512627  0.9392550075400052  0.012585114293308722  1.0000
  N   N12       1.0  0.29995337681468476  0.06074336668817179  0.9874133973178585  1.0000
  N   N13       1.0  0.6927805366655235  0.7356695702783965  0.008689656436388308  1.0000
  N   N14       1.0  0.30722290879764813  0.2643333547090947  0.991307498362687  1.0000
  F   F1        1.0  0.02762463128898671  0.3589789163565342  0.4565062169714409  1.0000
  F   F2        1.0  0.9723742709644866  0.6410222080266265  0.5434949687400915  1.0000
  F   F3        1.0  0.3043997960409258  0.8731366600684753  0.5414540415599091  1.0000
  F   F4        1.0  0.695593063230163  0.1268617407633599  0.458547371389173  1.0000
  F   F5        1.0  0.8095278664432827  0.0753557403824061  0.8524318674652845  1.0000
  F   F6        1.0  0.19046802341568994  0.924646317504653  0.14756534113924857  1.0000
  F   F7        1.0  0.5363034145393686  0.5715276610324977  0.7614459142039322  1.0000
  F   F8        1.0  0.463695448610416  0.4284706892840832  0.23855333919701138  1.0000
