data_image0
_chemical_formula_structural       Ag4P4H60C32N12O8
_chemical_formula_sum              "Ag4 P4 H60 C32 N12 O8"
_cell_length_a       6.853002172320047
_cell_length_b       12.466243725572339
_cell_length_c       15.53961209662015
_cell_angle_alpha    75.44415271065428
_cell_angle_beta     77.23314636027253
_cell_angle_gamma    74.04041027243005

_space_group_name_H-M_alt    "P 1"
_space_group_IT_number       1

loop_
  _space_group_symop_operation_xyz
  'x, y, z'

loop_
  _atom_site_type_symbol
  _atom_site_label
  _atom_site_symmetry_multiplicity
  _atom_site_fract_x
  _atom_site_fract_y
  _atom_site_fract_z
  _atom_site_occupancy
  Ag  Ag1       1.0  0.5317030272627719  0.6058220775724195  0.5113290361129685  1.0000
  Ag  Ag2       1.0  0.6483805737614782  0.8940445064690508  0.988562801029808  1.0000
  Ag  Ag3       1.0  0.46829636846033623  0.3941741890938744  0.48867197209434476  1.0000
  Ag  Ag4       1.0  0.35162776801846013  0.1059577249419448  0.01143776649977471  1.0000
  P   P1        1.0  0.18268613008821405  0.699510322655911  0.5398533447895916  1.0000
  P   P2        1.0  0.4217794290381109  0.8001423826825587  0.9602042294537085  1.0000
  P   P3        1.0  0.8172998385318945  0.3004902045423137  0.460142163130378  1.0000
  P   P4        1.0  0.5782331322425235  0.19985899662204787  0.039792613104687305  1.0000
  H   H1        1.0  0.13608145087132292  0.9083726753571568  0.5120426925398507  1.0000
  H   H2        1.0  0.5562133885944002  0.5913183747686972  0.988134890165405  1.0000
  H   H3        1.0  0.8638965485391092  0.09162614762828979  0.4879542942202661  1.0000
  H   H4        1.0  0.44380003091593767  0.40868556085506913  0.011859610574767022  1.0000
  H   H5        1.0  0.08879816974354061  0.8647720957754288  0.4199704402667522  1.0000
  H   H6        1.0  0.37273720191011245  0.6349845665421867  0.08009881169376602  1.0000
  H   H7        1.0  0.9111751728865725  0.135224170890865  0.5800341827479231  1.0000
  H   H8        1.0  0.6272774804504309  0.3650168127624198  0.9199003974418503  1.0000
  H   H9        1.0  0.09875593391087992  0.6099079276954313  0.6968578390182713  1.0000
  H   H10       1.0  0.4057565793785255  0.8898402135583154  0.8032200967738633  1.0000
  H   H11       1.0  0.9012525753281723  0.3900934516091752  0.3031385679245915  1.0000
  H   H12       1.0  0.594245938729223  0.110162869959062  0.19677832046985338  1.0000
  H   H13       1.0  0.14302330776021668  0.7460677113986164  0.6886785068872783  1.0000
  H   H14       1.0  0.5783248420148863  0.7537758657704146  0.8113235755851137  1.0000
  H   H15       1.0  0.8569782806170708  0.253934520012379  0.3113213346164088  1.0000
  H   H16       1.0  0.42168702036713046  0.2462238093214211  0.18867196315950005  1.0000
  H   H17       1.0  0.022672906330526904  0.6364092884203316  0.44070797708869247  1.0000
  H   H18       1.0  0.09882870944039723  0.863320106492921  0.059168659536403816  1.0000
  H   H19       1.0  0.9773126883826958  0.3635878303523441  0.559292874627623  1.0000
  H   H20       1.0  0.9011791398887106  0.1366846812372344  0.9408294209697701  1.0000
  H   H21       1.0  0.027297985051788442  0.5449365199416007  0.5490265174562836  1.0000
  H   H22       1.0  0.12094385401186254  0.9547570865034202  0.9508557562938479  1.0000
  H   H23       1.0  0.9726990668875853  0.4550588946183041  0.45097433729285546  1.0000
  H   H24       1.0  0.8790688747278776  0.0452434406948043  0.04913692567782851  1.0000
  H   H25       1.0  0.8725445899196695  0.915978576962587  0.6472338400225085  1.0000
  H   H26       1.0  0.43645213211956213  0.5836809452269733  0.8528747179315701  1.0000
  H   H27       1.0  0.12745159566198788  0.0840159854909288  0.352769871499568  1.0000
  H   H28       1.0  0.5635578155568195  0.4163153214393205  0.1471217218653038  1.0000
  H   H29       1.0  0.6248983239228986  0.8978414925270569  0.6430293092563275  1.0000
  H   H30       1.0  0.1666858799352718  0.601620340980844  0.8567398407677161  1.0000
  H   H31       1.0  0.37509479451882993  0.102147957288139  0.3569789406970259  1.0000
  H   H32       1.0  0.8333258864884029  0.3983784820046025  0.14326077612187052  1.0000
  H   H33       1.0  0.5689781587468158  0.7129616740723675  0.6612084665985094  1.0000
  H   H34       1.0  0.9438728963296719  0.7864336951373971  0.8385138644185022  1.0000
  H   H35       1.0  0.4310277757296175  0.2870243673172865  0.33879941663813906  1.0000
  H   H36       1.0  0.056132116691358605  0.2135651278480495  0.16148602644519633  1.0000
  H   H37       1.0  0.7763572577222458  0.5903478255945345  0.6743164822871821  1.0000
  H   H38       1.0  0.04127589228049541  0.9091958101264694  0.8253936334009495  1.0000
  H   H39       1.0  0.22365622501379784  0.4096407721142725  0.3256883526441642  1.0000
  H   H40       1.0  0.9587259984294078  0.09080386496536619  0.17460439758723822  1.0000
  H   H41       1.0  0.7713444287277439  0.8176855489667361  0.4251011581549237  1.0000
  H   H42       1.0  0.01367012539184027  0.6820898596913807  0.0746850814048727  1.0000
  H   H43       1.0  0.22863646208845972  0.1823056050612379  0.5749048673935562  1.0000
  H   H44       1.0  0.9863444773399122  0.3179149280387747  0.9253137251271967  1.0000
  H   H45       1.0  0.5648614585884745  0.8455988499739745  0.5155399431139358  1.0000
  H   H46       1.0  0.9259006292032268  0.6540461864070153  0.9842132282981311  1.0000
  H   H47       1.0  0.4351218311826625  0.1543871914156796  0.4844726341995057  1.0000
  H   H48       1.0  0.07410685434701487  0.3459534886848203  0.01578968104967521  1.0000
  H   H49       1.0  0.2677908168888119  0.3084071249787925  0.7969533789927327  1.0000
  H   H50       1.0  0.3708758218033594  0.19043299577516848  0.7032200774005233  1.0000
  H   H51       1.0  0.7322039465850663  0.6915968106449738  0.20304481892680576  1.0000
  H   H52       1.0  0.629104290632476  0.8095752003805287  0.29677534005242734  1.0000
  H   H53       1.0  0.23290408157218684  0.44949890044673413  0.8108609046927883  1.0000
  H   H54       1.0  0.49756892820411713  0.0502350799066136  0.6885550710329724  1.0000
  H   H55       1.0  0.7670642160601702  0.5505118520281229  0.18913437277515044  1.0000
  H   H56       1.0  0.5024440623016417  0.9497790809937925  0.3114339243576509  1.0000
  H   H57       1.0  0.4774948202673741  0.3538993807384401  0.816575079549068  1.0000
  H   H58       1.0  0.6461215079482868  0.148542593711035  0.6837069550166532  1.0000
  H   H59       1.0  0.5224820088013047  0.646114780161966  0.18343212665013914  1.0000
  H   H60       1.0  0.3538624792905765  0.8514817924660107  0.31629912574391744  1.0000
  C   C1        1.0  0.061720596313634066  0.8510727814005108  0.49398433796020674  1.0000
  C   C2        1.0  0.4063251708454202  0.6486071913423217  0.006072277097118211  1.0000
  C   C3        1.0  0.9382657931830276  0.1489192247338451  0.5060171902640107  1.0000
  C   C4        1.0  0.5936897894636671  0.35139674428144463  0.9939266663871325  1.0000
  C   C5        1.0  0.06679403514183928  0.6989896856537925  0.6602884332499812  1.0000
  C   C6        1.0  0.42642508347491026  0.80071244185509  0.839718432138355  1.0000
  C   C7        1.0  0.9332148398025593  0.3010091373316612  0.3397075956903493  1.0000
  C   C8        1.0  0.5735849194461906  0.19928552902396748  0.16027995512619952  1.0000
  C   C9        1.0  0.9956194764147669  0.6342432339859769  0.5134847956992062  1.0000
  C   C10       1.0  0.14290428400957425  0.8654222529482851  0.98639774396991  1.0000
  C   C11       1.0  0.004376224844086877  0.3657521805739208  0.4865159138447482  1.0000
  C   C12       1.0  0.8570968834176468  0.1345808305690994  0.013600528068621977  1.0000
  C   C13       1.0  0.7917536852664777  0.8655134283316315  0.6249552969946279  1.0000
  C   C14       1.0  0.28271633197910245  0.6341051927513774  0.8749633342539483  1.0000
  C   C15       1.0  0.2082332438712342  0.1344870988665861  0.375046729836285  1.0000
  C   C16       1.0  0.7172964356757986  0.3658927781276873  0.12503677593392842  1.0000
  C   C17       1.0  0.7355530139592755  0.6807571653029783  0.6420328578083813  1.0000
  C   C18       1.0  0.05873685521411405  0.8188094772904577  0.857749155417075  1.0000
  C   C19       1.0  0.26445137159038967  0.3192305802994468  0.3579710976388881  1.0000
  C   C20       1.0  0.9412717970264594  0.1811884935885999  0.1422490866423018  1.0000
  C   C21       1.0  0.7315565259830519  0.8117352900701746  0.49834833189288474  1.0000
  C   C22       1.0  0.04137204208490882  0.6879702458642569  0.0014447791283344997  1.0000
  C   C23       1.0  0.26843652095791964  0.1882558639577994  0.5016590005022081  1.0000
  C   C24       1.0  0.958644428162273  0.3120268729084188  0.9985551147681947  1.0000
  C   C25       1.0  0.4033924866932776  0.4207803589043023  0.681735204802429  1.0000
  C   C26       1.0  0.5059428778346413  0.0790260504918905  0.8181794500656567  1.0000
  C   C27       1.0  0.5966015860100099  0.5792201682939222  0.3182611743486135  1.0000
  C   C28       1.0  0.4940464276724014  0.9209761809190979  0.1818162195654836  1.0000
  C   C29       1.0  0.3428585716240844  0.3794063333103566  0.7826639405003206  1.0000
  C   C30       1.0  0.5047750680860189  0.1208303898109975  0.7173055687647576  1.0000
  C   C31       1.0  0.657126069048125  0.6206027149517297  0.21733542950099152  1.0000
  C   C32       1.0  0.49521445839989986  0.8791786584510888  0.2826978907370973  1.0000
  N   N1        1.0  0.843535850769129  0.7465713062730046  0.6731254770158729  1.0000
  N   N2        1.0  0.26384892880184896  0.753031124788663  0.8267628681829892  1.0000
  N   N3        1.0  0.1564674376644816  0.2534241082869002  0.3268796124389866  1.0000
  N   N4        1.0  0.7361584361309353  0.2469668460904018  0.17323666118416986  1.0000
  N   N5        1.0  0.7788554759367442  0.6896454870200088  0.54287040831111  1.0000
  N   N6        1.0  0.011160965159838398  0.8100191478078713  0.9568977973139783  1.0000
  N   N7        1.0  0.22113403587104566  0.3103456670079581  0.45713297978861794  1.0000
  N   N8        1.0  0.9888456764902641  0.18998223149673518  0.04310197310353908  1.0000
  N   N9        1.0  0.8386425257811535  0.8809791592456548  0.5261094618152171  1.0000
  N   N10       1.0  0.24561277318070268  0.6187246724760058  0.9738083874135699  1.0000
  N   N11       1.0  0.1613434736260969  0.1190205158461808  0.4738939892756662  1.0000
  N   N12       1.0  0.7543972687290716  0.3812784110413787  0.02619297722808512  1.0000
  O   O1        1.0  0.5618871990324974  0.4616524938366311  0.6549962669902668  1.0000
  O   O2        1.0  0.6787042050245516  0.0373946887692398  0.8446353761707427  1.0000
  O   O3        1.0  0.4381194816062785  0.5383539981062953  0.34500648080434365  1.0000
  O   O4        1.0  0.32126822420465784  0.9626049863225958  0.1553651903553899  1.0000
  O   O5        1.0  0.28498600834517857  0.4129546138511699  0.6313147762144525  1.0000
  O   O6        1.0  0.3294320077492967  0.0874014041642823  0.8688288905266648  1.0000
  O   O7        1.0  0.7150165341466418  0.5870433570278948  0.36868209616513076  1.0000
  O   O8        1.0  0.6705586159261897  0.9126076440978038  0.13116898412850025  1.0000
