data_image0
_chemical_formula_structural       Ag4H16C24S24O12F12
_chemical_formula_sum              "Ag4 H16 C24 S24 O12 F12"
_cell_length_a       7.628699391870967
_cell_length_b       9.434547078645492
_cell_length_c       18.40448204300043
_cell_angle_alpha    99.54044529194428
_cell_angle_beta     91.28537664935948
_cell_angle_gamma    100.93795034260195

_space_group_name_H-M_alt    "P 1"
_space_group_IT_number       1

loop_
  _space_group_symop_operation_xyz
  'x, y, z'

loop_
  _atom_site_type_symbol
  _atom_site_label
  _atom_site_symmetry_multiplicity
  _atom_site_fract_x
  _atom_site_fract_y
  _atom_site_fract_z
  _atom_site_occupancy
  Ag  Ag1       1.0  0.7397305765678156  0.5001429885051395  0.5138436237366549  1.0000
  Ag  Ag2       1.0  0.260278001686217  0.4998559540541336  0.48615703403783084  1.0000
  Ag  Ag3       1.0  0.014658839563111228  0.867593831003674  0.8391197106303423  1.0000
  Ag  Ag4       1.0  0.9853387646110224  0.13240289891451343  0.160883938502721  1.0000
  H   H1        1.0  0.40397903324742407  0.0024665707478704006  0.0537195114639388  1.0000
  H   H2        1.0  0.5960211578656073  0.9975357477748192  0.9462792276852172  1.0000
  H   H3        1.0  0.6269036669534459  0.9871184724251024  0.08113484027160214  1.0000
  H   H4        1.0  0.37309938474836474  0.0128849758866778  0.9188618456919715  1.0000
  H   H5        1.0  0.6230564847703022  0.23945153709525607  0.05879271003528431  1.0000
  H   H6        1.0  0.3769385031767314  0.7605507482510134  0.9412087108637835  1.0000
  H   H7        1.0  0.4518867773358083  0.2576726636299185  0.1231425943982174  1.0000
  H   H8        1.0  0.548110791312361  0.7423241235122048  0.8768583427616293  1.0000
  H   H9        1.0  0.3048990565864217  0.1822478951226074  0.7935593995499703  1.0000
  H   H10       1.0  0.6950990442836871  0.8177510955317118  0.20644119777791306  1.0000
  H   H11       1.0  0.12391983220963713  0.2726824618017716  0.816199367404906  1.0000
  H   H12       1.0  0.8760816827867686  0.727319827819464  0.1838004640893587  1.0000
  H   H13       1.0  0.1067531652120124  0.3247065613570044  0.6848014132372315  1.0000
  H   H14       1.0  0.8932512072542879  0.6752913146489945  0.31519857819380104  1.0000
  H   H15       1.0  0.31603093126255305  0.4052453115775022  0.7326736817895994  1.0000
  H   H16       1.0  0.683974243089253  0.5947558639743846  0.26732607109080675  1.0000
  C   C1        1.0  0.5188842520480749  0.2335690210227881  0.385870598612847  1.0000
  C   C2        1.0  0.4811038752392918  0.7664322670179045  0.6141274288578914  1.0000
  C   C3        1.0  0.5033442180219652  0.09582331731776611  0.25056756312619655  1.0000
  C   C4        1.0  0.496660707981853  0.9041767278660585  0.7494337156567996  1.0000
  C   C5        1.0  0.5131059708888017  0.0393138845615653  0.09669972225386661  1.0000
  C   C6        1.0  0.48689259513763267  0.9606818692036968  0.903297866812608  1.0000
  C   C7        1.0  0.5654351697982565  0.2046813080932282  0.10866972961294862  1.0000
  C   C8        1.0  0.4345563613913299  0.7953177469548505  0.8913292027518764  1.0000
  C   C9        1.0  0.634496905446483  0.2192280768588688  0.25461271169583455  1.0000
  C   C10       1.0  0.3655012096340117  0.7807708909058704  0.7453889704213311  1.0000
  C   C11       1.0  0.05144254627815303  0.806225238228528  0.5283607611376057  1.0000
  C   C12       1.0  0.9485597532744876  0.1937748304238411  0.4716399601390933  1.0000
  C   C13       1.0  0.07360514398892803  0.9855428862042146  0.6528353914563  1.0000
  C   C14       1.0  0.9263971484585272  0.014457193892951598  0.34716478742576135  1.0000
  C   C15       1.0  0.1851362689909379  0.2116826411381894  0.7710747746140998  1.0000
  C   C16       1.0  0.8148665698888423  0.7883196195815927  0.2289261492252806  1.0000
  C   C17       1.0  0.22693691652366973  0.30074131906965806  0.7100636330136896  1.0000
  C   C18       1.0  0.7730646055779289  0.6992609591067948  0.2899367408752198  1.0000
  C   C19       1.0  0.20401483569268922  0.051069392701656086  0.6119827026455057  1.0000
  C   C20       1.0  0.7959851070723547  0.9489317954529638  0.38801756240624036  1.0000
  C   C21       1.0  0.7710018770451231  0.6196431141815849  0.017403952832125914  1.0000
  C   C22       1.0  0.22899673473135357  0.3803581143192787  0.9825946774798666  1.0000
  C   C23       1.0  0.7531922774352467  0.40665333223495276  0.7697256183092236  1.0000
  C   C24       1.0  0.24681314214566194  0.5933434302806759  0.23027482179093542  1.0000
  S   S1        1.0  0.4799882363202387  0.286186786300199  0.4752838121316643  1.0000
  S   S2        1.0  0.5200074762226166  0.7138078262311893  0.5247163725150302  1.0000
  S   S3        1.0  0.4031748684549613  0.0746342437516887  0.3332752345619738  1.0000
  S   S4        1.0  0.5968216317630208  0.9253636912151605  0.6667236267448119  1.0000
  S   S5        1.0  0.4134386394890086  0.9643662936210048  0.17478135201903913  1.0000
  S   S6        1.0  0.5865633690844948  0.03563271333203491  0.8252176407923885  1.0000
  S   S7        1.0  0.7437012441685057  0.2809247573519542  0.17964128398408263  1.0000
  S   S8        1.0  0.2562950534515168  0.7190775219824419  0.8203601444708115  1.0000
  S   S9        1.0  0.6745356984481106  0.3326111763451181  0.34027761189339156  1.0000
  S   S10       1.0  0.3254603366135457  0.6673899955107815  0.6597242576748031  1.0000
  S   S11       1.0  0.9968467914526614  0.6585046609929749  0.46139612787856527  1.0000
  S   S12       1.0  0.0031607467919413847  0.3414953836118785  0.5386046236214383  1.0000
  S   S13       1.0  0.9427189983510831  0.8215473392837325  0.6084950350777235  1.0000
  S   S14       1.0  0.057283308306757916  0.1784527179238609  0.39150622859361317  1.0000
  S   S15       1.0  0.983904503085569  0.9534643469597125  0.2576225247206807  1.0000
  S   S16       1.0  0.016096756457656593  0.04653682373824349  0.7423782902815362  1.0000
  S   S17       1.0  0.3525719184394519  0.2169935463674619  0.6383426013639522  1.0000
  S   S18       1.0  0.6474269630005909  0.7830087781671083  0.3616561302293776  1.0000
  S   S19       1.0  0.21824270842972746  0.9543023548791683  0.5234624719765649  1.0000
  S   S20       1.0  0.781758281449932  0.045697719785089  0.47653824174430787  1.0000
  S   S21       1.0  0.923279763681599  0.7976349301832286  0.01194491725135551  1.0000
  S   S22       1.0  0.0767261597004847  0.2023640816237418  0.9880530134382611  1.0000
  S   S23       1.0  0.7941548336348278  0.5539913331026441  0.7126247117862405  1.0000
  S   S24       1.0  0.20583619687246824  0.44601101605842086  0.2873745168667767  1.0000
  O   O1        1.0  0.7626495342988163  0.6847849998709774  0.7616631616940737  1.0000
  O   O2        1.0  0.23734849240048564  0.31520856182688556  0.23833422480971225  1.0000
  O   O3        1.0  0.9793368392708363  0.5562337366041062  0.6941039573662808  1.0000
  O   O4        1.0  0.020675071833487376  0.44376308741041737  0.3058921813558656  1.0000
  O   O5        1.0  0.6620571778151573  0.5006220949661327  0.6504655753609612  1.0000
  O   O6        1.0  0.33794509331672634  0.4993780194653965  0.34953297633716574  1.0000
  O   O7        1.0  0.8952678361320495  0.8847051356928828  0.0828840758952012  1.0000
  O   O8        1.0  0.1047190769687134  0.11530155298178357  0.9171187820277285  1.0000
  O   O9        1.0  0.10109428096611588  0.7659236697301779  0.0026527347883061195  1.0000
  O   O10       1.0  0.8988908217793751  0.23408631906935543  0.9973504118669966  1.0000
  O   O11       1.0  0.15683529430431525  0.1580186995838986  0.05213021865699121  1.0000
  O   O12       1.0  0.8431558774394078  0.841994518934861  0.9478748892495618  1.0000
  F   F1        1.0  0.5946436450916722  0.4015551759473368  0.8022150918143327  1.0000
  F   F2        1.0  0.4053596274047849  0.5984383502582132  0.19778286730741002  1.0000
  F   F3        1.0  0.8848522016577365  0.42772704350121415  0.8230119511964775  1.0000
  F   F4        1.0  0.11515105350945018  0.5722609621895884  0.1769871362583189  1.0000
  F   F5        1.0  0.7506915900828873  0.2745611258622276  0.7262985798474233  1.0000
  F   F6        1.0  0.24931484108667953  0.725434580386974  0.273699596948653  1.0000
  F   F7        1.0  0.605275634905226  0.6449331527174492  0.0342567425564582  1.0000
  F   F8        1.0  0.3947221221305099  0.3550593129467075  0.9657405426659907  1.0000
  F   F9        1.0  0.8304444753472922  0.554818573411957  0.07129826808370862  1.0000
  F   F10       1.0  0.1695644356496118  0.4451924604313716  0.9287024038845859  1.0000
  F   F11       1.0  0.7557253884647038  0.5252554085858206  0.9530508430676932  1.0000
  F   F12       1.0  0.24427820343166223  0.47473913353991987  0.0469510140978855  1.0000
