data_image0
_chemical_formula_structural       Zn2H34C54N2O20
_chemical_formula_sum              "Zn2 H34 C54 N2 O20"
_cell_length_a       14.710136038334417
_cell_length_b       15.521015910394205
_cell_length_c       16.120042273457706
_cell_angle_alpha    88.64295492554041
_cell_angle_beta     92.46430699311252
_cell_angle_gamma    115.30813361742256

_space_group_name_H-M_alt    "P 1"
_space_group_IT_number       1

loop_
  _space_group_symop_operation_xyz
  'x, y, z'

loop_
  _atom_site_type_symbol
  _atom_site_label
  _atom_site_symmetry_multiplicity
  _atom_site_fract_x
  _atom_site_fract_y
  _atom_site_fract_z
  _atom_site_occupancy
  Zn  Zn1       1.0  0.4083435684848666  0.4960050653460116  0.4934309839170793  1.0000
  Zn  Zn2       1.0  0.6054563008737759  0.5132016134957738  0.5067499393804481  1.0000
  H   H1        1.0  0.2311374284842671  0.874959540637022  0.5351988819418594  1.0000
  H   H2        1.0  0.627041373989421  0.033599368408793906  0.25384976028095  1.0000
  H   H3        1.0  0.3419501055281485  0.8037234841526625  0.4921406144241018  1.0000
  H   H4        1.0  0.5337636389277735  0.11626673215762652  0.2992168505614714  1.0000
  H   H5        1.0  0.3837357177372168  0.5369696515777421  0.0782210150973981  1.0000
  H   H6        1.0  0.6065362469610632  0.43715868171682376  0.9233187983184405  1.0000
  H   H7        1.0  0.9094378540507223  0.46224529100271655  0.6321374100990127  1.0000
  H   H8        1.0  0.09329064850484771  0.5238969753629521  0.3697970234075569  1.0000
  H   H9        1.0  0.6270430899419639  0.9497825576291706  0.610536843520336  1.0000
  H   H10       1.0  0.5116802482748  0.958722143478717  0.5909999850685921  1.0000
  H   H11       1.0  0.5283371131339081  0.8991318020290681  0.6815470668466261  1.0000
  H   H12       1.0  0.4229821440016294  0.7776656044919437  0.5760653091879674  1.0000
  H   H13       1.0  0.5358016687481992  0.7710244908995918  0.6015771777895011  1.0000
  H   H14       1.0  0.6415295641104989  0.3076363399658462  0.4535464733812659  1.0000
  H   H15       1.0  0.6429828266085593  0.20819893380172524  0.4015528547586625  1.0000
  H   H16       1.0  0.6708074235658401  0.3170424552734231  0.34673054124598923  1.0000
  H   H17       1.0  0.49342299677488194  0.2071184057018201  0.3086658461863365  1.0000
  H   H18       1.0  0.5003153133512157  0.303784887177244  0.3646804773329676  1.0000
  H   H19       1.0  0.7653055987487105  0.7004330996680466  0.30217273715059884  1.0000
  H   H20       1.0  0.3297054434019984  0.3268579873888626  0.6564791135392198  1.0000
  H   H21       1.0  0.14610362742333652  0.007999888280579605  0.7002051828665612  1.0000
  H   H22       1.0  0.7356468506761544  0.9558311093099408  0.15400728567204414  1.0000
  H   H23       1.0  0.27756380572572675  0.4112837095786047  0.834194775752479  1.0000
  H   H24       1.0  0.2168862848792941  0.40217943640858794  0.928924541731007  1.0000
  H   H25       1.0  0.1998269737819172  0.47283847641282517  0.8470353829758108  1.0000
  H   H26       1.0  0.3225322087535216  0.5787610891536871  0.9528546690792367  1.0000
  H   H27       1.0  0.38297897427560923  0.5860695836437347  0.8586329420100325  1.0000
  H   H28       1.0  0.529746796723991  0.3229127403925602  0.17152222469112385  1.0000
  H   H29       1.0  0.5509997311272059  0.27556058357344443  0.07865757792042417  1.0000
  H   H30       1.0  0.6429777341752185  0.3094180359021196  0.1615600825423229  1.0000
  H   H31       1.0  0.696992132330102  0.43405665162270424  0.049266824065455184  1.0000
  H   H32       1.0  0.6749711955078722  0.4802449935030496  0.14198889332162418  1.0000
  H   H33       1.0  0.18666549854360429  0.4247595003819243  0.7070340152330201  1.0000
  H   H34       1.0  0.7987844127079525  0.5249531498094484  0.28988220902460426  1.0000
  C   C1        1.0  0.49171762443899786  0.493830771454647  0.6611272746183445  1.0000
  C   C2        1.0  0.5188390444847713  0.5098656941690864  0.3395832530546983  1.0000
  C   C3        1.0  0.4365363081529523  0.3218565827704225  0.48920022160435644  1.0000
  C   C4        1.0  0.5753270563335632  0.6853948503512229  0.49150857125251685  1.0000
  C   C5        1.0  0.3963934658587006  0.21490344655966712  0.4851344741085341  1.0000
  C   C6        1.0  0.5950590393069531  0.7818578661002036  0.4553682348649985  1.0000
  C   C7        1.0  0.2810930203570123  0.0629365415267884  0.5402039935633594  1.0000
  C   C8        1.0  0.6564489049692526  0.890079589011961  0.3375907584443354  1.0000
  C   C9        1.0  0.3173868751317315  0.161430192462511  0.5380682129529717  1.0000
  C   C10       1.0  0.6597760660584696  0.8168210340486085  0.38792772887777005  1.0000
  C   C11       1.0  0.43821938485286427  0.1726522972605125  0.4320479239992352  1.0000
  C   C12       1.0  0.5366552876463117  0.8280539520841614  0.4799170565937273  1.0000
  C   C13       1.0  0.4098014796993041  0.07215738393963991  0.43994600266185546  1.0000
  C   C14       1.0  0.5249439418701626  0.8958372640213811  0.42461614380058416  1.0000
  C   C15       1.0  0.3290287104090268  0.017808840905388507  0.49402168147646097  1.0000
  C   C16       1.0  0.5879757063658104  0.9299309690411094  0.3547931432441658  1.0000
  C   C17       1.0  0.46428105990864305  0.022875839853625703  0.40407869245447603  1.0000
  C   C18       1.0  0.45209033600087867  0.9336715240999781  0.43834260253304785  1.0000
  C   C19       1.0  0.36257281786423323  0.8789988595540024  0.48089657448748807  1.0000
  C   C20       1.0  0.5297189928172514  0.055308156528113314  0.3356383690564541  1.0000
  C   C21       1.0  0.30085270753748716  0.9182387052104986  0.5048496483767266  1.0000
  C   C22       1.0  0.5838625126697466  0.008451703650969507  0.3094842635668087  1.0000
  C   C23       1.0  0.4314442236999908  0.5142402901980105  0.043181297506059486  1.0000
  C   C24       1.0  0.5573778389662252  0.4580220079282712  0.9583594427235977  1.0000
  C   C25       1.0  0.5013092393000135  0.48910196684019525  0.08760622202066057  1.0000
  C   C26       1.0  0.4884783143084873  0.48451753157888083  0.9138950283663971  1.0000
  C   C27       1.0  0.5649472739983067  0.4591507050835305  0.044658948975040885  1.0000
  C   C28       1.0  0.4230964648255409  0.5122107015729896  0.9569409429704052  1.0000
  C   C29       1.0  0.5085681136189351  0.49622224525459296  0.1750872188775503  1.0000
  C   C30       1.0  0.4875052036341287  0.48590160581687775  0.8260902152449816  1.0000
  C   C31       1.0  0.4889740873162864  0.4891944364037287  0.7505082409606698  1.0000
  C   C32       1.0  0.515019205164215  0.5039530369673599  0.2503886315514947  1.0000
  C   C33       1.0  0.041519129883155925  0.4701822687252602  0.5755613877152539  1.0000
  C   C34       1.0  0.9595388166441051  0.5126899186737931  0.42578106664913656  1.0000
  C   C35       1.0  0.09420481143381916  0.489042007092138  0.5009991841727768  1.0000
  C   C36       1.0  0.9084168723384566  0.49702047621218537  0.5009691552216182  1.0000
  C   C37       1.0  0.05288326030046154  0.5098329269152303  0.42733094482895234  1.0000
  C   C38       1.0  0.9493242362486781  0.4754283124537937  0.5744024353969193  1.0000
  C   C39       1.0  0.19042770421167182  0.48915094335649933  0.4953184399916423  1.0000
  C   C40       1.0  0.8163166671798338  0.5050040153174252  0.5077541834592835  1.0000
  C   C41       1.0  0.5045570487476779  0.8159234264948481  0.5696846511563791  1.0000
  C   C42       1.0  0.5450326560864625  0.9117636531748448  0.6153940707304668  1.0000
  C   C43       1.0  0.5123173077949731  0.23879141785820934  0.3708509573512372  1.0000
  C   C44       1.0  0.6237875118037765  0.2690159162437952  0.3946334106107726  1.0000
  C   C45       1.0  0.737006965370405  0.7791364270919703  0.3734052499160895  1.0000
  C   C46       1.0  0.2746990326037916  0.2155037323518414  0.5879220455322736  1.0000
  C   C47       1.0  0.19661193830169307  0.0055082357564302  0.595019637253152  1.0000
  C   C48       1.0  0.7264403974439446  0.9229495175314357  0.267286092138569  1.0000
  C   C49       1.0  0.347051768755854  0.5385034819791201  0.910988849427234  1.0000
  C   C50       1.0  0.2548579283648138  0.4510807459397698  0.8780952077068702  1.0000
  C   C51       1.0  0.6380028293523664  0.42937507789017104  0.09121326408199337  1.0000
  C   C52       1.0  0.5873337433258783  0.32830005086000824  0.1279253242792677  1.0000
  C   C53       1.0  0.07714605974506128  0.444986173032774  0.6574738515809597  1.0000
  C   C54       1.0  0.9201746624935224  0.5309347311428568  0.342896378931826  1.0000
  N   N1        1.0  0.743038824756894  0.5127697921005849  0.5196860471333622  1.0000
  N   N2        1.0  0.26913082958650847  0.49250897286868434  0.4839134237245162  1.0000
  O   O1        1.0  0.4066504763849608  0.4691663033392219  0.6217370419489896  1.0000
  O   O2        1.0  0.5893764477080621  0.49625702433322527  0.3781468632176014  1.0000
  O   O3        1.0  0.5773042024625922  0.5213240318528207  0.6298266021000885  1.0000
  O   O4        1.0  0.45075550679158727  0.5270272024271279  0.37168949249682726  1.0000
  O   O5        1.0  0.3749741296962483  0.3575237596550522  0.4697247569573263  1.0000
  O   O6        1.0  0.6418423377315535  0.6541304157285384  0.4867051557498456  1.0000
  O   O7        1.0  0.5275456850917948  0.36723324402085217  0.5140692817954644  1.0000
  O   O8        1.0  0.4867429563349289  0.6371966557416542  0.5176240584894456  1.0000
  O   O9        1.0  0.8153295729387295  0.8019574997355577  0.4137171765272498  1.0000
  O   O10       1.0  0.7097426627884359  0.7187094205417496  0.30741110083225454  1.0000
  O   O11       1.0  0.1902471140226112  0.21126494753269756  0.578508892453513  1.0000
  O   O12       1.0  0.34623084731624937  0.27396050697283414  0.6420574594580372  1.0000
  O   O13       1.0  0.12540820342414344  0.9301633279620916  0.5769551820552508  1.0000
  O   O14       1.0  0.20769969204908287  0.046610983255938314  0.6709995122706047  1.0000
  O   O15       1.0  0.8136480858407396  0.9334244377925603  0.27073342645152104  1.0000
  O   O16       1.0  0.6827212034159017  0.937275936620445  0.1946766399467919  1.0000
  O   O17       1.0  0.02926622002353699  0.43003051907638234  0.7203126243090876  1.0000
  O   O18       1.0  0.1665760565289176  0.44149522741666664  0.6523446819579348  1.0000
  O   O19       1.0  0.9705294761167238  0.555150826467724  0.2813042769613929  1.0000
  O   O20       1.0  0.8225450989057564  0.514708705166278  0.34534186595529787  1.0000
