data_image0
_chemical_formula_structural       La4H12C4S4O28
_chemical_formula_sum              "La4 H12 C4 S4 O28"
_cell_length_a       7.0261156823555995
_cell_length_b       7.028308162814776
_cell_length_c       11.746893156396549
_cell_angle_alpha    90.00093317121808
_cell_angle_beta     89.99990623832937
_cell_angle_gamma    90.04442015535099

_space_group_name_H-M_alt    "P 1"
_space_group_IT_number       1

loop_
  _space_group_symop_operation_xyz
  'x, y, z'

loop_
  _atom_site_type_symbol
  _atom_site_label
  _atom_site_symmetry_multiplicity
  _atom_site_fract_x
  _atom_site_fract_y
  _atom_site_fract_z
  _atom_site_occupancy
  La  La1       1.0  0.3537334042786426  0.10762887828453668  0.15629018126449515  1.0000
  La  La2       1.0  0.6462737776702666  0.8923718682297661  0.6563052006152501  1.0000
  La  La3       1.0  0.892826253961836  0.35394890891406305  0.40644831579223945  1.0000
  La  La4       1.0  0.1071859574706622  0.6460643691143134  0.906455524046272  1.0000
  H   H1        1.0  0.8350107425330864  0.004659165237839601  0.11251361138476307  1.0000
  H   H2        1.0  0.1650065143604706  0.9953290057971601  0.6125173407248637  1.0000
  H   H3        1.0  0.9958862821070439  0.8354384455730963  0.3624006551390621  1.0000
  H   H4        1.0  0.004137433778410599  0.16457647818990753  0.8623888223546385  1.0000
  H   H5        1.0  0.5870100637133859  0.19058193680675836  0.9264234616308397  1.0000
  H   H6        1.0  0.4129864309696601  0.8094119615866547  0.4264203004285533  1.0000
  H   H7        1.0  0.8104633087015926  0.5876059399659894  0.17658019959645083  1.0000
  H   H8        1.0  0.18954523978512586  0.4123882472958869  0.6765697351588285  1.0000
  H   H9        1.0  0.5239076004010671  0.3834894361344182  0.9804710600386454  1.0000
  H   H10       1.0  0.47610155923510433  0.6165045218916491  0.4804736256492743  1.0000
  H   H11       1.0  0.6174045430531123  0.5242207134243557  0.23045125390213872  1.0000
  H   H12       1.0  0.38258678400831775  0.47577778555420747  0.7304497247706646  1.0000
  C   C1        1.0  0.8431646941916425  0.08960988182521847  0.19112884873918284  1.0000
  C   C2        1.0  0.156850930757507  0.9103818604922864  0.6911360183881922  1.0000
  C   C3        1.0  0.9110301328411412  0.8433928978950718  0.4410368475694212  1.0000
  C   C4        1.0  0.0889720248216719  0.15662416723591122  0.9410325145467693  1.0000
  S   S1        1.0  0.6168020548192743  0.7459311569740025  0.9679264759872407  1.0000
  S   S2        1.0  0.38318436438479603  0.25405818060406915  0.4679102942533147  1.0000
  S   S3        1.0  0.2545457873640586  0.6169343688486323  0.21806563095411483  1.0000
  S   S4        1.0  0.7454669248727795  0.3830723369996535  0.7180824197916065  1.0000
  O   O1        1.0  0.6769455190913333  0.8575475266101051  0.8669930652864932  1.0000
  O   O2        1.0  0.32302695262352904  0.14248173138226153  0.36700906100548986  1.0000
  O   O3        1.0  0.1421370226789094  0.6764699007620935  0.11735168621389386  1.0000
  O   O4        1.0  0.8578517533552343  0.3235112772879702  0.6173473541519383  1.0000
  O   O5        1.0  0.46625332630743094  0.605285152175071  0.9348856431443762  1.0000
  O   O6        1.0  0.5337402993177919  0.39470897656038784  0.4348919581343153  1.0000
  O   O7        1.0  0.39510583597513  0.46666345805763854  0.18488158963057794  1.0000
  O   O8        1.0  0.6048856167817576  0.5333451777738888  0.6848778433411691  1.0000
  O   O9        1.0  0.5377177892944333  0.8730893499654898  0.05590470586137288  1.0000
  O   O10       1.0  0.4622725740775309  0.12689157191443456  0.555909927465592  1.0000
  O   O11       1.0  0.1280568066026859  0.5378689396071153  0.30652018838774336  1.0000
  O   O12       1.0  0.8719286177995967  0.4621131397963225  0.8065112281264957  1.0000
  O   O13       1.0  0.7864078481187348  0.6471108655578207  0.014908816146800095  1.0000
  O   O14       1.0  0.21358121597554458  0.35290735135607315  0.5149241404016535  1.0000
  O   O15       1.0  0.3535951560509574  0.7868450255058264  0.2646557459387181  1.0000
  O   O16       1.0  0.6463832733661475  0.21316151770967912  0.7646633233611834  1.0000
  O   O17       1.0  0.6913318485809938  0.13199865289635676  0.24356937897046285  1.0000
  O   O18       1.0  0.30866656207949467  0.8680058987298549  0.7435700268515714  1.0000
  O   O19       1.0  0.8687985578357241  0.6915825213383255  0.49354363276811586  1.0000
  O   O20       1.0  0.1312233785963528  0.3084174900066827  0.9935271099286208  1.0000
  O   O21       1.0  0.0064007462394287005  0.1411989026422873  0.22781410999596818  1.0000
  O   O22       1.0  0.9935934360111176  0.8588037938836736  0.7278182415636391  1.0000
  O   O23       1.0  0.8594967941437942  0.0065859175917566  0.4777769971424845  1.0000
  O   O24       1.0  0.14051095382553308  0.9934193486470306  0.9777696655528698  1.0000
  O   O25       1.0  0.549929330967565  0.24830222862730983  0.9993468717181953  1.0000
  O   O26       1.0  0.45008404324779144  0.7516794417339269  0.49935418013266986  1.0000
  O   O27       1.0  0.7525718546326133  0.5503934622826635  0.24946570278060412  1.0000
  O   O28       1.0  0.2474236916200425  0.44960555799853097  0.7494555416828131  1.0000
