data_image0
_chemical_formula_structural       Y2H30C30N2O16
_chemical_formula_sum              "Y2 H30 C30 N2 O16"
_cell_length_a       8.580796730266181
_cell_length_b       10.218526618403553
_cell_length_c       10.919620517604251
_cell_angle_alpha    64.23300831252459
_cell_angle_beta     71.07138146261765
_cell_angle_gamma    79.90852507653814

_space_group_name_H-M_alt    "P 1"
_space_group_IT_number       1

loop_
  _space_group_symop_operation_xyz
  'x, y, z'

loop_
  _atom_site_type_symbol
  _atom_site_label
  _atom_site_symmetry_multiplicity
  _atom_site_fract_x
  _atom_site_fract_y
  _atom_site_fract_z
  _atom_site_occupancy
  Y   Y1        1.0  0.637639267225218  0.9412888307045575  0.651786403494903  1.0000
  Y   Y2        1.0  0.3623595717721243  0.0587045519964562  0.34821842685883553  1.0000
  H   H1        1.0  0.4399222383453959  0.2574301861057435  0.7009434532201554  1.0000
  H   H2        1.0  0.5600731280222745  0.7425598937306715  0.29906263293803914  1.0000
  H   H3        1.0  0.49723024713119907  0.5343178506801181  0.26135305604764625  1.0000
  H   H4        1.0  0.5027677864414387  0.4656689896038557  0.7386545577982631  1.0000
  H   H5        1.0  0.05212773672069909  0.8308908443894578  0.8818059262945256  1.0000
  H   H6        1.0  0.9478676996433462  0.16911783001980035  0.11818730814978567  1.0000
  H   H7        1.0  0.23449081230623386  0.12992847062021434  0.9782675352320499  1.0000
  H   H8        1.0  0.7655046017102193  0.8700801576845475  0.02172847067808466  1.0000
  H   H9        1.0  0.7066387895755426  0.567559939791181  0.08875487376095487  1.0000
  H   H10       1.0  0.29337799483106847  0.43244128982604463  0.9112451210467044  1.0000
  H   H11       1.0  0.1508696094713713  0.634256925650348  0.7464439640945528  1.0000
  H   H12       1.0  0.8491486633379706  0.3657411531819007  0.2535514067993746  1.0000
  H   H13       1.0  0.6408755617665064  0.16174477437215976  0.831459795111151  1.0000
  H   H14       1.0  0.3591212101388024  0.8382616674701848  0.168538566070744  1.0000
  H   H15       1.0  0.7035055201644765  0.32160858595148767  0.8892267744446799  1.0000
  H   H16       1.0  0.2964913450087323  0.6783968147274705  0.110769226661411  1.0000
  H   H17       1.0  0.7987159075169428  0.4722529872426262  0.7338642516277222  1.0000
  H   H18       1.0  0.20127841739354577  0.5277534477166482  0.26613289221454295  1.0000
  H   H19       1.0  0.9169171308450714  0.3490507899009145  0.8494759801342158  1.0000
  H   H20       1.0  0.08307966340782261  0.6509556980459265  0.1505196095818704  1.0000
  H   H21       1.0  0.040067410993799485  0.20102955446923687  0.577267965806506  1.0000
  H   H22       1.0  0.959933147019228  0.7989759026388156  0.422727089843214  1.0000
  H   H23       1.0  0.11582681466754957  0.27998173317017455  0.6641848777002295  1.0000
  H   H24       1.0  0.8841737060995031  0.7200236470970365  0.33581479705918593  1.0000
  H   H25       1.0  0.020402970670765807  0.39267044851286653  0.5278037671281625  1.0000
  H   H26       1.0  0.9795975351978964  0.6073349010180066  0.4721977552751258  1.0000
  H   H27       1.0  0.762405065593775  0.08037230456285019  0.34440422554037303  1.0000
  H   H28       1.0  0.23758816276154704  0.9196319216827787  0.655594980055973  1.0000
  H   H29       1.0  0.9165359490505479  0.09664522959616309  0.38944026438067436  1.0000
  H   H30       1.0  0.08345887230216681  0.9033535944878747  0.6105597591916452  1.0000
  C   C1        1.0  0.43272761405739146  0.2614540466375034  0.451581917528337  1.0000
  C   C2        1.0  0.5672702851238042  0.7385349835504155  0.5484239497156198  1.0000
  C   C3        1.0  0.4669762957816274  0.3837924004508722  0.47797689221943074  1.0000
  C   C4        1.0  0.5330218870808424  0.6161922806654868  0.522030620584559  1.0000
  C   C5        1.0  0.4670597455000873  0.36367322333160246  0.6133277180973665  1.0000
  C   C6        1.0  0.5329335621486918  0.6363102491735687  0.3866842381709361  1.0000
  C   C7        1.0  0.4991081934319083  0.5206826400844731  0.3654399446848587  1.0000
  C   C8        1.0  0.5008895302343176  0.4793097287479568  0.634560069279381  1.0000
  C   C9        1.0  0.32792005811943875  0.9556165953061322  0.8363360867544788  1.0000
  C   C10       1.0  0.6720771169601889  0.0443832768243624  0.163667514233282  1.0000
  C   C11       1.0  0.1586397510243174  0.9791085065872308  0.9205112712835658  1.0000
  C   C12       1.0  0.8413522052608611  0.02089684958925629  0.07948414278713761  1.0000
  C   C13       1.0  0.027239095109514687  0.9053771015109858  0.9333888585377822  1.0000
  C   C14       1.0  0.9727594294858264  0.09464025062965929  0.0666047584397944  1.0000
  C   C15       1.0  0.13106550506132214  0.07439445906425847  0.9874664449606245  1.0000
  C   C16       1.0  0.8689264437746614  0.9256108817440704  0.012529892932022314  1.0000
  C   C17       1.0  0.8299918983358764  0.7350054598968397  0.8164678090138652  1.0000
  C   C18       1.0  0.1700241029936151  0.26498927340784206  0.18353219782014218  1.0000
  C   C19       1.0  0.9193790682248346  0.6129197258479592  0.9091498396445846  1.0000
  C   C20       1.0  0.08063793639192342  0.38707825733376205  0.09085046551115282  1.0000
  C   C21       1.0  0.8353404209853252  0.5366062472961914  0.05179987679763799  1.0000
  C   C22       1.0  0.16466896641489367  0.4633960796760732  0.9481942069572399  1.0000
  C   C23       1.0  0.08529823567235442  0.5753454543334937  0.857343938961286  1.0000
  C   C24       1.0  0.9147175454469901  0.42465252540669235  0.14265575752463625  1.0000
  C   C25       1.0  0.7548955504810947  0.17256934555001635  0.7445127919732643  1.0000
  C   C26       1.0  0.24510369821581432  0.82743716464806  0.2554830912605156  1.0000
  C   C27       1.0  0.8174930383810732  0.35777097577420136  0.803241729888768  1.0000
  C   C28       1.0  0.18250136489892546  0.6422343872853559  0.1967549015215654  1.0000
  C   C29       1.0  0.018341751930058985  0.28614219742375724  0.6168522658080704  1.0000
  C   C30       1.0  0.9816564562336153  0.7138609860564386  0.3831479382136679  1.0000
  N   N1        1.0  0.8598615800113691  0.26680213959450316  0.7240588128114498  1.0000
  N   N2        1.0  0.14013773960586204  0.7332032833356762  0.2759374818123349  1.0000
  O   O1        1.0  0.4746788358566362  0.1303530248174312  0.5238985868474231  1.0000
  O   O2        1.0  0.5253031393881997  0.8696346889446857  0.47611086494219984  1.0000
  O   O3        1.0  0.3617938529501786  0.2899786820729133  0.35683864463069176  1.0000
  O   O4        1.0  0.6382072351794149  0.7100180000511641  0.6431643212487831  1.0000
  O   O5        1.0  0.35129172891448224  0.8735438672248178  0.7691309461784571  1.0000
  O   O6        1.0  0.6487069533438259  0.126451659275638  0.2308749090391515  1.0000
  O   O7        1.0  0.44805204460060827  0.0180640828738063  0.8294988887738128  1.0000
  O   O8        1.0  0.5519477902347986  0.9819325343360814  0.17050716372359903  1.0000
  O   O9        1.0  0.903625199903864  0.8086654908325241  0.6857671631533936  1.0000
  O   O10       1.0  0.09638853351741969  0.19132713789414876  0.31422783001130483  1.0000
  O   O11       1.0  0.6794981816955995  0.7648137992871892  0.8696741617175621  1.0000
  O   O12       1.0  0.3205139775042483  0.23518303675601257  0.13032689161474312  1.0000
  O   O13       1.0  0.7816427005253528  0.09943042375311247  0.6716848932928557  1.0000
  O   O14       1.0  0.21835564947895134  0.9005705851913102  0.3283161335088994  1.0000
  O   O15       1.0  0.8156954437318406  0.041164939022181095  0.4229949347923851  1.0000
  O   O16       1.0  0.18429508017253232  0.9588424499350621  0.5770073622259418  1.0000
