data_image0
_chemical_formula_structural       Al2H16C28N2Cl2O12
_chemical_formula_sum              "Al2 H16 C28 N2 Cl2 O12"
_cell_length_a       6.6337563253676635
_cell_length_b       15.243334297690968
_cell_length_c       17.033613953398426
_cell_angle_alpha    86.25732963348375
_cell_angle_beta     81.41845790244614
_cell_angle_gamma    77.73108676119233

_space_group_name_H-M_alt    "P 1"
_space_group_IT_number       1

loop_
  _space_group_symop_operation_xyz
  'x, y, z'

loop_
  _atom_site_type_symbol
  _atom_site_label
  _atom_site_symmetry_multiplicity
  _atom_site_fract_x
  _atom_site_fract_y
  _atom_site_fract_z
  _atom_site_occupancy
  Al  Al1       1.0  0.4999993932806531  0.5000019642313018  0.49999748432154695  1.0000
  Al  Al2       1.0  6.1029591619891645e-06  0.4999984662911173  0.4999951478755591  1.0000
  H   H1        1.0  0.20321693397269758  0.6117123061661331  0.4713838866447873  1.0000
  H   H2        1.0  0.7967617867604558  0.3882863111642081  0.5286001351957665  1.0000
  H   H3        1.0  0.8317808284383045  0.5290053688122569  0.7413538209359345  1.0000
  H   H4        1.0  0.7751527998051271  0.5336601111095548  0.8896750496357272  1.0000
  H   H5        1.0  0.43976245638036454  0.46058412717215447  0.8904086681374963  1.0000
  H   H6        1.0  0.5602123611653977  0.5394345273131905  0.10958981555881311  1.0000
  H   H7        1.0  0.224829007491728  0.4663351115184397  0.11031367062295769  1.0000
  H   H8        1.0  0.168213221517469  0.47098648412271166  0.2586379147489311  1.0000
  H   H9        1.0  0.2111089547457183  0.059640497399208  0.43274130180606113  1.0000
  H   H10       1.0  0.789222138042625  0.9403376419362174  0.5670880219687364  1.0000
  H   H11       1.0  0.3347935132042322  0.7667290000754079  0.4682555102316997  1.0000
  H   H12       1.0  0.2551012956811293  0.9304838095656932  0.4520810917623947  1.0000
  H   H13       1.0  0.6650048209388831  0.2332774716064563  0.5318913448273221  1.0000
  H   H14       1.0  0.7445995178039836  0.06953016669676508  0.5481195166554045  1.0000
  H   H15       1.0  0.5322183880087651  0.458637329218547  0.6795725357056455  1.0000
  H   H16       1.0  0.4677796207817763  0.5413807015893752  0.3204235200415796  1.0000
  C   C1        1.0  0.6582455620306928  0.659486447808966  0.5202188310571219  1.0000
  C   C2        1.0  0.8092033436217394  0.508505605891841  0.355098555050624  1.0000
  C   C3        1.0  0.3417676948086097  0.34050339172262767  0.4797754650467994  1.0000
  C   C4        1.0  0.19079300002495364  0.4915003689713798  0.6448923351830375  1.0000
  C   C5        1.0  0.16570167873966574  0.49412038860240404  0.7318981293903022  1.0000
  C   C6        1.0  0.9632184032340093  0.5153098364438335  0.7747837677945597  1.0000
  C   C7        1.0  0.9308660602870305  0.5171808923890353  0.8565540085371097  1.0000
  C   C8        1.0  0.1050791495711394  0.49646420503485433  0.8980851255826823  1.0000
  C   C9        1.0  0.30723930875734595  0.4761751704769707  0.8573364245408898  1.0000
  C   C10       1.0  0.3404286881688065  0.47496743812644837  0.7741251410087174  1.0000
  C   C11       1.0  0.6927353795467325  0.5238374235773122  0.1426635487917736  1.0000
  C   C12       1.0  0.8948913807117477  0.5035383505557648  0.10190913069044431  1.0000
  C   C13       1.0  0.06911115819509213  0.4828237201517139  0.1434362497663741  1.0000
  C   C14       1.0  0.036766082919477555  0.48468603894856704  0.2252077062943343  1.0000
  C   C15       1.0  0.8342748294764278  0.505885533680633  0.2680962113890716  1.0000
  C   C16       1.0  0.6595592056564713  0.5250431852973846  0.225871265073863  1.0000
  C   C17       1.0  0.390715180446918  0.2405981763431768  0.47737912271552574  1.0000
  C   C18       1.0  0.6093092886842867  0.7593996870358238  0.5226217761190668  1.0000
  C   C19       1.0  0.2658995005392555  0.18921495398598856  0.44880633291919747  1.0000
  C   C20       1.0  0.31132119097019734  0.09578436148092347  0.45690912636214887  1.0000
  C   C21       1.0  0.7342402577167276  0.810776860971906  0.5511297728371004  1.0000
  C   C22       1.0  0.6888651912617973  0.9042063459000714  0.5430050769892887  1.0000
  C   C23       1.0  0.4347185237902379  0.8059090845565607  0.48900290697977067  1.0000
  C   C24       1.0  0.39086468547922254  0.8988192733395903  0.480018321390709  1.0000
  C   C25       1.0  0.5651721441748947  0.19409466154663593  0.511080258370832  1.0000
  C   C26       1.0  0.6089669116652273  0.10118284622311079  0.520090510870105  1.0000
  C   C27       1.0  0.48008854142477725  0.04959963529125129  0.49440679331183895  1.0000
  C   C28       1.0  0.5199114226299103  0.9503981099836949  0.5056048634807695  1.0000
  N   N1        1.0  0.09210476524013698  0.49429882856880875  0.9818187704926943  1.0000
  N   N2        1.0  0.9078771022414428  0.5057118231681627  0.018173271352488016  1.0000
  Cl  Cl1       1.0  0.05711533916686312  0.23787674338761625  0.3997987350450742  1.0000
  Cl  Cl2       1.0  0.9431706214720421  0.7621178821760209  0.6000621940756049  1.0000
  O   O1        1.0  0.505221806824963  0.6198008177192447  0.5278308332629751  1.0000
  O   O2        1.0  0.9701065213840181  0.4973086871293617  0.3897353867596536  1.0000
  O   O3        1.0  0.15106631315460822  0.3788295894906282  0.49369145070527054  1.0000
  O   O4        1.0  0.3801333278464725  0.47630476193655363  0.6076081619253274  1.0000
  O   O5        1.0  0.4947712278658115  0.3801990144708896  0.47217112069984785  1.0000
  O   O6        1.0  0.029895215724415867  0.5026892053050318  0.6102585511538905  1.0000
  O   O7        1.0  0.8489538052012121  0.6211589842844774  0.5062943100015289  1.0000
  O   O8        1.0  0.6198688145290205  0.523698490268444  0.39238782931438015  1.0000
  O   O9        1.0  0.239676768410277  0.5466450824222804  0.46937015576141766  1.0000
  O   O10       1.0  0.7603256055723335  0.45335488081560266  0.5306171833767978  1.0000
  O   O11       1.0  0.5392623394411656  0.45462065415515696  0.7379641053540312  1.0000
  O   O12       1.0  0.4607381289182371  0.5453953398920105  0.2620348531814685  1.0000
