data_image0
_chemical_formula_structural       Cu4H32C24N8Cl4
_chemical_formula_sum              "Cu4 H32 C24 N8 Cl4"
_cell_length_a       6.563873180051061
_cell_length_b       11.126121216962769
_cell_length_c       11.320984136266656
_cell_angle_alpha    70.58412122240952
_cell_angle_beta     72.97491218576849
_cell_angle_gamma    72.82677562579104

_space_group_name_H-M_alt    "P 1"
_space_group_IT_number       1

loop_
  _space_group_symop_operation_xyz
  'x, y, z'

loop_
  _atom_site_type_symbol
  _atom_site_label
  _atom_site_symmetry_multiplicity
  _atom_site_fract_x
  _atom_site_fract_y
  _atom_site_fract_z
  _atom_site_occupancy
  Cu  Cu1       1.0  0.9273242143608088  0.4180035149769807  0.9213583171577895  1.0000
  Cu  Cu2       1.0  0.26657146382318336  0.08239877473673829  0.5786802062992749  1.0000
  Cu  Cu3       1.0  0.07266730129986591  0.5820047872949701  0.07864593851445532  1.0000
  Cu  Cu4       1.0  0.7334584429556795  0.9175861743767726  0.4213085161974136  1.0000
  H   H1        1.0  0.4795229938745394  0.7898514900363053  0.6504002072215513  1.0000
  H   H2        1.0  0.9181213216418123  0.7106789732614375  0.851074088308934  1.0000
  H   H3        1.0  0.5204803518443412  0.21015396015127405  0.34958461962273907  1.0000
  H   H4        1.0  0.0818417442630802  0.28933224351811754  0.14893128068907663  1.0000
  H   H5        1.0  0.5466328361712907  0.5985166859129974  0.8429854221923564  1.0000
  H   H6        1.0  0.9853638842620565  0.9027417402332744  0.6587416216530857  1.0000
  H   H7        1.0  0.45336946739368505  0.4014984955660879  0.15700697379248402  1.0000
  H   H8        1.0  0.014610092742991361  0.0972675462176724  0.34125887406035815  1.0000
  H   H9        1.0  0.2177898536754268  0.36137372560880715  0.7159489040233566  1.0000
  H   H10       1.0  0.29893781602029884  0.13801279209233291  0.7832304936969477  1.0000
  H   H11       1.0  0.7822066959448856  0.6386101467066184  0.28406410787850694  1.0000
  H   H12       1.0  0.7011105987609977  0.8619702747549881  0.2167410473706539  1.0000
  H   H13       1.0  0.36075839203812887  0.4875731009838232  0.664740053469913  1.0000
  H   H14       1.0  0.5148523162030048  0.0111458771238873  0.8356980845169629  1.0000
  H   H15       1.0  0.6392455268948253  0.5124156158170334  0.33528315011113824  1.0000
  H   H16       1.0  0.4851540121796135  0.9888340686419422  0.16432191176097197  1.0000
  H   H17       1.0  0.30504685206398097  0.43394232169823255  0.5479702468557618  1.0000
  H   H18       1.0  0.2873608792296168  0.0661461582534457  0.9514764974301001  1.0000
  H   H19       1.0  0.6949792239644313  0.5660464487496808  0.45204042148866835  1.0000
  H   H20       1.0  0.7126089637165122  0.9338758815446725  0.04850587432467541  1.0000
  H   H21       1.0  0.10365086700887367  0.7723272685762765  0.35324718791321164  1.0000
  H   H22       1.0  0.23273403000368373  0.7264929303888507  0.14563700545404154  1.0000
  H   H23       1.0  0.8963844524271986  0.2276722409138897  0.6467633728855803  1.0000
  H   H24       1.0  0.7672242015608151  0.27352903938273  0.8543632514269959  1.0000
  H   H25       1.0  0.22864750243175527  0.6018100400369306  0.38170018789013943  1.0000
  H   H26       1.0  0.21171586422119731  0.8973455498608873  0.1182535916337386  1.0000
  H   H27       1.0  0.7713671828273901  0.3981895099123349  0.618297634388199  1.0000
  H   H28       1.0  0.7882856508141386  0.1026696753893575  0.8817269172222311  1.0000
  H   H29       1.0  0.30551261225650694  0.7036502889975862  0.4458809977377315  1.0000
  H   H30       1.0  0.45656586457287307  0.7976578673741911  0.05244383943178842  1.0000
  H   H31       1.0  0.6945158939594189  0.2963306594056477  0.5541337484423324  1.0000
  H   H32       1.0  0.543416387782564  0.20233384393353754  0.9475594751238888  1.0000
  C   C1        1.0  0.027067720438040628  0.5503482169081264  0.646727782289787  1.0000
  C   C2        1.0  0.2247527530233101  0.949708220379456  0.8532209798785431  1.0000
  C   C3        1.0  0.9729320176635167  0.4496571953468872  0.35326696863954515  1.0000
  C   C4        1.0  0.7752346355557406  0.050297189288755796  0.14677338320367286  1.0000
  C   C5        1.0  0.991197615679837  0.6596695894541184  0.5414327523345152  1.0000
  C   C6        1.0  0.1931595958063779  0.8400605539174961  0.9584158551845973  1.0000
  C   C7        1.0  0.008837088811205216  0.3403211779400408  0.45856652189376484  1.0000
  C   C8        1.0  0.8068317828978876  0.1599399629489326  0.04158236031469197  1.0000
  C   C9        1.0  0.6371633181576752  0.721610918160735  0.6518847828726209  1.0000
  C   C10       1.0  0.009398463284590451  0.7789007927603463  0.849192843792025  1.0000
  C   C11       1.0  0.3628641279425153  0.2783876812508481  0.34810729629513304  1.0000
  C   C12       1.0  0.9905785165370344  0.2211124186928544  0.1508022095735272  1.0000
  C   C13       1.0  0.6736083184465111  0.6169711783501484  0.7564113818293237  1.0000
  C   C14       1.0  0.04522906942788296  0.8839296459058659  0.7447798251628724  1.0000
  C   C15       1.0  0.32639466188606286  0.38303618578655113  0.2435836681891673  1.0000
  C   C16       1.0  0.9547401001116566  0.11608059950816602  0.2552248384644429  1.0000
  C   C17       1.0  0.2393426938872949  0.4529858615923602  0.6424553425971523  1.0000
  C   C18       1.0  0.33654514889575876  0.04664264205757719  0.857199253297253  1.0000
  C   C19       1.0  0.7606528631276033  0.5470126686147693  0.3575526161242025  1.0000
  C   C20       1.0  0.6634611293533649  0.9533608575417175  0.14278546838144032  1.0000
  C   C21       1.0  0.16708586046451762  0.6848429477420978  0.4240810478009323  1.0000
  C   C22       1.0  0.27750413802056767  0.8148397475346627  0.07516797773949699  1.0000
  C   C23       1.0  0.8329335376196667  0.3151448528876414  0.5759273731446298  1.0000
  C   C24       1.0  0.7224783467720072  0.18516563660341487  0.924832846884591  1.0000
  N   N1        1.0  0.8704200768648459  0.5314697667862588  0.75630645821402  1.0000
  N   N2        1.0  0.15750506284474117  0.9691974062588852  0.7442475470733925  1.0000
  N   N3        1.0  0.12959222497926964  0.4685336631007074  0.24369761492173586  1.0000
  N   N4        1.0  0.8424905949476694  0.030801171285396802  0.255747639958969  1.0000
  N   N5        1.0  0.7959470273949946  0.746205986707764  0.5449760176987724  1.0000
  N   N6        1.0  0.08722332039487635  0.7536580745330496  0.9554641271017915  1.0000
  N   N7        1.0  0.2040637710372124  0.2537837945855728  0.45502388990314563  1.0000
  N   N8        1.0  0.9127450110665263  0.24634728805194328  0.04454127171770501  1.0000
  Cl  Cl1       1.0  0.27690089872300644  0.4425813888285717  0.9386892705367629  1.0000
  Cl  Cl2       1.0  0.6586281085400644  0.05765769799454999  0.5602889742863225  1.0000
  Cl  Cl3       1.0  0.7230833341926935  0.5574298306948862  0.06131721947376439  1.0000
  Cl  Cl4       1.0  0.34138661334728193  0.9423252806820345  0.4397034083773974  1.0000
