data_image0
_chemical_formula_structural       Zn4H32C32N4Cl8O8
_chemical_formula_sum              "Zn4 H32 C32 N4 Cl8 O8"
_cell_length_a       6.728765718740761
_cell_length_b       12.080910032154385
_cell_length_c       12.811760009000247
_cell_angle_alpha    89.9999999645693
_cell_angle_beta     89.9999775501609
_cell_angle_gamma    95.22981976222653

_space_group_name_H-M_alt    "P 1"
_space_group_IT_number       1

loop_
  _space_group_symop_operation_xyz
  'x, y, z'

loop_
  _atom_site_type_symbol
  _atom_site_label
  _atom_site_symmetry_multiplicity
  _atom_site_fract_x
  _atom_site_fract_y
  _atom_site_fract_z
  _atom_site_occupancy
  Zn  Zn1       1.0  0.9255091036327129  0.6536338373003544  0.49332166479851475  1.0000
  Zn  Zn2       1.0  0.5744922883153194  0.8463662642376376  0.9933224810579729  1.0000
  Zn  Zn3       1.0  0.07448992255245197  0.346366777146521  0.5066782312346021  1.0000
  Zn  Zn4       1.0  0.42550945914852883  0.15363269862297807  0.0066781955077531  1.0000
  H   H1        1.0  0.999413940676362  0.3342517567563376  0.8993821826463773  1.0000
  H   H2        1.0  0.5005861969370996  0.16574839021625107  0.3993830149385715  1.0000
  H   H3        1.0  0.000586446148581403  0.6657480318974294  0.10061693285371828  1.0000
  H   H4        1.0  0.49941418988725417  0.8342513984374875  0.6006176616272967  1.0000
  H   H5        1.0  0.18086652728647573  0.6778587597713465  0.9795008453100991  1.0000
  H   H6        1.0  0.3191324632034237  0.8221414816614755  0.4795008313815003  1.0000
  H   H7        1.0  0.8191324988986892  0.3221418546755217  0.020499050723017796  1.0000
  H   H8        1.0  0.6808679236209301  0.1778583069922561  0.5204998451843679  1.0000
  H   H9        1.0  0.4005534757007254  0.6859531635602991  0.8251863492212976  1.0000
  H   H10       1.0  0.09944711783727203  0.8140470892594963  0.3251863805321378  1.0000
  H   H11       1.0  0.599446911123927  0.3140466250934536  0.1748135468116772  1.0000
  H   H12       1.0  0.9005532689873801  0.18595269939425654  0.6748135155008441  1.0000
  H   H13       1.0  0.7351207664993707  0.5085470318017683  0.778107693348808  1.0000
  H   H14       1.0  0.7648794266424516  0.9914539038765463  0.2781076904855553  1.0000
  H   H15       1.0  0.26487838605560643  0.49145441384001737  0.2218922026842947  1.0000
  H   H16       1.0  0.23512096018220055  0.0085458847771989  0.7218922055474195  1.0000
  H   H17       1.0  0.5990994245381884  0.38144129138886734  0.745312837701789  1.0000
  H   H18       1.0  0.9009007025599656  0.11855803036446835  0.24531358759686128  1.0000
  H   H19       1.0  0.40090244929577057  0.6185585026666798  0.2546870583310366  1.0000
  H   H20       1.0  0.09909955789458276  0.8814409270943455  0.7546870889690211  1.0000
  H   H21       1.0  0.23498647563305744  0.35581126156832704  0.7494676517421794  1.0000
  H   H22       1.0  0.2650143368783305  0.14418904138116767  0.2494676490680519  1.0000
  H   H23       1.0  0.7650139111915948  0.6441885270854256  0.2505322442908025  1.0000
  H   H24       1.0  0.7349860499463147  0.855810747272585  0.75053224696493  1.0000
  H   H25       1.0  0.502624353329182  0.6169450495947258  0.6787474420736858  1.0000
  H   H26       1.0  0.9973757881580879  0.883055058742421  0.1787473914060485  1.0000
  H   H27       1.0  0.49737615986528266  0.38305557025394404  0.321252453959282  1.0000
  H   H28       1.0  0.0026231116572645965  0.11694472450952989  0.8212525046270827  1.0000
  H   H29       1.0  0.3791589568188625  0.49454534920539556  0.6255041846148899  1.0000
  H   H30       1.0  0.12084194890847749  0.005454958552085999  0.1255042117131566  1.0000
  H   H31       1.0  0.6208415563759004  0.5054552706432885  0.37449493088519864  1.0000
  H   H32       1.0  0.8791584379161747  0.9945448301016595  0.8744956843198254  1.0000
  C   C1        1.0  0.7753270543395344  0.45747324017922597  0.6217209009471176  1.0000
  C   C2        1.0  0.7246718050559833  0.04252691216083088  0.1217209066429845  1.0000
  C   C3        1.0  0.22467197184563045  0.5425273742676494  0.3782789950860064  1.0000
  C   C4        1.0  0.275325607749771  0.9574728656893043  0.8782797699231892  1.0000
  C   C5        1.0  0.06821353064908209  0.5043266691122169  0.9547080104073657  1.0000
  C   C6        1.0  0.43178696549313134  0.9956735786839984  0.4547087537073722  1.0000
  C   C7        1.0  0.9317853691665617  0.4956731141397553  0.045291105092879  1.0000
  C   C8        1.0  0.568212060691735  0.004327035762855798  0.5452919228586381  1.0000
  C   C9        1.0  0.08621100025835911  0.4135701895969746  0.8877273596011719  1.0000
  C   C10       1.0  0.4137897082868419  0.08643010799003287  0.38772732632956775  1.0000
  C   C11       1.0  0.9137895129361057  0.5864304302516955  0.1122725364317958  1.0000
  C   C12       1.0  0.5862108049076226  0.9135705118586372  0.6122725697033999  1.0000
  C   C13       1.0  0.1841937390808184  0.6038273600271536  0.9316651066089392  1.0000
  C   C14       1.0  0.31580664801899155  0.8961720574678649  0.4316658738519408  1.0000
  C   C15       1.0  0.815806647744125  0.39617242862660607  0.0683340088911564  1.0000
  C   C16       1.0  0.6841937388053694  0.10382773118586638  0.5683348027139203  1.0000
  C   C17       1.0  0.3093857941004713  0.6103573130635168  0.8460016096043574  1.0000
  C   C18       1.0  0.19061329677592204  0.8896429335471511  0.3460016220962956  1.0000
  C   C19       1.0  0.6906132320846934  0.3896433013833514  0.1539982864287666  1.0000
  C   C20       1.0  0.8093856030391321  0.11035684970478599  0.6539990544697218  1.0000
  C   C21       1.0  0.6430403739444941  0.4657851943127582  0.7164167252211158  1.0000
  C   C22       1.0  0.8569599012522743  0.03421495975624819  0.2164174842164783  1.0000
  C   C23       1.0  0.3569616262592773  0.5342154309377136  0.2835831708117027  1.0000
  C   C24       1.0  0.14303899856277974  0.9657848234956812  0.7835831923495391  1.0000
  C   C25       1.0  0.21495840210990017  0.4235240594119673  0.8037037618205786  1.0000
  C   C26       1.0  0.28504236961764917  0.07647624143393018  0.3037045355977526  1.0000
  C   C27       1.0  0.7850419847153418  0.5764757292418138  0.19629457314663057  1.0000
  C   C28       1.0  0.7149566565675156  0.9235243730129382  0.6962953604353643  1.0000
  C   C29       1.0  0.46177396850578833  0.5286863162162232  0.6936759182627767  1.0000
  C   C30       1.0  0.038225236913596874  0.9713139363024651  0.1936767426140165  1.0000
  C   C31       1.0  0.5382265446889676  0.4713143036324609  0.3063231972373046  1.0000
  C   C32       1.0  0.9617736629014574  0.02868584694947169  0.806323933952001  1.0000
  N   N1        1.0  0.3241814693730305  0.5210537897496933  0.7840608599648959  1.0000
  N   N2        1.0  0.17581928145963122  0.978947295860095  0.2840608754474019  1.0000
  N   N3        1.0  0.6758191701912467  0.4789476612938942  0.21593903606805753  1.0000
  N   N4        1.0  0.824181105365021  0.021052492793657496  0.7159390205855729  1.0000
  Cl  Cl1       1.0  0.720229360824291  0.7593834802418796  0.4086846025293767  1.0000
  Cl  Cl2       1.0  0.7797706077586992  0.7406166191770251  0.908684596054087  1.0000
  Cl  Cl3       1.0  0.2797711523701735  0.24061713960679038  0.591315293503591  1.0000
  Cl  Cl4       1.0  0.22022990543606366  0.25938400067165895  0.0913145194459943  1.0000
  Cl  Cl5       1.0  0.10540694281891659  0.7161390983443069  0.6304762072056747  1.0000
  Cl  Cl6       1.0  0.3945923101246435  0.7838611566256329  0.1304761777634766  1.0000
  Cl  Cl7       1.0  0.8945935703752497  0.2838615215043489  0.3695244693601722  1.0000
  Cl  Cl8       1.0  0.6054078239603837  0.21613696963827772  0.8695237182695266  1.0000
  O   O1        1.0  0.9034143853529384  0.3860557945156556  0.6272267667523579  1.0000
  O   O2        1.0  0.5965844699023605  0.11394435761084756  0.127226798777393  1.0000
  O   O3        1.0  0.09658464083222638  0.6139448199312126  0.37277312928076606  1.0000
  O   O4        1.0  0.4034157905524792  0.8860545998479876  0.872773097255596  1.0000
  O   O5        1.0  0.752396331178552  0.5205806960179442  0.5440742724348766  1.0000
  O   O6        1.0  0.747603911577954  0.9794194175425797  0.0440742731362533  1.0000
  O   O7        1.0  0.24760405564610005  0.47941909263580834  0.4559256235981053  1.0000
  O   O8        1.0  0.2523964752466981  0.02058037111117269  0.9559256228967286  1.0000
