data_image0
_chemical_formula_structural       Zn2H11C24N5O14
_chemical_formula_sum              "Zn2 H11 C24 N5 O14"
_cell_length_a       9.723806719223472
_cell_length_b       11.057575419097107
_cell_length_c       14.096599679126276
_cell_angle_alpha    91.58950987167204
_cell_angle_beta     95.75631500271238
_cell_angle_gamma    90.22719952846357

_space_group_name_H-M_alt    "P 1"
_space_group_IT_number       1

loop_
  _space_group_symop_operation_xyz
  'x, y, z'

loop_
  _atom_site_type_symbol
  _atom_site_label
  _atom_site_symmetry_multiplicity
  _atom_site_fract_x
  _atom_site_fract_y
  _atom_site_fract_z
  _atom_site_occupancy
  Zn  Zn1       1.0  0.6259821093562223  0.4903720194110547  0.5171532863863888  1.0000
  Zn  Zn2       1.0  0.33979305177361846  0.48932163789350347  0.5103488332354473  1.0000
  H   H1        1.0  0.6110965141413517  0.5742635708016478  0.02705349652418221  1.0000
  H   H2        1.0  0.35352950456501736  0.4071018730712693  0.9995893303321213  1.0000
  H   H3        1.0  0.2602420887607124  0.10016059573589325  0.5370234095812236  1.0000
  H   H4        1.0  0.25970360780195995  0.8754416340750735  0.525788538108678  1.0000
  H   H5        1.0  0.7687064686438845  0.8859093599336842  0.4201723566389291  1.0000
  H   H6        1.0  0.7761339900136336  0.11100572641426958  0.43885751643772153  1.0000
  H   H7        1.0  0.086365387796981  0.546849518433369  0.3728673888482845  1.0000
  H   H8        1.0  0.8276709080886777  0.5470129658509036  0.3785541488574751  1.0000
  H   H9        1.0  0.8862937654764521  0.32998977084580616  0.7046437567139064  1.0000
  H   H10       1.0  0.1595492633450633  0.4758213314610271  0.7383313523436499  1.0000
  H   H11       1.0  0.1437001359415788  0.32240217581625785  0.6923596253145733  1.0000
  C   C1        1.0  0.47938006152372736  0.2555390907497781  0.525128978477639  1.0000
  C   C2        1.0  0.506437186617653  0.5102415151748189  0.6991996240445033  1.0000
  C   C3        1.0  0.4770551892922158  0.7241428331694663  0.5054675667841907  1.0000
  C   C4        1.0  0.4645529107142822  0.46985241631362834  0.3279453955200325  1.0000
  C   C5        1.0  0.45332522749900045  0.4640916582241844  0.22527808189411766  1.0000
  C   C6        1.0  0.4373231480193099  0.46019705095523705  0.03834771230754801  1.0000
  C   C7        1.0  0.527283322917981  0.5211285052807852  0.9883882560136287  1.0000
  C   C8        1.0  0.5192217027210334  0.5186198551889517  0.8886180311326302  1.0000
  C   C9        1.0  0.4466420536160101  0.4623533345130467  0.13828598372990802  1.0000
  C   C10       1.0  0.5148528989848487  0.5162235835137421  0.8017793607351038  1.0000
  C   C11       1.0  0.5969631595798005  0.053261136642376486  0.515942679900661  1.0000
  C   C12       1.0  0.4777787485282445  0.12056377526494798  0.5245466002549151  1.0000
  C   C13       1.0  0.3564308187356602  0.0523084377043901  0.5291677758960134  1.0000
  C   C14       1.0  0.3559747186395015  0.9255039445482819  0.5226762741571633  1.0000
  C   C15       1.0  0.4767248905173957  0.8590126477212506  0.5118412444083518  1.0000
  C   C16       1.0  0.5967936602175996  0.9278044609032318  0.5098619168873526  1.0000
  C   C17       1.0  0.7467153314750804  0.9202302515298442  0.4905924823509551  1.0000
  C   C18       1.0  0.7471627836120264  0.0642018842572654  0.5014965594340737  1.0000
  C   C19       1.0  0.06882137287976059  0.4591025798651456  0.5885083634256746  1.0000
  C   C20       1.0  0.040717001970811906  0.5215247150041051  0.4370379238406202  1.0000
  C   C21       1.0  0.8975388008037656  0.5225678485313807  0.4403020058587757  1.0000
  C   C22       1.0  0.9267164869091932  0.4621784231536949  0.5922524816408412  1.0000
  C   C23       1.0  0.9363498793092688  0.41646608558438897  0.6930462436083786  1.0000
  C   C24       1.0  0.0994774818828148  0.4134161360017925  0.6882565347505009  1.0000
  N   N1        1.0  0.1295183934848723  0.4879722470742323  0.5118129844430541  1.0000
  N   N2        1.0  0.8374291397551588  0.4915327519141852  0.5190308859865596  1.0000
  N   N3        1.0  0.8981031626007551  0.5065589672891874  0.7687554574270051  1.0000
  N   N4        1.0  0.8456569638477732  0.8544521908188897  0.5616319935030276  1.0000
  N   N5        1.0  0.8419547567554133  0.11751202644956747  0.5845043774409433  1.0000
  O   O1        1.0  0.5931006482930954  0.3051300414838066  0.5090071687276351  1.0000
  O   O2        1.0  0.3681236973771149  0.30987065446156237  0.5397316944277861  1.0000
  O   O3        1.0  0.6177835848531715  0.48698516991635876  0.6617977770283332  1.0000
  O   O4        1.0  0.3878439796235824  0.5280619303268779  0.6549308493507056  1.0000
  O   O5        1.0  0.5954784717783568  0.6746923738524442  0.5184941844700078  1.0000
  O   O6        1.0  0.361146013487847  0.6704278262463247  0.4884261700404267  1.0000
  O   O7        1.0  0.5847890245767786  0.49174104379942196  0.3701970138556732  1.0000
  O   O8        1.0  0.35394193896105725  0.45304624054391945  0.3676373183314965  1.0000
  O   O9        1.0  0.899622834089101  0.6146677979295987  0.7494898480989677  1.0000
  O   O10       1.0  0.8749353128983444  0.46401862580626124  0.8456140987957641  1.0000
  O   O11       1.0  0.9326971246644008  0.7890474136103974  0.5275457378038837  1.0000
  O   O12       1.0  0.8333728575152934  0.8720395410899612  0.646866707122591  1.0000
  O   O13       1.0  0.96617495935552  0.12444085795982564  0.5716903804340278  1.0000
  O   O14       1.0  0.7904921426227601  0.15219998488849026  0.6566387753981787  1.0000
