data_image0
_chemical_formula_structural       Al2H13C26O10F3
_chemical_formula_sum              "Al2 H13 C26 O10 F3"
_cell_length_a       6.644137975416393
_cell_length_b       11.137596700939497
_cell_length_c       17.757576304405266
_cell_angle_alpha    84.34789923768852
_cell_angle_beta     78.76054617174344
_cell_angle_gamma    73.0861586767932

_space_group_name_H-M_alt    "P 1"
_space_group_IT_number       1

loop_
  _space_group_symop_operation_xyz
  'x, y, z'

loop_
  _atom_site_type_symbol
  _atom_site_label
  _atom_site_symmetry_multiplicity
  _atom_site_fract_x
  _atom_site_fract_y
  _atom_site_fract_z
  _atom_site_occupancy
  Al  Al1       1.0  0.5133042554331128  0.496190959044867  0.4935311144771075  1.0000
  Al  Al2       1.0  0.012990663222936478  0.49466920433664546  0.4950960323547874  1.0000
  H   H1        1.0  0.2950367209604395  0.3622496861841285  0.5589474748260485  1.0000
  H   H2        1.0  0.7330683653890374  0.6323124934328136  0.4340210715807372  1.0000
  H   H3        1.0  0.6728306427689078  0.5203727490188755  0.2610926808429709  1.0000
  H   H4        1.0  0.7317033015037494  0.5360285332804793  0.11726773505304065  1.0000
  H   H5        1.0  0.09162210414329769  0.4197518033375757  0.26528402897351083  1.0000
  H   H6        1.0  0.9143068591035474  0.5811000060039363  0.7269495550614234  1.0000
  H   H7        1.0  0.32948267444250234  0.4900883877898534  0.7226436908285121  1.0000
  H   H8        1.0  0.24514056391993228  0.4880170306940244  0.8664911170465427  1.0000
  H   H9        1.0  0.707935464830008  0.11644407739812832  0.42893781502737466  1.0000
  H   H10       1.0  0.23101906476203027  0.09986837094174211  0.6272949828544864  1.0000
  H   H11       1.0  0.4092757278947659  0.1118690958831436  0.539292054657693  1.0000
  H   H12       1.0  0.529991358897931  0.875996422977714  0.5346067625721742  1.0000
  H   H13       1.0  0.3506407591639304  0.8644417581240802  0.6220370080511869  1.0000
  C   C1        1.0  0.8655606238253597  0.27009253361070046  0.4972227103168264  1.0000
  C   C2        1.0  0.6858004152262823  0.5217553918684956  0.6312859414735568  1.0000
  C   C3        1.0  0.16302800168809042  0.7211321439649082  0.4872123565420095  1.0000
  C   C4        1.0  0.33392382042902113  0.4729652217911351  0.35730856716061493  1.0000
  C   C5        1.0  0.37861380488736535  0.4707889904835127  0.2717484908496458  1.0000
  C   C6        1.0  0.5602794006784252  0.5016610294253638  0.2298473707996677  1.0000
  C   C7        1.0  0.5922978126547704  0.5109272374173699  0.15019392301285706  1.0000
  C   C8        1.0  0.4438322116165381  0.48897418214913557  0.10973270151041697  1.0000
  C   C9        1.0  0.26752198116494713  0.45354405539319476  0.15366115540360423  1.0000
  C   C10       1.0  0.23200886446240077  0.4447881221883563  0.2330841360347761  1.0000
  C   C11       1.0  0.4701706401110571  0.5038613490673427  0.029000490071247522  1.0000
  C   C12       1.0  0.49786774697016506  0.5195762429457673  0.9591850403131654  1.0000
  C   C13       1.0  0.5334493294959728  0.5307103759709549  0.8782958815392018  1.0000
  C   C14       1.0  0.7177678677483995  0.5602155047599311  0.8365353009769617  1.0000
  C   C15       1.0  0.7676441547045983  0.5610746536155063  0.7572066466352607  1.0000
  C   C16       1.0  0.6273363388379423  0.5334155242902271  0.7162525898566938  1.0000
  C   C17       1.0  0.4371185760506932  0.5097449853302011  0.755785333179993  1.0000
  C   C18       1.0  0.3908329444972479  0.5081580006144151  0.8354225205956565  1.0000
  C   C19       1.0  0.9456768993361988  0.1313708135535023  0.4929784366925458  1.0000
  C   C20       1.0  0.09086686960038295  0.8604030957270583  0.48606996042322226  1.0000
  C   C21       1.0  0.12212231519566792  0.05967693784039339  0.5242753116853576  1.0000
  C   C22       1.0  0.9162921920654268  0.9354356854493278  0.4527959252690436  1.0000
  C   C23       1.0  0.19029802540365648  0.9290820116093743  0.5210138998135105  1.0000
  C   C24       1.0  0.8437715188709233  0.06540559994300571  0.45607935250182396  1.0000
  C   C25       1.0  0.2917633917577334  0.06374594141011161  0.5693677304766707  1.0000
  C   C26       1.0  0.3680542423373298  0.9156289584473856  0.5660944403239156  1.0000
  O   O1        1.0  0.6765993792422832  0.3226652659577951  0.48491779443315836  1.0000
  O   O2        1.0  0.8665909445859512  0.5359586750015168  0.5986614552802649  1.0000
  O   O3        1.0  0.03258799884638115  0.6631801765570416  0.47654923476226674  1.0000
  O   O4        1.0  0.47183149012276004  0.49848849695789  0.3892274540051658  1.0000
  O   O5        1.0  0.35193089306871184  0.6699005214567819  0.5002212976346099  1.0000
  O   O6        1.0  0.1584580530001389  0.4534945500059777  0.39174998949869877  1.0000
  O   O7        1.0  0.9927743306787066  0.3259813018738882  0.5137313946979488  1.0000
  O   O8        1.0  0.5520050698370654  0.4942519848765486  0.5982189442383115  1.0000
  O   O9        1.0  0.2700140564026726  0.4434039097883796  0.5316355917197838  1.0000
  O   O10       1.0  0.7575013747037218  0.5480850670112574  0.4574288273797434  1.0000
  F   F1        1.0  0.12495848353563598  0.4290164450906532  0.11589406601700593  1.0000
  F   F2        1.0  0.8542884410752125  0.5861075886942827  0.8766008495343126  1.0000
  F   F3        1.0  0.8111147523651497  0.8803682220200455  0.4139394620776428  1.0000
