data_image0
_chemical_formula_structural       Cu2H24C16O10
_chemical_formula_sum              "Cu2 H24 C16 O10"
_cell_length_a       6.826831735064266
_cell_length_b       8.52501852523528
_cell_length_c       8.54774799571732
_cell_angle_alpha    72.50960795307314
_cell_angle_beta     84.2951964188797
_cell_angle_gamma    85.43205531873073

_space_group_name_H-M_alt    "P 1"
_space_group_IT_number       1

loop_
  _space_group_symop_operation_xyz
  'x, y, z'

loop_
  _atom_site_type_symbol
  _atom_site_label
  _atom_site_symmetry_multiplicity
  _atom_site_fract_x
  _atom_site_fract_y
  _atom_site_fract_z
  _atom_site_occupancy
  Cu  Cu1       1.0  0.16045354316980112  0.966464107685688  0.07191257934746194  1.0000
  Cu  Cu2       1.0  0.8395672806302696  0.033532327999985484  0.9280965074214792  1.0000
  H   H1        1.0  0.4989567264037973  0.004254085764415498  0.18989671295351945  1.0000
  H   H2        1.0  0.5010109135753212  0.9957461246276008  0.8101059613698709  1.0000
  H   H3        1.0  0.5200901803008123  0.8376164350403883  0.1587078271686694  1.0000
  H   H4        1.0  0.4798745206010295  0.16238378263964384  0.8412938996007854  1.0000
  H   H5        1.0  0.6851788847968123  0.07883102335298987  0.4628542679456303  1.0000
  H   H6        1.0  0.3148314424823938  0.9211691504333784  0.5371463262100634  1.0000
  H   H7        1.0  0.0208472344626145  0.16519773089091672  0.4781966111236784  1.0000
  H   H8        1.0  0.9791632186887966  0.8347999541901243  0.5218105586939574  1.0000
  H   H9        1.0  0.8308413889767792  0.28183322475779693  0.5529843700694316  1.0000
  H   H10       1.0  0.16915886128234095  0.7181632619439638  0.44701808382196634  1.0000
  H   H11       1.0  0.05783757564965702  0.38863678250218203  0.21155798447924928  1.0000
  H   H12       1.0  0.9421831013361273  0.6113621214234823  0.7884492139461873  1.0000
  H   H13       1.0  0.08596329085273169  0.4657797707263568  0.3768125289760746  1.0000
  H   H14       1.0  0.9140470758027279  0.5342191356838341  0.6231966262438392  1.0000
  H   H15       1.0  0.7389085255073624  0.5737804252045818  0.37601363077407524  1.0000
  H   H16       1.0  0.2611020246110343  0.42621604877997743  0.6239892099820636  1.0000
  H   H17       1.0  0.7144612093791454  0.4523178727173729  0.07582479430411128  1.0000
  H   H18       1.0  0.2855625744402844  0.5476785761456283  0.9241805527003212  1.0000
  H   H19       1.0  0.5277799293526754  0.5668260293108105  0.15769655694191448  1.0000
  H   H20       1.0  0.4722347436063429  0.43317537789620525  0.8423021707137156  1.0000
  H   H21       1.0  0.5024141199810473  0.341415838773166  0.4228002887471691  1.0000
  H   H22       1.0  0.4975990205032303  0.6585868164305211  0.5771946773005185  1.0000
  H   H23       1.0  0.4648478900587847  0.2680505123092799  0.25578255468607847  1.0000
  H   H24       1.0  0.5351610410889194  0.7319484310011076  0.7442185098644035  1.0000
  C   C1        1.0  0.7445374546426251  0.1866221092087841  0.3669616895794618  1.0000
  C   C2        1.0  0.25546714129630743  0.8133756109136241  0.6330388978118651  1.0000
  C   C3        1.0  0.9000027800712402  0.25728021339997287  0.4404255346987116  1.0000
  C   C4        1.0  0.100006232336888  0.7427175034649168  0.5595747162791015  1.0000
  C   C5        1.0  0.9784870615168731  0.4153055584038227  0.32023622514095973  1.0000
  C   C6        1.0  0.021529078363023813  0.5846958426010218  0.6797635622064463  1.0000
  C   C7        1.0  0.8094625468270565  0.5437801203735403  0.26508387841063563  1.0000
  C   C8        1.0  0.19054034364523892  0.4562212904038461  0.7349169181773052  1.0000
  C   C9        1.0  0.6513698487364509  0.4758396546791204  0.19096472672463002  1.0000
  C   C10       1.0  0.3486436404592298  0.5241568120174235  0.8090390615854449  1.0000
  C   C11       1.0  0.5758513624544151  0.3158650347581684  0.3115212555141583  1.0000
  C   C12       1.0  0.4241592532178445  0.6841301974318909  0.6884842871581472  1.0000
  C   C13       1.0  0.8359514097232221  0.1173196897261519  0.22845664523917017  1.0000
  C   C14       1.0  0.164078299370459  0.8826767906078459  0.7715400504066352  1.0000
  C   C15       1.0  0.8823242028829058  0.7098701347224362  0.15637423012473314  1.0000
  C   C16       1.0  0.1177036828350637  0.2901312268976852  0.8436316910976274  1.0000
  O   O1        1.0  0.4244128850592261  0.9047097126550767  0.20938786318308913  1.0000
  O   O2        1.0  0.575555114102336  0.095284319462472  0.790621289743463  1.0000
  O   O3        1.0  0.014351240393573104  0.06397748804332788  0.23571168895333025  1.0000
  O   O4        1.0  0.9855879764780229  0.9360548136646115  0.7642719708744894  1.0000
  O   O5        1.0  0.7240845784245382  0.11575994721852108  0.11717942317819312  1.0000
  O   O6        1.0  0.2758908102045369  0.8842354133583754  0.8828053742100155  1.0000
  O   O7        1.0  0.05352572074348675  0.7448630028957621  0.1754883868989837  1.0000
  O   O8        1.0  0.946420209051027  0.2551323640488974  0.8245021687348171  1.0000
  O   O9        1.0  0.7614740884062101  0.8039343141024206  0.05955780650096201  1.0000
  O   O10       1.0  0.2385018914935344  0.19607585482856388  0.9404155486884208  1.0000
