data_image0
_chemical_formula_structural       Na4H24C16N20O16
_chemical_formula_sum              "Na4 H24 C16 N20 O16"
_cell_length_a       6.257743166168629
_cell_length_b       8.30253140475082
_cell_length_c       15.24607115008553
_cell_angle_alpha    89.99897020022513
_cell_angle_beta     90.00591275578792
_cell_angle_gamma    105.47399716624437

_space_group_name_H-M_alt    "P 1"
_space_group_IT_number       1

loop_
  _space_group_symop_operation_xyz
  'x, y, z'

loop_
  _atom_site_type_symbol
  _atom_site_label
  _atom_site_symmetry_multiplicity
  _atom_site_fract_x
  _atom_site_fract_y
  _atom_site_fract_z
  _atom_site_occupancy
  Na  Na1       1.0  0.2171170160628648  0.9522737776654254  0.0507383091885032  1.0000
  Na  Na2       1.0  0.2828947124369137  0.04771816967814149  0.5507301378782685  1.0000
  Na  Na3       1.0  0.7828976572545444  0.047719438920871916  0.9492706514425817  1.0000
  Na  Na4       1.0  0.7170942321028306  0.9522885818110826  0.4492624244542114  1.0000
  H   H1        1.0  0.8277658593751056  0.7896357527455397  0.23361272729910348  1.0000
  H   H2        1.0  0.6722624417446711  0.21035159723138724  0.7336223486237897  1.0000
  H   H3        1.0  0.1722523327367469  0.21035374797335757  0.7663759003203837  1.0000
  H   H4        1.0  0.3277158288690529  0.7896613136897913  0.2663754606974961  1.0000
  H   H5        1.0  0.8218245302112521  0.9965390272622375  0.1460906529999733  1.0000
  H   H6        1.0  0.6781975504596147  0.0034269236315509  0.6461065408669313  1.0000
  H   H7        1.0  0.17820872857677725  0.0034617988002665005  0.8538999426130046  1.0000
  H   H8        1.0  0.3217969464125758  0.9965773730870924  0.3538938924797251  1.0000
  H   H9        1.0  0.0156970468053075  0.058744436106408705  0.2153519246529285  1.0000
  H   H10       1.0  0.4843311141339158  0.9412440406884244  0.7153580668499941  1.0000
  H   H11       1.0  0.9843095212554192  0.9412624381287176  0.7846616270790392  1.0000
  H   H12       1.0  0.5156625277131113  0.05875775671032812  0.28465220509073663  1.0000
  H   H13       1.0  0.19437967151577604  0.29098918092493886  0.9682712747271367  1.0000
  H   H14       1.0  0.3056011691325082  0.7090130100049451  0.4682673933497981  1.0000
  H   H15       1.0  0.8056391716365212  0.7090115449673321  0.0317311268908611  1.0000
  H   H16       1.0  0.6943818932350254  0.2909812333748505  0.5317330397966484  1.0000
  H   H17       1.0  0.14573077465645673  0.28446480035495375  0.0685755016458955  1.0000
  H   H18       1.0  0.3542939453013929  0.7155337580338071  0.5685736135196251  1.0000
  H   H19       1.0  0.8542599794441941  0.7155332366855238  0.9314229639300179  1.0000
  H   H20       1.0  0.645718806956623  0.28446318526351894  0.4314222289169861  1.0000
  H   H21       1.0  0.6950302176222679  0.3606885121294782  0.0125366492158179  1.0000
  H   H22       1.0  0.8050081762615946  0.6393078181023883  0.5125418908106383  1.0000
  H   H23       1.0  0.3049625522293269  0.6392920847665807  0.987461816491539  1.0000
  H   H24       1.0  0.19498985694706758  0.36071146397257076  0.4874644456986913  1.0000
  C   C1        1.0  0.7234761624866052  0.5317242304072068  0.19797173137429516  1.0000
  C   C2        1.0  0.7765025788368405  0.4682696817077813  0.6979761251911185  1.0000
  C   C3        1.0  0.27658432942945405  0.4682767851229103  0.80202542390127  1.0000
  C   C4        1.0  0.2233565022928445  0.5317311797108958  0.30202561701919706  1.0000
  C   C5        1.0  0.6750841627379884  0.38361365657083013  0.2533168185265495  1.0000
  C   C6        1.0  0.824842685051401  0.6163807851508738  0.7533244729654456  1.0000
  C   C7        1.0  0.3249768674948541  0.6163935963072691  0.7466770571961658  1.0000
  C   C8        1.0  0.17502012473828898  0.3836076349677526  0.2466805489222565  1.0000
  C   C9        1.0  0.640041549265966  0.22419567008993374  0.1289805533749515  1.0000
  C   C10       1.0  0.8599578204037214  0.7758047557985606  0.6289881493788982  1.0000
  C   C11       1.0  0.3599733445163622  0.7758075217906112  0.8710225040508701  1.0000
  C   C12       1.0  0.14002246702276716  0.22419071505419202  0.3710181868607876  1.0000
  C   C13       1.0  0.7429747402393972  0.6013397807088624  0.3391832725897572  1.0000
  C   C14       1.0  0.7569965550136858  0.3986488714348511  0.8391934117645334  1.0000
  C   C15       1.0  0.2570180438054024  0.398659517171268  0.6608145371176446  1.0000
  C   C16       1.0  0.24304577784166528  0.6013457842000989  0.1608083344918114  1.0000
  N   N1        1.0  0.7619525484683721  0.6649394180305279  0.25359673020317786  1.0000
  N   N2        1.0  0.7380360971415313  0.3350579514462952  0.7536014274051012  1.0000
  N   N3        1.0  0.23804397777621492  0.3350661394868624  0.7463984559281442  1.0000
  N   N4        1.0  0.26201595698269387  0.6649417586597651  0.24639441587875405  1.0000
  N   N5        1.0  0.7249101535263308  0.5270071793267875  0.11263963827759939  1.0000
  N   N6        1.0  0.7751204988441742  0.4729981881224176  0.6126478585677689  1.0000
  N   N7        1.0  0.2749684667112575  0.47299007773515467  0.8873522657785528  1.0000
  N   N8        1.0  0.2250097313773551  0.5270058059324115  0.38735192184757483  1.0000
  N   N9        1.0  0.6821342975905083  0.3694174565161533  0.08042988003197142  1.0000
  N   N10       1.0  0.8178994350207915  0.6305824271607037  0.5804344621453339  1.0000
  N   N11       1.0  0.3179562032114021  0.6305825210670694  0.9195744908798246  1.0000
  N   N12       1.0  0.1820694322576131  0.36942169134894703  0.4195725297075441  1.0000
  N   N13       1.0  0.6301830435350909  0.23164183970510524  0.2185653471931701  1.0000
  N   N14       1.0  0.8697907875883361  0.7683511229127832  0.7185727932844941  1.0000
  N   N15       1.0  0.3697624297936315  0.7683546357044619  0.7814377087452866  1.0000
  N   N16       1.0  0.13024813486727285  0.23165223610518385  0.2814315764803155  1.0000
  N   N17       1.0  0.6854658031408079  0.4272384286708403  0.3383065925047504  1.0000
  N   N18       1.0  0.8144729183289102  0.5727537229904984  0.8383175084516097  1.0000
  N   N19       1.0  0.31450092171481714  0.5727594411912947  0.6616859693853527  1.0000
  N   N20       1.0  0.1855670673021734  0.42724340979197717  0.1616868613676559  1.0000
  O   O1        1.0  0.9461348321601051  0.963567727999312  0.1745389027693918  1.0000
  O   O2        1.0  0.5539010719728168  0.036413737419920315  0.674545734162791  1.0000
  O   O3        1.0  0.053898869926449294  0.03645304882118691  0.8254589077270182  1.0000
  O   O4        1.0  0.44608636805321583  0.9635792896870755  0.3254553549923358  1.0000
  O   O5        1.0  0.1353333750693082  0.21071304445059272  0.0159791416187787  1.0000
  O   O6        1.0  0.3646774998012035  0.7892870648027143  0.5159769706437203  1.0000
  O   O7        1.0  0.8646818359931387  0.789286409442781  0.9840219481126411  1.0000
  O   O8        1.0  0.635337282646006  0.21071113935180116  0.48402018364443933  1.0000
  O   O9        1.0  0.6129829391168187  0.08572528543292181  0.08945637244026017  1.0000
  O   O10       1.0  0.8870438584168313  0.9142759419796535  0.5894618011284862  1.0000
  O   O11       1.0  0.38697289093947523  0.9142687685377029  0.9105440601104816  1.0000
  O   O12       1.0  0.11296943346484062  0.08572723875917633  0.41054125626229165  1.0000
  O   O13       1.0  0.774095413647096  0.692181284541917  0.40554945020677025  1.0000
  O   O14       1.0  0.7258635752051319  0.3078083497881254  0.9055512637304445  1.0000
  O   O15       1.0  0.22591156614026894  0.307808138255112  0.5944470480476909  1.0000
  O   O16       1.0  0.2741147915703621  0.6921908478048736  0.0944452338482051  1.0000
