data_image0
_chemical_formula_structural       Al6H23C90I15O28
_chemical_formula_sum              "Al6 H23 C90 I15 O28"
_cell_length_a       12.281578181612787
_cell_length_b       12.667592200514216
_cell_length_c       27.842379083464298
_cell_angle_alpha    95.54426169181733
_cell_angle_beta     88.83042501141672
_cell_angle_gamma    121.71869275446956

_space_group_name_H-M_alt    "P 1"
_space_group_IT_number       1

loop_
  _space_group_symop_operation_xyz
  'x, y, z'

loop_
  _atom_site_type_symbol
  _atom_site_label
  _atom_site_symmetry_multiplicity
  _atom_site_fract_x
  _atom_site_fract_y
  _atom_site_fract_z
  _atom_site_occupancy
  Al  Al1       1.0  0.6089146988796444  0.18390231487152423  0.4995463278652109  1.0000
  Al  Al2       1.0  0.5727872270032109  0.9146414800110635  0.499846605780199  1.0000
  Al  Al3       1.0  0.3356024013262982  0.9265436099849965  0.49557795414067113  1.0000
  Al  Al4       1.0  0.08128167782628992  0.1723302054311375  0.9909790023508048  1.0000
  Al  Al5       1.0  0.3547033229463354  0.43046740534135375  0.9955829113492667  1.0000
  Al  Al6       1.0  0.11680416992096805  0.44221547700367836  0.9991976680505342  1.0000
  H   H1        1.0  0.4897055903377563  0.9920613661604848  0.7163253119205064  1.0000
  H   H2        1.0  0.8909958760610834  0.0644700480121116  0.8670733908057925  1.0000
  H   H3        1.0  0.7351040153340308  0.9567833888848087  0.6289430745033113  1.0000
  H   H4        1.0  0.7773885857532008  0.8869068858926212  0.7032945968213509  1.0000
  H   H5        1.0  0.1958219376125144  0.814998052842434  0.19258096751763526  1.0000
  H   H6        1.0  0.19334282376866693  0.8445887650443779  0.28174618507645016  1.0000
  H   H7        1.0  0.25526249994874917  0.8199039860810656  0.3625664255085467  1.0000
  H   H8        1.0  0.46542180371853453  0.03581087870657031  0.6377044057707764  1.0000
  H   H9        1.0  0.8344004362280943  0.9274550524877087  0.790830637665678  1.0000
  H   H10       1.0  0.7225552577388257  0.39142465237885926  0.7161593064520629  1.0000
  H   H11       1.0  0.44990268921588944  0.5351831776194089  0.13036632641599508  1.0000
  H   H12       1.0  0.4638027507402287  0.6361194302417774  0.37429343251640274  1.0000
  H   H13       1.0  0.5051950011601676  0.50404854939179  0.21140116282856514  1.0000
  H   H14       1.0  0.5026193636514408  0.5335809427803326  0.30051647335330495  1.0000
  H   H15       1.0  0.2423967361176978  0.72003286375368  0.11885078672771947  1.0000
  H   H16       1.0  0.45644973775936404  0.07661829583830843  0.2764083939721331  1.0000
  H   H17       1.0  0.13812812426100846  0.6196408995643735  0.7940310978908725  1.0000
  H   H18       1.0  0.23853089749724893  0.27657235916078093  0.21441950883102825  1.0000
  H   H19       1.0  0.13508955813134085  0.6591746336309897  0.7080890772724968  1.0000
  H   H20       1.0  0.20181347814729383  0.285808506862665  0.8557688266603518  1.0000
  H   H21       1.0  0.154128232040982  0.3072603777141083  0.7763574399035844  1.0000
  H   H22       1.0  0.6991189909297688  0.38053175701777064  0.4719080159943799  1.0000
  H   H23       1.0  0.0014156991138066768  0.9636714669822342  0.9626409437323316  1.0000
  C   C1        1.0  0.7175976464228244  0.10087540578805941  0.5722892111598198  1.0000
  C   C2        1.0  0.211751944273921  0.625905097944191  0.7698236806860377  1.0000
  C   C3        1.0  0.21021081607583633  0.6481574745304857  0.7222456050022359  1.0000
  C   C4        1.0  0.30633174946284214  0.6575496876626659  0.6910404625496509  1.0000
  C   C5        1.0  0.3103883806814096  0.6134936303569773  0.7883068030089218  1.0000
  C   C6        1.0  0.31594594743674526  0.6020466870952533  0.838203930336114  1.0000
  C   C7        1.0  0.3085804311716276  0.6868658777064882  0.6432914308390776  1.0000
  C   C8        1.0  0.31961826303665225  0.5959643250990823  0.881638890362012  1.0000
  C   C9        1.0  0.3175128533760799  0.201260181560535  0.6387578188273935  1.0000
  C   C10       1.0  0.2920406957862127  0.2096647749678411  0.6886098097965243  1.0000
  C   C11       1.0  0.26778778392117186  0.23003816347882386  0.7916608791544915  1.0000
  C   C12       1.0  0.3560304579727003  0.7744225470059334  0.5582723197346124  1.0000
  C   C13       1.0  0.20995033807844274  0.2697673571613279  0.7601184644462646  1.0000
  C   C14       1.0  0.21915463004913965  0.25975984944957997  0.7110481493647993  1.0000
  C   C15       1.0  0.25644419027005944  0.24502850632161716  0.8414576200782944  1.0000
  C   C16       1.0  0.3182016830502833  0.21236561089580167  0.8726344559956585  1.0000
  C   C17       1.0  0.41959430869800945  0.0856599667378433  0.6520058490850643  1.0000
  C   C18       1.0  0.4065823907435727  0.09943205483568113  0.70175874549502  1.0000
  C   C19       1.0  0.34327028775555857  0.16064856676214131  0.7210071609191147  1.0000
  C   C20       1.0  0.4504106327631305  0.0459083038527055  0.7329493258326847  1.0000
  C   C21       1.0  0.4404381246283081  0.0558257670614708  0.7819798143509331  1.0000
  C   C22       1.0  0.38877185332515307  0.1267180506229195  0.8048032903896498  1.0000
  C   C23       1.0  0.39920562230106077  0.11767866751053901  0.5687454441423012  1.0000
  C   C24       1.0  0.3335853665886077  0.1715624566086191  0.7723451876399917  1.0000
  C   C25       1.0  0.3869247546524618  0.15778485922201924  0.8551858174799634  1.0000
  C   C26       1.0  0.3764889941549257  0.1367091002808536  0.6211833525680317  1.0000
  C   C27       1.0  0.7496308243152825  0.04035544672004931  0.6501688221740521  1.0000
  C   C28       1.0  0.7723413717973315  0.0552463801770386  0.7001739831695913  1.0000
  C   C29       1.0  0.8353516012788589  0.1002349129978768  0.80037169970263  1.0000
  C   C30       1.0  0.8197204304612313  0.9915949100995647  0.7725281967075828  1.0000
  C   C31       1.0  0.7885156550977755  0.9693313086290303  0.7243482439157133  1.0000
  C   C32       1.0  0.8751662754794582  0.12803122058285513  0.8489701964198769  1.0000
  C   C33       1.0  0.9046347858947995  0.24062820673427862  0.8752481881827235  1.0000
  C   C34       1.0  0.725294074801106  0.073218779685476  0.4326529635581196  1.0000
  C   C35       1.0  0.7679472882124756  0.24162093456764208  0.6522436066469978  1.0000
  C   C36       1.0  0.7726177696874147  0.2509213764323023  0.7034404888597334  1.0000
  C   C37       1.0  0.7826759213840904  0.1616851446058192  0.7274341013434122  1.0000
  C   C38       1.0  0.7582030952995427  0.34107405678068403  0.7333408243898629  1.0000
  C   C39       1.0  0.7759544910312215  0.3555551679762701  0.7823671225147917  1.0000
  C   C40       1.0  0.8241519435266015  0.29087039870461956  0.8062616131090008  1.0000
  C   C41       1.0  0.8117596932688758  0.18355063544566264  0.7780878357591163  1.0000
  C   C42       1.0  0.8831467749816042  0.3244370752813026  0.8531228087249259  1.0000
  C   C43       1.0  0.7491629408967457  0.13168029918927004  0.6254547603939499  1.0000
  C   C44       1.0  0.41457905449458127  0.6650107978861117  0.3516760302860717  1.0000
  C   C45       1.0  0.3816510462212648  0.774452144672651  0.42551780353885954  1.0000
  C   C46       1.0  0.4079441213222523  0.6385658440028906  0.3013896674963874  1.0000
  C   C47       1.0  0.40904180832912834  0.6026532064365213  0.19862858456377802  1.0000
  C   C48       1.0  0.4627669402909973  0.5543397567654296  0.22877706213205323  1.0000
  C   C49       1.0  0.4615996632442219  0.5708988778627101  0.277990452981129  1.0000
  C   C50       1.0  0.40783139948361946  0.5853903915404146  0.14809072156522518  1.0000
  C   C51       1.0  0.3467214671756694  0.626524329531435  0.11986476627006935  1.0000
  C   C52       1.0  0.29736292330893127  0.7696418478081027  0.34492226772695017  1.0000
  C   C53       1.0  0.29397022443149723  0.7501320009489022  0.29443325025464157  1.0000
  C   C54       1.0  0.3510136738231822  0.6850684898326806  0.27216193730204447  1.0000
  C   C55       1.0  0.23735185565401212  0.7958204805292868  0.26434986669831056  1.0000
  C   C56       1.0  0.3769541714095227  0.09566249227263059  0.43182059074927537  1.0000
  C   C57       1.0  0.238527512783449  0.779356300338428  0.21515190069091256  1.0000
  C   C58       1.0  0.29517350691965316  0.7144192916844005  0.19179260311563695  1.0000
  C   C59       1.0  0.35225095092140896  0.6678939490368806  0.22096613382987573  1.0000
  C   C60       1.0  0.2911313311231751  0.6906559827058488  0.14147496286458508  1.0000
  C   C61       1.0  0.36060956304439173  0.7307497358532019  0.373169344238292  1.0000
  C   C62       1.0  0.34867108072108277  0.11854103205810422  0.38543517459839177  1.0000
  C   C63       1.0  0.4092671658277285  0.12055844293466579  0.2624916175871518  1.0000
  C   C64       1.0  0.414328878939621  0.13887648623987306  0.2138887891869174  1.0000
  C   C65       1.0  0.28589281788217147  0.23283164774877463  0.22838032390050234  1.0000
  C   C66       1.0  0.28181447492382733  0.2155599651173504  0.27702157877597944  1.0000
  C   C67       1.0  0.31895440517296697  0.7168367403703542  0.6023353623142782  1.0000
  C   C68       1.0  0.3430126561545066  0.15819276671003732  0.29484695884744366  1.0000
  C   C69       1.0  0.3518355161186761  0.19490100701674604  0.19591517247394558  1.0000
  C   C70       1.0  0.34983595850133054  0.2140900440572012  0.14684410470667325  1.0000
  C   C71       1.0  0.3421679554055004  0.1380252930007302  0.34391652361620817  1.0000
  C   C72       1.0  0.3370715793189731  0.23280064679771334  0.10582286931026627  1.0000
  C   C73       1.0  0.7800964482716993  0.0830850458178247  0.3859036440739344  1.0000
  C   C74       1.0  0.8026051892272436  0.041921847169000215  0.25692891282166386  1.0000
  C   C75       1.0  0.8185305028622737  0.0730538307775106  0.20938415272506458  1.0000
  C   C76       1.0  0.904897204298102  0.2927942844767557  0.23958642615018988  1.0000
  C   C77       1.0  0.8872121438774132  0.2610863691981891  0.2870357241240099  1.0000
  C   C78       1.0  0.4022819185969341  0.6385124145482379  0.7083871943596377  1.0000
  C   C79       1.0  0.8343303824530821  0.13477517591145732  0.29621858727585954  1.0000
  C   C80       1.0  0.870954653191525  0.19928597318149602  0.20025938729787637  1.0000
  C   C81       1.0  0.8934983730353494  0.23109211599468438  0.15236857873881596  1.0000
  C   C82       1.0  0.8084270047017484  0.10265997717399965  0.3440540355566028  1.0000
  C   C83       1.0  0.9168650650125443  0.25288485281080864  0.11045601656027768  1.0000
  C   C84       1.0  0.30452023975559683  0.2424164077408903  0.924988025744824  1.0000
  C   C85       1.0  0.30513191522565114  0.564488475060614  0.9305603861377418  1.0000
  C   C86       1.0  0.96436679134073  0.262800615745313  0.9246032422372819  1.0000
  C   C87       1.0  0.30263405788811343  0.2544051229781559  0.060201406199190885  1.0000
  C   C88       1.0  0.3260113029460214  0.5853845851689031  0.0673616581663268  1.0000
  C   C89       1.0  0.4047105517975994  0.6174152728588498  0.7567089643831578  1.0000
  C   C90       1.0  0.9656581614483386  0.2759000746784182  0.06281401794823438  1.0000
  I   I1        1.0  0.5341283216306323  0.6385898394996659  0.6593165626775245  1.0000
  I   I2        1.0  0.4836579684788377  0.9392766213488956  0.8159342702385571  1.0000
  I   I3        1.0  0.9685566657320382  0.5126618006036595  0.8814698394793155  1.0000
  I   I4        1.0  0.6872819833604425  0.4402957230731558  0.8218344123306094  1.0000
  I   I5        1.0  0.5428664934951257  0.5857359031863326  0.7827466580276121  1.0000
  I   I6        1.0  0.800694032925435  0.39978165285425854  0.6207046255068888  1.0000
  I   I7        1.0  0.5141530498967485  0.08100637974973782  0.16763835354978335  1.0000
  I   I8        1.0  0.1866142863366207  0.27773219725561665  0.3237980764035696  1.0000
  I   I9        1.0  0.7280144382892786  0.8588785750762753  0.2724829137300304  1.0000
  I   I10       1.0  0.7641327365643633  0.9386546846655576  0.14992302193152085  1.0000
  I   I11       1.0  0.984514330825789  0.47686956634140637  0.22403733770412515  1.0000
  I   I12       1.0  0.9421771797477163  0.3957835038658502  0.3465387577792001  1.0000
  I   I13       1.0  0.2912843705395857  0.2916862949632986  0.583984628126373  1.0000
  I   I14       1.0  0.10088771253910526  0.30647166499560546  0.6759506944185104  1.0000
  I   I15       1.0  0.49967631871997054  0.15116991545234273  0.9099449938079258  1.0000
  O   O1        1.0  0.5090836181031548  0.19036019073318042  0.5540664869309352  1.0000
  O   O2        1.0  0.4821775643140498  0.7918076121737343  0.4467851058770051  1.0000
  O   O3        1.0  0.30266701285660247  0.8005768526871221  0.4454343377642757  1.0000
  O   O4        1.0  0.29095372139003217  0.9939096294284367  0.4486889234379773  1.0000
  O   O5        1.0  0.5041374795211411  0.006404998540354303  0.4981316618719091  1.0000
  O   O6        1.0  0.9970871736057989  0.18781121247661053  0.934623313543099  1.0000
  O   O7        1.0  0.202224183181734  0.16609548022812962  0.9438817977356562  1.0000
  O   O8        1.0  0.39139139877160284  0.3505649175528234  0.944500528287463  1.0000
  O   O9        1.0  0.38754003867124714  0.5465320073342284  0.9492416095870407  1.0000
  O   O10       1.0  0.20463635189407367  0.5500472648090167  0.9512886784076213  1.0000
  O   O11       1.0  0.9809323252570862  0.3558351848710615  0.9538506938298991  1.0000
  O   O12       1.0  0.7194179072631712  0.18028693323230985  0.5477250671210995  1.0000
  O   O13       1.0  0.9714450529786876  0.1894158711735656  0.03864302495085779  1.0000
  O   O14       1.0  0.18764764458266112  0.18159620310694188  0.04568110696191499  1.0000
  O   O15       1.0  0.39019270150682667  0.34849395578210357  0.03972115903504659  1.0000
  O   O16       1.0  0.4017136182866282  0.5551873104567236  0.046815667493945085  1.0000
  O   O17       1.0  0.2281081201186836  0.5735880165602438  0.04625292488358209  1.0000
  O   O18       1.0  0.004559163578747419  0.3848895336141426  0.04960707783887839  1.0000
  O   O19       1.0  0.18629268509927502  0.3503533453486511  0.9956947004974379  1.0000
  O   O20       1.0  0.682263220124746  0.988565743396798  0.5545398193403626  1.0000
  O   O21       1.0  0.46203466931902454  0.7937879249849191  0.541252081882547  1.0000
  O   O22       1.0  0.28477508657462647  0.808020627544856  0.5404859324508562  1.0000
  O   O23       1.0  0.30789070427432824  0.019594667426893905  0.5446767227072442  1.0000
  O   O24       1.0  0.4860304260417081  0.1741912495330808  0.4508574849013768  1.0000
  O   O25       1.0  0.6957395049504668  0.15361959974374167  0.4446721111968869  1.0000
  O   O26       1.0  0.7067143681108945  0.9842676855104527  0.4573128627759003  1.0000
  O   O27       1.0  0.7056210408348067  0.34685511466569363  0.5006882595269315  1.0000
  O   O28       1.0  0.981415858975616  0.009650299624311697  0.9872288212458995  1.0000
