data_image0
_chemical_formula_structural       Ni4H64C64N16O24
_chemical_formula_sum              "Ni4 H64 C64 N16 O24"
_cell_length_a       9.184491081390009
_cell_length_b       13.352844114301304
_cell_length_c       18.71812303997686
_cell_angle_alpha    110.91226610057399
_cell_angle_beta     103.00062043010259
_cell_angle_gamma    89.99247212726223

_space_group_name_H-M_alt    "P 1"
_space_group_IT_number       1

loop_
  _space_group_symop_operation_xyz
  'x, y, z'

loop_
  _atom_site_type_symbol
  _atom_site_label
  _atom_site_symmetry_multiplicity
  _atom_site_fract_x
  _atom_site_fract_y
  _atom_site_fract_z
  _atom_site_occupancy
  Ni  Ni1       1.0  0.0518935943706609  0.15397047895980615  0.7397026345840558  1.0000
  Ni  Ni2       1.0  0.44824622678861903  0.4143851448066799  0.2603280283672973  1.0000
  Ni  Ni3       1.0  0.9481072335040465  0.8460288444105118  0.26029753133911976  1.0000
  Ni  Ni4       1.0  0.5517511465290355  0.5856154624946158  0.7396726189191156  1.0000
  H   H1        1.0  0.38526030933578426  0.19726592429346831  0.7645503487691627  1.0000
  H   H2        1.0  0.11478791255659367  0.43255634579224994  0.2354521957217273  1.0000
  H   H3        1.0  0.6147432566236049  0.8027285656876443  0.2354490045285117  1.0000
  H   H4        1.0  0.8852069290290955  0.5674452471381741  0.7645470233317724  1.0000
  H   H5        1.0  0.8397644314177626  0.12565901858352643  0.79304549301267  1.0000
  H   H6        1.0  0.6603909495662279  0.3327127543955442  0.20705314022956858  1.0000
  H   H7        1.0  0.16023396273666893  0.8743412348408626  0.2069539943097566  1.0000
  H   H8        1.0  0.3396083600351787  0.6672898697341054  0.7929471090129709  1.0000
  H   H9        1.0  0.8367624865598985  0.24007291448824483  0.7838840959687943  1.0000
  H   H10       1.0  0.6631723833509326  0.45624539636668265  0.21608419968129763  1.0000
  H   H11       1.0  0.16324037708586303  0.7599278363339508  0.21611588723943229  1.0000
  H   H12       1.0  0.33682479394335735  0.543755322084742  0.7839149483407652  1.0000
  H   H13       1.0  0.16635313421070208  0.3558301028329185  0.7492329223837118  1.0000
  H   H14       1.0  0.3338793347054505  0.606701187365907  0.2507555406154864  1.0000
  H   H15       1.0  0.8336443430211277  0.6441683136876293  0.25076633732186326  1.0000
  H   H16       1.0  0.6661212912433925  0.3933003823602235  0.7492452632563484  1.0000
  H   H17       1.0  0.2203244318222275  0.3520920424975601  0.832746174306088  1.0000
  H   H18       1.0  0.2797102811186463  0.5193304916448511  0.1672808355981346  1.0000
  H   H19       1.0  0.7796732488110792  0.647903593865749  0.16725191314757376  1.0000
  H   H20       1.0  0.7202924859910526  0.48066978095098284  0.8327178636746524  1.0000
  H   H21       1.0  0.6446741637056659  0.8301279022849287  0.6220194276131963  1.0000
  H   H22       1.0  0.8554437192446117  0.207915420161406  0.377928577768607  1.0000
  H   H23       1.0  0.3553258726974563  0.16987453469300826  0.3779774127688285  1.0000
  H   H24       1.0  0.14455812799124604  0.7920840831334316  0.6220709624938365  1.0000
  H   H25       1.0  0.8783499329388958  0.7272368228242313  0.4104821734056684  1.0000
  H   H26       1.0  0.6217801208949965  0.31661295584059707  0.5894392889829945  1.0000
  H   H27       1.0  0.12165211474719231  0.2727609679162128  0.5895172632113699  1.0000
  H   H28       1.0  0.37822314807810653  0.6833827684685474  0.41055888402465274  1.0000
  H   H29       1.0  0.04063954420485059  0.026028822117055473  0.5740607448886266  1.0000
  H   H30       1.0  0.4594703164097353  0.45196057559731173  0.4259326248611898  1.0000
  H   H31       1.0  0.9593601648213976  0.9739709107052333  0.4259398313663566  1.0000
  H   H32       1.0  0.5405216704939876  0.5480376974023359  0.5740672989225787  1.0000
  H   H33       1.0  0.2189394079626154  0.9666863255434632  0.48389090717673594  1.0000
  H   H34       1.0  0.2811309392916925  0.482515752117081  0.5160485460035957  1.0000
  H   H35       1.0  0.781056751446144  0.03331367918202948  0.5161083322027977  1.0000
  H   H36       1.0  0.7188586168430006  0.5174823833337924  0.48394963057292256  1.0000
  H   H37       1.0  0.9064227537568784  0.8575261174630383  0.5505619100517123  1.0000
  H   H38       1.0  0.5939503086210038  0.3070242983387316  0.44955917660162464  1.0000
  H   H39       1.0  0.09357675777038567  0.14247426031080582  0.449437701242168  1.0000
  H   H40       1.0  0.40604848495826934  0.6929730637782968  0.5504406377332458  1.0000
  H   H41       1.0  0.5773521741522458  0.14306098841860418  0.6848037722939324  1.0000
  H   H42       1.0  0.9227145451008454  0.45817653087419075  0.3152013289251272  1.0000
  H   H43       1.0  0.4226497769977798  0.8569363240954785  0.3151943803876732  1.0000
  H   H44       1.0  0.07727796225187687  0.5418254027338207  0.6847974268565551  1.0000
  H   H45       1.0  0.6237330223412839  0.6919907795255397  0.4843110985337304  1.0000
  H   H46       1.0  0.876611939613369  0.20764359745749075  0.5157106579871994  1.0000
  H   H47       1.0  0.3762662872601156  0.30801184460410974  0.515689150708809  1.0000
  H   H48       1.0  0.12339122839679821  0.7923532500295636  0.4842878339947773  1.0000
  H   H49       1.0  0.3375753834339931  0.8977805602421542  0.8577981572964148  1.0000
  H   H50       1.0  0.16235556683045624  0.040240954490805336  0.1422588476146842  1.0000
  H   H51       1.0  0.6624366211202856  0.10221893901983493  0.1422021797347313  1.0000
  H   H52       1.0  0.8376416981461574  0.9597634449955023  0.8577447901623357  1.0000
  H   H53       1.0  0.15691510359489064  0.9525061791316104  0.7597104288008936  1.0000
  H   H54       1.0  0.34297293433077414  0.1931520574972438  0.2403135011030955  1.0000
  H   H55       1.0  0.8430916096058924  0.04749199785650402  0.2402910029662877  1.0000
  H   H56       1.0  0.6570240351351657  0.8068530425156696  0.759688422080643  1.0000
  H   H57       1.0  0.4408395483721961  0.23556156916848886  0.003553221943555173  1.0000
  H   H58       1.0  0.05927376619978727  0.23195639986350622  0.9963360182159989  1.0000
  H   H59       1.0  0.5591603552017973  0.7644385863050901  0.9964493878790321  1.0000
  H   H60       1.0  0.9407278761589666  0.7680464173899821  0.003665228601612017  1.0000
  H   H61       1.0  0.23921546660123033  0.27484359101036654  0.903425851449903  1.0000
  H   H62       1.0  0.2608825346584922  0.3714924614818571  0.09644263207630385  1.0000
  H   H63       1.0  0.7607855558212151  0.7251561550112483  0.09657634804087675  1.0000
  H   H64       1.0  0.7391213439215462  0.6285100706691082  0.9035583283809459  1.0000
  C   C1        1.0  0.3529387116710864  0.14589533467358257  0.7024248429712614  1.0000
  C   C2        1.0  0.14713525729009547  0.44333245398122756  0.2975694010026828  1.0000
  C   C3        1.0  0.6470634399291769  0.8541002652861139  0.2975732060649392  1.0000
  C   C4        1.0  0.852858567885697  0.5566678914218387  0.7024293751050337  1.0000
  C   C5        1.0  0.7492664552530783  0.8633010226645367  0.6172613095747294  1.0000
  C   C6        1.0  0.7509559733119106  0.2459846955883621  0.382754820107948  1.0000
  C   C7        1.0  0.25073549147008123  0.13669789125381027  0.3827384460166385  1.0000
  C   C8        1.0  0.24904475507548804  0.7540152171584394  0.6172451304863031  1.0000
  C   C9        1.0  0.7768880555185758  0.6912020549802307  0.4161884852683214  1.0000
  C   C10       1.0  0.7233262526444122  0.2749489485199562  0.5837784308633545  1.0000
  C   C11       1.0  0.22311277088050477  0.3087978021915063  0.5838122149581011  1.0000
  C   C12       1.0  0.2766749820332493  0.7250448145358916  0.41621939055598745  1.0000
  C   C13       1.0  0.16046460773012677  0.04997568785148603  0.5947711270505494  1.0000
  C   C14       1.0  0.3396291915161669  0.45517848312341164  0.40522147808196957  1.0000
  C   C15       1.0  0.8395343877750038  0.9500194279097299  0.40522804933566187  1.0000
  C   C16       1.0  0.6603619809035095  0.5448162959930657  0.5947773648073635  1.0000
  C   C17       1.0  0.411465813785739  0.05138255107865327  0.5785600836002942  1.0000
  C   C18       1.0  0.08860025981000769  0.4727093088529132  0.421431174784999  1.0000
  C   C19       1.0  0.5885326872341068  0.9486144439621427  0.42143694753479366  1.0000
  C   C20       1.0  0.9113899103585013  0.527294033035517  0.578568186331367  1.0000
  C   C21       1.0  0.2582992810261402  0.017334367008992  0.5459143504910102  1.0000
  C   C22       1.0  0.24175887683256997  0.47122833909907774  0.45404677594352444  1.0000
  C   C23       1.0  0.7416993135785219  0.9826641738610106  0.4540850331860113  1.0000
  C   C24       1.0  0.7582345444915077  0.5287764990156205  0.5459532760615105  1.0000
  C   C25       1.0  0.8015810352701181  0.8202153451792357  0.5517084910926471  1.0000
  C   C26       1.0  0.698732065485828  0.2684959507201725  0.44832880586288576  1.0000
  C   C27       1.0  0.1984193946553674  0.17978633569702404  0.4482908135148307  1.0000
  C   C28       1.0  0.3012708961716157  0.7315047445269512  0.5516719269775122  1.0000
  C   C29       1.0  0.45940116074333304  0.11591476414898241  0.6583953698314176  1.0000
  C   C30       1.0  0.04068593885641288  0.45745235278057816  0.34160387679119  1.0000
  C   C31       1.0  0.5406020102180804  0.8840810157352266  0.34160205354405077  1.0000
  C   C32       1.0  0.9593054525991034  0.5425489226765593  0.6583942207157847  1.0000
  C   C33       1.0  0.697020438530899  0.5983370121870308  0.34651748779663893  1.0000
  C   C34       1.0  0.8029940543302488  0.25168227272209265  0.6534534201001136  1.0000
  C   C35       1.0  0.3029782555610723  0.4016609393064813  0.653482111209307  1.0000
  C   C36       1.0  0.1970076904670535  0.748318887552074  0.34654697343991353  1.0000
  C   C37       1.0  0.8255940513867728  0.9612674096425309  0.6846763193101565  1.0000
  C   C38       1.0  0.6747033086711482  0.2767314376969878  0.3154509297608499  1.0000
  C   C39       1.0  0.1744055596277931  0.03873237875482261  0.315323507312641  1.0000
  C   C40       1.0  0.32529945106043817  0.7232715039059555  0.6845504410282075  1.0000
  C   C41       1.0  0.7275440447830732  0.7303679645028823  0.48295839874392493  1.0000
  C   C42       1.0  0.7728047621013799  0.24738161660746977  0.5170561926432384  1.0000
  C   C43       1.0  0.27245536578126217  0.2696335364488648  0.5170415315242849  1.0000
  C   C44       1.0  0.22719515180197186  0.7526148022561686  0.4829426770565703  1.0000
  C   C45       1.0  0.3210850682394621  0.9824502654691116  0.8697415945669604  1.0000
  C   C46       1.0  0.17894269531304022  0.11290443237954412  0.1302685685804477  1.0000
  C   C47       1.0  0.6789246020818425  0.017549574470457702  0.13025827919236116  1.0000
  C   C48       1.0  0.821055492488661  0.8870996688049216  0.8697331596004076  1.0000
  C   C49       1.0  0.4014033621289528  0.06408368002403346  0.9388406521585821  1.0000
  C   C50       1.0  0.098663029322914  0.1253174323679147  0.0611330719818923  1.0000
  C   C51       1.0  0.598605288831209  0.9359159799910229  0.061159847261471514  1.0000
  C   C52       1.0  0.9013364748262375  0.8746856144130317  0.9388692108282582  1.0000
  C   C53       1.0  0.22030705857861219  0.012177086590185298  0.8150753227041889  1.0000
  C   C54       1.0  0.2796634981161077  0.1973783947095384  0.1849198377411341  1.0000
  C   C55       1.0  0.7797004750087169  0.9878224490754234  0.18492505274441834  1.0000
  C   C56       1.0  0.7203368323220684  0.802623875543205  0.8150792515374263  1.0000
  C   C57       1.0  0.3778969557984766  0.17166340334128471  0.9503327302131552  1.0000
  C   C58       1.0  0.12218697554601483  0.22136497290708954  0.04958816635881647  1.0000
  C   C59       1.0  0.6221063028452605  0.8283360575778076  0.049669182917270335  1.0000
  C   C60       1.0  0.8778126280904388  0.7786374844973735  0.9504143317802586  1.0000
  C   C61       1.0  0.2693664143775294  0.19304622468645527  0.894195172446871  1.0000
  C   C62       1.0  0.23068050789762412  0.2989689056355829  0.10570325660191317  1.0000
  C   C63       1.0  0.7306378606761115  0.8069544837599948  0.10580718362933067  1.0000
  C   C64       1.0  0.7693234745965967  0.7010314357346343  0.8942963162745058  1.0000
  N   N1        1.0  0.20616735799187316  0.11366329767656692  0.6716045993543319  1.0000
  N   N2        1.0  0.2939320682259492  0.4420231634758737  0.3283971365270446  1.0000
  N   N3        1.0  0.79383245494855  0.8863342443649742  0.3283945893198065  1.0000
  N   N4        1.0  0.7060631713089691  0.5579760719486161  0.6716029438421458  1.0000
  N   N5        1.0  0.19326476539171716  0.11571416768901359  0.8271538250909529  1.0000
  N   N6        1.0  0.3067433159089816  0.28877707847025386  0.1727844994309535  1.0000
  N   N7        1.0  0.8067398066482241  0.8842853064294047  0.17284971127526919  1.0000
  N   N8        1.0  0.6932546743937281  0.711227667665753  0.8272162637887988  1.0000
  N   N9        1.0  0.5247812130418054  0.025477842232085303  0.5366415203670484  1.0000
  N   N10       1.0  0.9752502332168691  0.4887448074609253  0.46334683933451976  1.0000
  N   N11       1.0  0.4752149493182073  0.974521094890555  0.4633566504059771  1.0000
  N   N12       1.0  0.02474145522493391  0.511255233668173  0.5366524384624753  1.0000
  N   N13       1.0  0.5078626308691696  0.04670725526060691  0.9994563608205312  1.0000
  N   N14       1.0  0.9922060202178357  0.047249504806096396  0.0005141897374584712  1.0000
  N   N15       1.0  0.4921472339998801  0.9532930073302595  0.0005455465064015989  1.0000
  N   N16       1.0  0.007790131812811276  0.952753168926492  0.9994877211583457  1.0000
  O   O1        1.0  0.8981027385463136  0.19874488719290184  0.8135701591481563  1.0000
  O   O2        1.0  0.6019299422588845  0.3851699365941599  0.18645913163713598  1.0000
  O   O3        1.0  0.1018978947806488  0.8012540135261188  0.186427973207408  1.0000
  O   O4        1.0  0.39806611766257305  0.6148306575078095  0.8135398924134734  1.0000
  O   O5        1.0  0.7612184926727181  0.0023925958058442663  0.7404544372282231  1.0000
  O   O6        1.0  0.7392790717737868  0.26220049727297834  0.25976060209718105  1.0000
  O   O7        1.0  0.238775234491392  0.9976078051722936  0.25954358924731474  1.0000
  O   O8        1.0  0.2607243049428547  0.7378065831646765  0.7402408846252156  1.0000
  O   O9        1.0  0.5860250567677454  0.5474439214383864  0.352797429270332  1.0000
  O   O10       1.0  0.9140850253420681  0.19457533275824798  0.647216926464985  1.0000
  O   O11       1.0  0.41397475027018527  0.452555755808838  0.6472038966168299  1.0000
  O   O12       1.0  0.0859179363153757  0.805425362488883  0.3527838063754131  1.0000
  O   O13       1.0  0.1349531868861504  0.32722924234485623  0.7874640779840334  1.0000
  O   O14       1.0  0.3651974499813662  0.5398314868660705  0.2125101823095932  1.0000
  O   O15       1.0  0.865046725541575  0.6727677103202011  0.2125353260190294  1.0000
  O   O16       1.0  0.634803275454786  0.4601694934835762  0.7874908368911662  1.0000
  O   O17       1.0  0.9516553178818654  0.9975543394584749  0.6799403130374841  1.0000
  O   O18       1.0  0.5486014270918177  0.3177425975801782  0.3201639905860816  1.0000
  O   O19       1.0  0.04834550999284199  0.0024449839118503495  0.3200598528856915  1.0000
  O   O20       1.0  0.451398280458811  0.6822576690435298  0.6798371199721558  1.0000
  O   O21       1.0  0.746746801075588  0.5731928299907949  0.28404860200993914  1.0000
  O   O22       1.0  0.753043535738982  0.28887818690455436  0.715864839629674  1.0000
  O   O23       1.0  0.2532472245504351  0.4268058028578849  0.7159500704523722  1.0000
  O   O24       1.0  0.24696004142789726  0.7111271809787141  0.28413654344731737  1.0000
