data_image0
_chemical_formula_structural       Cd2H26C42N8Cl2O4
_chemical_formula_sum              "Cd2 H26 C42 N8 Cl2 O4"
_cell_length_a       9.999506664038663
_cell_length_b       10.457068111189963
_cell_length_c       10.833515948752288
_cell_angle_alpha    88.86455184854496
_cell_angle_beta     62.38431267788414
_cell_angle_gamma    72.33645974058574

_space_group_name_H-M_alt    "P 1"
_space_group_IT_number       1

loop_
  _space_group_symop_operation_xyz
  'x, y, z'

loop_
  _atom_site_type_symbol
  _atom_site_label
  _atom_site_symmetry_multiplicity
  _atom_site_fract_x
  _atom_site_fract_y
  _atom_site_fract_z
  _atom_site_occupancy
  Cd  Cd1       1.0  0.554991764388241  0.6191428178984212  0.06824487341108919  1.0000
  Cd  Cd2       1.0  0.4450074731306586  0.3808583685624214  0.9317553594008176  1.0000
  H   H1        1.0  0.3318224645103883  0.7837733521563308  0.9307730090020387  1.0000
  H   H2        1.0  0.6681771618322827  0.21622681270068259  0.06922523434877806  1.0000
  H   H3        1.0  0.3234953425857441  0.9653116266933707  0.7753258691110717  1.0000
  H   H4        1.0  0.6765069324041946  0.03468749012909461  0.2246712707244001  1.0000
  H   H5        1.0  0.5365567979232679  0.07481638639814041  0.6911691427550366  1.0000
  H   H6        1.0  0.4634439530929697  0.9251837690984104  0.3088304687857573  1.0000
  H   H7        1.0  0.8419771079769944  0.5898171845547324  0.14071183422675657  1.0000
  H   H8        1.0  0.15802098915379756  0.4101840228312668  0.8592898060464692  1.0000
  H   H9        1.0  0.07301559601032175  0.6759732610186049  0.07231829044118851  1.0000
  H   H10       1.0  0.9269824958822924  0.3240279502222876  0.9276842750491456  1.0000
  H   H11       1.0  0.10940450826501556  0.8466031415333786  0.9024842134110572  1.0000
  H   H12       1.0  0.8905950971249371  0.15339703874321484  0.09751773080814981  1.0000
  H   H13       1.0  0.22590750176483002  0.13761501992075154  0.6506289933166018  1.0000
  H   H14       1.0  0.7740951412038656  0.8623861153293287  0.3493697927626231  1.0000
  H   H15       1.0  0.3777142130244115  0.28560232244895195  0.5092850171219254  1.0000
  H   H16       1.0  0.6222873052707101  0.7143988221615915  0.490712400767329  1.0000
  H   H17       1.0  0.28995052540246047  0.4245894084036692  0.35309723192800396  1.0000
  H   H18       1.0  0.7100483388995117  0.5754097634844655  0.6469022798572512  1.0000
  H   H19       1.0  0.05198302846656588  0.4154110364635315  0.34082961341217555  1.0000
  H   H20       1.0  0.9480162090523337  0.584590149997311  0.6591706193997313  1.0000
  H   H21       1.0  0.9012018254088263  0.2685348941099904  0.4802000974942331  1.0000
  H   H22       1.0  0.09879436416267141  0.731468369699023  0.5198050787283038  1.0000
  H   H23       1.0  0.3700003191736273  0.6383157529606862  0.5769577017955713  1.0000
  H   H24       1.0  0.6300000481493271  0.3616823956729363  0.42304303915275926  1.0000
  H   H25       1.0  0.7562791562562552  0.16529996571709657  0.6375848130575862  1.0000
  H   H26       1.0  0.24372159475998253  0.8347001897794543  0.3624147984832008  1.0000
  C   C1        1.0  0.42119043218165325  0.834657524504948  0.8916972701648834  1.0000
  C   C2        1.0  0.5788099457253537  0.16534364103074492  0.10830155518569733  1.0000
  C   C3        1.0  0.41821257179120863  0.9354091335706015  0.8046096403446087  1.0000
  C   C4        1.0  0.5817881792250361  0.06459102192594907  0.19538997119617826  1.0000
  C   C5        1.0  0.5362342778716355  0.9949822435103286  0.7575058412541296  1.0000
  C   C6        1.0  0.46376610003537166  0.005018922025364204  0.24249298409645098  1.0000
  C   C7        1.0  0.6571471440613619  0.9527057578525701  0.7972187884650314  1.0000
  C   C8        1.0  0.3428532286074671  0.04729541153801618  0.2027809621026506  1.0000
  C   C9        1.0  0.6514073750792733  0.8495550541158464  0.8861914750609687  1.0000
  C   C10       1.0  0.34859338641332743  0.1504450936709105  0.11380628604562303  1.0000
  C   C11       1.0  0.7724045795212863  0.8014646052713273  0.931565405232945  1.0000
  C   C12       1.0  0.22759541993061563  0.1985345495465438  0.06843362430808499  1.0000
  C   C13       1.0  0.8623364997903592  0.6648885839693933  0.06861878259376655  1.0000
  C   C14       1.0  0.13766311083777077  0.3351115924523071  0.9313822364083465  1.0000
  C   C15       1.0  0.991032702245576  0.7129272405996546  0.029702202876634647  1.0000
  C   C16       1.0  0.008965011299622466  0.2870749845352734  0.9703005016405869  1.0000
  C   C17       1.0  0.010932772851056363  0.806724597530952  0.936636610344685  1.0000
  C   C18       1.0  0.9890668273007179  0.1932755866005422  0.06336625909163018  1.0000
  C   C19       1.0  0.9008937526245476  0.8539643980971904  0.8856771362011032  1.0000
  C   C20       1.0  0.09910699839169719  0.14603575739936048  0.11432247533968362  1.0000
  C   C21       1.0  0.9075304077441403  0.9542014933329814  0.7935464914829636  1.0000
  C   C22       1.0  0.0924707111431573  0.045797655979321006  0.2064548314651304  1.0000
  C   C23       1.0  0.7876176354081394  0.0025404513180476004  0.7542973676032576  1.0000
  C   C24       1.0  0.2123838671724412  0.997460704857176  0.24570282593729337  1.0000
  C   C25       1.0  0.9706436388383892  0.10363870894706653  0.6584041424720937  1.0000
  C   C26       1.0  0.02935711217785543  0.8963614465494844  0.3415954690686932  1.0000
  C   C27       1.0  0.05438453028456538  0.1926780289946421  0.5751266235078633  1.0000
  C   C28       1.0  0.9456169722960157  0.807323127180581  0.4248735700326874  1.0000
  C   C29       1.0  0.18918998346064336  0.1989603118430594  0.5822133133343287  1.0000
  C   C30       1.0  0.8108107727937793  0.801039839798591  0.41778537298935686  1.0000
  C   C31       1.0  0.2729858471006851  0.2821673830039445  0.5033453134647489  1.0000
  C   C32       1.0  0.7270152822629682  0.7178317585985711  0.49665415904914323  1.0000
  C   C33       1.0  0.22446657811422446  0.3597896994151739  0.4158229965848508  1.0000
  C   C34       1.0  0.7755334213376771  0.6402094554026975  0.5841760329561794  1.0000
  C   C35       1.0  0.0906175746689684  0.3538978711026886  0.40820864871675167  1.0000
  C   C36       1.0  0.9093820411973468  0.6461023014641184  0.5917914450682674  1.0000
  C   C37       1.0  0.005447954401134308  0.27158567356836016  0.48741990100234744  1.0000
  C   C38       1.0  0.9945512778795802  0.7284155167473826  0.5125812570266605  1.0000
  C   C39       1.0  0.4950851396056918  0.5909356660837518  0.344683938727542  1.0000
  C   C40       1.0  0.5049140978055109  0.4090624957652339  0.6553163592479195  1.0000
  C   C41       1.0  0.4609627362417541  0.5595108962327872  0.4885182537438412  1.0000
  C   C42       1.0  0.5390361228220399  0.44048827951023384  0.5114821832585079  1.0000
  N   N1        1.0  0.758171956272136  0.7073268647034682  0.020127615230080758  1.0000
  N   N2        1.0  0.2418265296824202  0.292673321078702  0.9798720355820622  1.0000
  N   N3        1.0  0.5331917843849682  0.7946573475041562  0.9316662840153002  1.0000
  N   N4        1.0  0.4668108637142084  0.20534075927916018  0.06833164201037789  1.0000
  N   N5        1.0  0.8305235315571552  0.09707327780640185  0.6680956414351017  1.0000
  N   N6        1.0  0.1694783493708415  0.9029268644747859  0.3319044130785541  1.0000
  N   N7        1.0  0.0203708270373042  0.0169740244314696  0.7332326003606583  1.0000
  N   N8        1.0  0.979628778352648  0.9830261558451313  0.2667693438585487  1.0000
  Cl  Cl1       1.0  0.7134146463148028  0.41533269820403973  0.8662439095704288  1.0000
  Cl  Cl2       1.0  0.2865849695515053  0.5846674743627602  0.13375618421458318  1.0000
  O   O1        1.0  0.4265702228301507  0.7119020114787632  0.33227367893033494  1.0000
  O   O2        1.0  0.5734282578862278  0.28809817815830024  0.6677268970989091  1.0000
  O   O3        1.0  0.5911973774395489  0.4979645499679607  0.2395317757781329  1.0000
  O   O4        1.0  0.4088003517124861  0.5020346389904233  0.7604682182513472  1.0000
