data_image0
_chemical_formula_structural       Zn4H50C74N16O6
_chemical_formula_sum              "Zn4 H50 C74 N16 O6"
_cell_length_a       20.024431604308376
_cell_length_b       19.687508416153033
_cell_length_c       19.63382735190748
_cell_angle_alpha    111.08105983990497
_cell_angle_beta     106.30536447925736
_cell_angle_gamma    111.25639420462878

_space_group_name_H-M_alt    "P 1"
_space_group_IT_number       1

loop_
  _space_group_symop_operation_xyz
  'x, y, z'

loop_
  _atom_site_type_symbol
  _atom_site_label
  _atom_site_symmetry_multiplicity
  _atom_site_fract_x
  _atom_site_fract_y
  _atom_site_fract_z
  _atom_site_occupancy
  Zn  Zn1       1.0  0.0020146923480907747  0.6097942397881223  0.1026756334790447  1.0000
  Zn  Zn2       1.0  3.819481122529445e-06  0.389367096221548  0.8882757387505438  1.0000
  Zn  Zn3       1.0  0.09377348060021977  0.5983292254215796  0.9863379149185365  1.0000
  Zn  Zn4       1.0  0.9077196649406007  0.40114299028762457  0.002481455167682752  1.0000
  H   H1        1.0  0.5478697693209897  0.6495165306365038  0.9939449042025573  1.0000
  H   H2        1.0  0.2191346761737947  0.19656441477974335  0.06991948281542898  1.0000
  H   H3        1.0  0.12694459553761564  0.22632815327622066  0.24611927278922963  1.0000
  H   H4        1.0  0.22423640221024502  0.0745077623359194  0.07435119237970163  1.0000
  H   H5        1.0  0.8528522764291253  0.192069517516046  0.721271649572465  1.0000
  H   H6        1.0  0.1369702385727579  0.6368672234917696  0.26282424296881857  1.0000
  H   H7        1.0  0.9780696964489696  0.623376340429445  0.8559100687128166  1.0000
  H   H8        1.0  0.8355844970355479  0.3674878435048399  0.12857024039981008  1.0000
  H   H9        1.0  0.743485908218709  0.3573952884272629  0.8638044513942378  1.0000
  H   H10       1.0  0.2639711758226112  0.6419315136493464  0.9681057746662489  1.0000
  H   H11       1.0  0.8616971655158636  0.3483547127956896  0.718353628247158  1.0000
  H   H12       1.0  0.4568221264407485  0.3526825174554488  0.8027915989713039  1.0000
  H   H13       1.0  0.9520013446595502  0.6420440484727338  0.2587936720195432  1.0000
  H   H14       1.0  0.8653084502606703  0.632714448383737  0.999834878143389  1.0000
  H   H15       1.0  0.14922761451838085  0.3690737045171133  0.8584435137352957  1.0000
  H   H16       1.0  0.7400870725659203  0.20526096332346103  0.8805644685898599  1.0000
  H   H17       1.0  0.25012292014734794  0.6087116844668828  0.10367615453713348  1.0000
  H   H18       1.0  0.1697067108536389  0.7956142556579379  0.02130846447467852  1.0000
  H   H19       1.0  0.024538766601828917  0.39887566699895416  0.15488755272569674  1.0000
  H   H20       1.0  0.5588952503892273  0.591671025053891  0.8454496837508501  1.0000
  H   H21       1.0  0.44574285927725305  0.41075335621597014  0.951274518217247  1.0000
  H   H22       1.0  0.07001091251368774  0.8796759863119945  0.21297771468071144  1.0000
  H   H23       1.0  0.6319989301216041  0.9502911047369195  0.4999378084861591  1.0000
  H   H24       1.0  0.1529469382996425  0.30854999297783076  0.0006271570731825649  1.0000
  H   H25       1.0  0.40419654431132573  0.3673427986169173  0.6725644178020789  1.0000
  H   H26       1.0  0.4456502234293326  0.47233192310100947  0.6893399224188741  1.0000
  H   H27       1.0  0.3038183371023138  0.4413288580442297  0.6135765014987058  1.0000
  H   H28       1.0  0.3230968625144754  0.36821162094285137  0.5493068987937094  1.0000
  H   H29       1.0  0.2628379411433883  0.33630309632494  0.5961380784359422  1.0000
  H   H30       1.0  0.556790785276263  0.5238344688337477  0.1048436102563883  1.0000
  H   H31       1.0  0.594977076238557  0.6294589461932032  0.12369006258859369  1.0000
  H   H32       1.0  0.7377635644734895  0.6661801025482601  0.20379479766208408  1.0000
  H   H33       1.0  0.6755952892979663  0.6282012019886662  0.24663337580341962  1.0000
  H   H34       1.0  0.3771274706054513  0.7845563716440151  0.5009922262877493  1.0000
  H   H35       1.0  0.7005688053974526  0.560532586725536  0.18415776950972437  1.0000
  H   H36       1.0  0.7875522042452516  0.6683226127843721  0.44354876177600017  1.0000
  H   H37       1.0  0.7910561116462772  0.594659421290835  0.3606708590366593  1.0000
  H   H38       1.0  0.9194490607973763  0.710227257064382  0.3881936963256933  1.0000
  H   H39       1.0  0.8428988410054288  0.7375201557710013  0.3718447396635086  1.0000
  H   H40       1.0  0.9210491239017458  0.7853998878852977  0.4741467617631798  1.0000
  H   H41       1.0  0.8970467598407269  0.37675675597455427  0.5516057750830046  1.0000
  H   H42       1.0  0.8695355439774632  0.3132178800794561  0.4453567432332192  1.0000
  H   H43       1.0  0.7634345813136535  0.1867854105132807  0.43715708986928103  1.0000
  H   H44       1.0  0.8631488902411492  0.22756541759287777  0.5139574460055985  1.0000
  H   H45       1.0  0.513154219646765  0.8235110702486279  0.3690020818807866  1.0000
  H   H46       1.0  0.7939472426023642  0.2508885178001776  0.5436775860370205  1.0000
  H   H47       1.0  0.49591707138906577  0.9112681747115231  0.6320607335220104  1.0000
  H   H48       1.0  0.8741020885273015  0.6212681434736709  0.5988757532389216  1.0000
  H   H49       1.0  0.7843888101238435  0.35855591119131697  0.3437144534651254  1.0000
  H   H50       1.0  0.13254379943309402  0.10445185420077509  0.25092643184106583  1.0000
  C   C1        1.0  0.0811436005846603  0.7963772745081172  0.1386892800662736  1.0000
  C   C2        1.0  0.5609891803139603  0.5285378605881446  0.973157813384731  1.0000
  C   C3        1.0  0.5332575858719509  0.5515632345539601  0.8687950349754419  1.0000
  C   C4        1.0  0.47152724442666755  0.45070085177822955  0.9278425234763009  1.0000
  C   C5        1.0  0.6960511114697425  0.48933891836608007  0.8924042754617575  1.0000
  C   C6        1.0  0.31029026210762833  0.5110446333031362  0.9138759111167759  1.0000
  C   C7        1.0  0.4763942525485377  0.41843967294641254  0.8451388826884668  1.0000
  C   C8        1.0  0.5283458467107424  0.5838061640088127  0.9515320931464545  1.0000
  C   C9        1.0  0.5664508287104298  0.4958106488987326  0.8894383272044524  1.0000
  C   C10       1.0  0.438273953537376  0.5064597909565903  0.9071345714018053  1.0000
  C   C11       1.0  0.6342015742633434  0.49114576908921487  0.8850429578257321  1.0000
  C   C12       1.0  0.0891872879468352  0.3573725476279888  0.017181071399669144  1.0000
  C   C13       1.0  0.3709255690470601  0.5104579380116052  0.9134526675185771  1.0000
  C   C14       1.0  0.5098549858972419  0.8423822001838771  0.4268285934882315  1.0000
  C   C15       1.0  0.49972452776473403  0.8917334040477982  0.5744811384658349  1.0000
  C   C16       1.0  0.8373643040458775  0.20918723513878487  0.7711813686435393  1.0000
  C   C17       1.0  0.15202419848574777  0.624711842359403  0.21237582812688763  1.0000
  C   C18       1.0  0.4363518744496133  0.7954208368913313  0.42555977701373837  1.0000
  C   C19       1.0  0.5722136749983378  0.9404379754398348  0.575193182766391  1.0000
  C   C20       1.0  0.4333280400601185  0.8207448110075147  0.5012392293216977  1.0000
  C   C21       1.0  0.5761836147805113  0.9134197350813408  0.4999825781604557  1.0000
  C   C22       1.0  0.36545327282129864  0.729306655527992  0.3500806965494334  1.0000
  C   C23       1.0  0.7654705497225935  0.16280098325519526  0.7725372576792753  1.0000
  C   C24       1.0  0.6388590326215039  0.016090139154158595  0.6477977908480242  1.0000
  C   C25       1.0  0.696970923145443  0.08381172595088059  0.7076074659222088  1.0000
  C   C26       1.0  0.3016544037298629  0.680355675714061  0.2852070161741338  1.0000
  C   C27       1.0  0.853480621500978  0.5631163219116216  0.5429124970333135  1.0000
  C   C28       1.0  0.8030402822392659  0.4160368354917736  0.3992953013771797  1.0000
  C   C29       1.0  0.8328670778100289  0.48684992071229527  0.5434621143578867  1.0000
  C   C30       1.0  0.8290097040311226  0.49352074472964347  0.4003672273521204  1.0000
  C   C31       1.0  0.8048739047569029  0.4121271393666036  0.46883762158037734  1.0000
  C   C32       1.0  0.8518795882638415  0.5672611665804368  0.47325697729594646  1.0000
  C   C33       1.0  0.8454095867378798  0.48513326614718716  0.6171623133756441  1.0000
  C   C34       1.0  0.22660273380415685  0.6370839684497014  0.21397431884727078  1.0000
  C   C35       1.0  0.8401036188865803  0.49769713048899417  0.3338052245076141  1.0000
  C   C36       1.0  0.8577898350545042  0.501159623031782  0.2799422110021155  1.0000
  C   C37       1.0  0.8655687594021799  0.4834737433829516  0.681089795552353  1.0000
  C   C38       1.0  0.14866535104806644  0.19322494823154557  0.20896158295625616  1.0000
  C   C39       1.0  0.20328334518086422  0.10814694610271397  0.11214948974842541  1.0000
  C   C40       1.0  0.9575686994276041  0.5568100280794679  0.8343995384170668  1.0000
  C   C41       1.0  0.868681543962829  0.43486650152093625  0.15013542350251197  1.0000
  C   C42       1.0  0.1698229692970372  0.21839573484313485  0.1554611322561144  1.0000
  C   C43       1.0  0.1760191842563756  0.0788209761883536  0.16068291313965236  1.0000
  C   C44       1.0  0.20033873872912275  0.17651245203131788  0.10973321345596793  1.0000
  C   C45       1.0  0.9006951986178254  0.48463746337930047  0.7546474903779485  1.0000
  C   C46       1.0  0.15167844433904074  0.12489319452080848  0.21146029183844212  1.0000
  C   C47       1.0  0.15357242189957535  0.27801727471192084  0.14236750336943524  1.0000
  C   C48       1.0  0.167240894362692  0.0014835995423823003  0.15273370288303312  1.0000
  C   C49       1.0  0.15122054665044968  0.9293782163411418  0.13566340733639473  1.0000
  C   C50       1.0  0.1267254555991997  0.3192377950157733  0.12370836760538848  1.0000
  C   C51       1.0  0.7858567393622237  0.4255772870147607  0.9032335162526834  1.0000
  C   C52       1.0  0.2233962324315187  0.5743031244036202  0.9410357019741297  1.0000
  C   C53       1.0  0.8981535925876329  0.41599018306275337  0.7639909040423093  1.0000
  C   C54       1.0  0.9281238320705613  0.5752803321190284  0.2167849177143068  1.0000
  C   C55       1.0  0.8484722863490505  0.566467558189359  0.9725814454829876  1.0000
  C   C56       1.0  0.881796515256717  0.5038041299325613  0.21986227273212933  1.0000
  C   C57       1.0  0.1643412872234365  0.4347004793768434  0.8842720837899805  1.0000
  C   C58       1.0  0.7795235387488264  0.21563052206487038  0.8524406449370546  1.0000
  C   C59       1.0  0.21027207534753245  0.6105877322368796  0.13117421894424544  1.0000
  C   C60       1.0  0.13791272102430002  0.786043689411926  0.05668091624269791  1.0000
  C   C61       1.0  0.04120707086838855  0.38869837350490843  0.1056063662029061  1.0000
  C   C62       1.0  0.1275666989860583  0.8450221924437215  0.11288631917829407  1.0000
  C   C63       1.0  0.09092493019173284  0.35628535344027057  0.08944925315797994  1.0000
  C   C64       1.0  0.3918415521513837  0.41917349834977796  0.679842821379971  1.0000
  C   C65       1.0  0.3158018158560339  0.3894633433805552  0.6052396211019513  1.0000
  C   C66       1.0  0.6098553553663281  0.5792365308725138  0.11619650412313821  1.0000
  C   C67       1.0  0.770967202597376  0.4927096559157319  0.9160698758634426  1.0000
  C   C68       1.0  0.685512286150754  0.6103246731572155  0.192125426628948  1.0000
  C   C69       1.0  0.828410842703015  0.654548757714096  0.42094327157475675  1.0000
  C   C70       1.0  0.8812574629633901  0.7262811996355508  0.41345737517497855  1.0000
  C   C71       1.0  0.8468395275746516  0.3208323993872213  0.491222486059229  1.0000
  C   C72       1.0  0.8148439626318691  0.24174408851307302  0.4968130174634311  1.0000
  C   C73       1.0  0.2386268487011521  0.5075884611604593  0.9131916266683079  1.0000
  C   C74       1.0  0.4436428726816077  0.4737417191813904  0.8236617454874918  1.0000
  N   N1        1.0  0.06543267894947766  0.7167249160437735  0.10153758143973596  1.0000
  N   N2        1.0  0.9412942444574173  0.5504612634484899  0.15109816645476565  1.0000
  N   N3        1.0  0.9037719005904067  0.5441639049783403  0.9927242106941494  1.0000
  N   N4        1.0  0.11001930262253988  0.456419114410174  0.8942277237552718  1.0000
  N   N5        1.0  0.8532753996440761  0.28675377576558964  0.8943729493223176  1.0000
  N   N6        1.0  0.13293517201729804  0.5868473700805267  0.08550109083073203  1.0000
  N   N7        1.0  0.10128634889169778  0.7103761792529609  0.05022718051437633  1.0000
  N   N8        1.0  0.013160500767483534  0.4066286747904328  0.047827651121352184  1.0000
  N   N9        1.0  0.04349531457617675  0.3879758412398502  0.9933916755555501  1.0000
  N   N10       1.0  0.8891402996138286  0.28258271535559487  0.8437710659776487  1.0000
  N   N11       1.0  0.09750801065268898  0.5955716631568819  0.13545023830878483  1.0000
  N   N12       1.0  0.9870445958527371  0.5322901175413505  0.8853161094669203  1.0000
  N   N13       1.0  0.9042932666313703  0.46318909694788596  0.1095962028522876  1.0000
  N   N14       1.0  0.8654901493013938  0.45768684288208294  0.9503450134972625  1.0000
  N   N15       1.0  0.14668340714349173  0.5433896340090526  0.92961105487489  1.0000
  N   N16       1.0  0.9507048998529727  0.4460991404036534  0.8423331271018597  1.0000
  O   O1        1.0  0.05236200444124965  0.8197552596020896  0.19219721941103515  1.0000
  O   O2        1.0  0.12471524661639688  0.33012098646140947  0.9732462399445369  1.0000
  O   O3        1.0  0.37954734456109673  0.44711637442436103  0.751390217551297  1.0000
  O   O4        1.0  0.6246312936530672  0.5551136441266706  0.04595922456622504  1.0000
  O   O5        1.0  0.8808956679227435  0.6458308240138065  0.4808171858227937  1.0000
  O   O6        1.0  0.7806872729375841  0.3353789477263476  0.4656794250272683  1.0000
