data_image0
_chemical_formula_structural       Nd2H26C28N4O18
_chemical_formula_sum              "Nd2 H26 C28 N4 O18"
_cell_length_a       7.695019066609826
_cell_length_b       9.683819187849423
_cell_length_c       11.306425080633066
_cell_angle_alpha    100.93306512157034
_cell_angle_beta     93.40187378473122
_cell_angle_gamma    105.29760816917243

_space_group_name_H-M_alt    "P 1"
_space_group_IT_number       1

loop_
  _space_group_symop_operation_xyz
  'x, y, z'

loop_
  _atom_site_type_symbol
  _atom_site_label
  _atom_site_symmetry_multiplicity
  _atom_site_fract_x
  _atom_site_fract_y
  _atom_site_fract_z
  _atom_site_occupancy
  Nd  Nd1       1.0  0.10172890998999419  0.8409333615812077  0.057171290930632855  1.0000
  Nd  Nd2       1.0  0.8982601264176536  0.15906470740301876  0.9428275620474981  1.0000
  H   H1        1.0  0.8386276288189193  0.0021787539451807005  0.19628706949848865  1.0000
  H   H2        1.0  0.16138075746964387  0.9978335362528201  0.8037192132096252  1.0000
  H   H3        1.0  0.9916694258627674  0.9776548809683593  0.2897409824592786  1.0000
  H   H4        1.0  0.008328067842398909  0.022356341097634  0.7102603783376795  1.0000
  H   H5        1.0  0.19794441415064776  0.2293461691935122  0.472314901099118  1.0000
  H   H6        1.0  0.8020652026080911  0.7706475546953088  0.5276820304474584  1.0000
  H   H7        1.0  0.08750015805732404  0.3299052359705855  0.6654846570200023  1.0000
  H   H8        1.0  0.9125107029518632  0.6700885122126793  0.3345096609027537  1.0000
  H   H9        1.0  0.11810088289602313  0.5938221319075226  0.7294472756272797  1.0000
  H   H10       1.0  0.8818852159750179  0.4061671327447274  0.2705544004760015  1.0000
  H   H11       1.0  0.2607878730477893  0.7705421435925717  0.6057111751067553  1.0000
  H   H12       1.0  0.7391942809110643  0.22944713237602343  0.3942886196159635  1.0000
  H   H13       1.0  0.5112868664975495  0.6958090360798863  0.16602526066386503  1.0000
  H   H14       1.0  0.4887122075634096  0.304187947794091  0.8339736959998877  1.0000
  H   H15       1.0  0.40646841005595746  0.5095065041254474  0.09849451792747746  1.0000
  H   H16       1.0  0.593521626366915  0.490490439814181  0.9015077088044381  1.0000
  H   H17       1.0  0.6284880257525957  0.5623573622071448  0.17661704131560196  1.0000
  H   H18       1.0  0.3715046442563193  0.4376363520345309  0.8233785136969306  1.0000
  H   H19       1.0  0.5380848100168834  0.8518364829058813  0.327521446525914  1.0000
  H   H20       1.0  0.4619109113994426  0.14815508208623385  0.6724694039594612  1.0000
  H   H21       1.0  0.4863913118950762  0.8780243491919395  0.4787607890240866  1.0000
  H   H22       1.0  0.5136071221099812  0.12197486313857554  0.5212341095548254  1.0000
  H   H23       1.0  0.35790788891062414  0.20877951925454144  0.2995729384571817  1.0000
  H   H24       1.0  0.6420962099404833  0.7912207635389096  0.7004258465939659  1.0000
  H   H25       1.0  0.47210041614195575  0.3006206084985551  0.19326651209475193  1.0000
  H   H26       1.0  0.5279077819201347  0.6993796017424005  0.806741225065686  1.0000
  C   C1        1.0  0.28815810081893284  0.44614228985418  0.4313809423301296  1.0000
  C   C2        1.0  0.7118445196202005  0.5538535946005468  0.5686188123630488  1.0000
  C   C3        1.0  0.2112454456162141  0.34606933396503353  0.5007252773418431  1.0000
  C   C4        1.0  0.7887565421273808  0.6539210883425144  0.4992717500184229  1.0000
  C   C5        1.0  0.15162979084973222  0.4032594388727021  0.608537037291285  1.0000
  C   C6        1.0  0.8483780187520437  0.5967364585601304  0.3914619851586353  1.0000
  C   C7        1.0  0.16926250618463007  0.5540911020265398  0.6457501158933499  1.0000
  C   C8        1.0  0.8307344081204066  0.44589926137579294  0.3542529467567236  1.0000
  C   C9        1.0  0.2477966665231009  0.6540052730112439  0.5767376344465023  1.0000
  C   C10       1.0  0.7521862073543916  0.3459862097812376  0.4232607916141193  1.0000
  C   C11       1.0  0.30669039945124155  0.5969381706839629  0.4688040783678107  1.0000
  C   C12       1.0  0.6933053697534248  0.4030565960498222  0.5311970550002274  1.0000
  C   C13       1.0  0.41588701783981463  0.5606432921238851  0.2897986439376937  1.0000
  C   C14       1.0  0.58411453464835  0.43935696504422583  0.7102027168378131  1.0000
  C   C15       1.0  0.4951211627949732  0.5837400057750699  0.17752590337585167  1.0000
  C   C16       1.0  0.5048703594002291  0.416253645899559  0.8224766844659542  1.0000
  C   C17       1.0  0.4307910099815402  0.8210215192661822  0.3853904490396333  1.0000
  C   C18       1.0  0.5692122725141928  0.17897659497597834  0.6146052854681657  1.0000
  C   C19       1.0  0.2687203412803001  0.8687234701650299  0.33740090177195736  1.0000
  C   C20       1.0  0.7312855739414131  0.13127785613511386  0.6626043075763237  1.0000
  C   C21       1.0  0.3529039248924235  0.28904532956073586  0.2432855811667808  1.0000
  C   C22       1.0  0.6471033915918838  0.7109604256962073  0.7567151231751057  1.0000
  C   C23       1.0  0.17991628066936022  0.2297340084891816  0.15407189188016457  1.0000
  C   C24       1.0  0.8200932727202572  0.7702783366213383  0.8459282418397651  1.0000
  C   C25       1.0  0.9042796797381172  0.496408666760104  0.02111938397516872  1.0000
  C   C26       1.0  0.0957249287240885  0.5036048147113591  0.978875494610421  1.0000
  C   C27       1.0  0.5377738071416402  0.0033309333955529002  0.06649489203905291  1.0000
  C   C28       1.0  0.4622195672051392  0.996686810633378  0.9335127793673906  1.0000
  N   N1        1.0  0.38806335968948963  0.6639655581702827  0.3793291034753282  1.0000
  N   N2        1.0  0.6119368594718394  0.3360270223722426  0.62067178247046  1.0000
  N   N3        1.0  0.3597808639894425  0.4286530739780404  0.32088958570180653  1.0000
  N   N4        1.0  0.6402270999111223  0.5713427622186417  0.6791165074768416  1.0000
  O   O1        1.0  0.25482995782591905  0.9938541953069235  0.38340072347833865  1.0000
  O   O2        1.0  0.74516749273792  0.0061416685151841005  0.6166006472991941  1.0000
  O   O3        1.0  0.16490066642941784  0.7766276353969278  0.2487933684908158  1.0000
  O   O4        1.0  0.8351028768755456  0.22336715463127627  0.7512062245917834  1.0000
  O   O5        1.0  0.16746685960296054  0.11378873199802801  0.07261749087985693  1.0000
  O   O6        1.0  0.8325347626742357  0.8862191851557244  0.9273860745080855  1.0000
  O   O7        1.0  0.059361855006997664  0.29506585020321563  0.16004111608829424  1.0000
  O   O8        1.0  0.9406562429032377  0.7049563926657714  0.8399574294554457  1.0000
  O   O9        1.0  0.8699168857241588  0.6167615255433603  0.05974175399330051  1.0000
  O   O10       1.0  0.1300797897723385  0.3832366203169144  0.9402493718117528  1.0000
  O   O11       1.0  0.7950009307699374  0.371122020284247  0.013374544106611107  1.0000
  O   O12       1.0  0.20499409922874898  0.6288705472801727  0.9866270740824422  1.0000
  O   O13       1.0  0.4293388932213633  0.9389994930933487  0.13110081951854372  1.0000
  O   O14       1.0  0.5706673764526045  0.06102153487688613  0.8689095591953165  1.0000
  O   O15       1.0  0.703169595526326  0.07379040435569102  0.10026018181049073  1.0000
  O   O16       1.0  0.29683317641787016  0.9262284830195359  0.8997435351967412  1.0000
  O   O17       1.0  0.9098573167658515  0.9352288942426484  0.21401052287017566  1.0000
  O   O18       1.0  0.09014585185907012  0.0647801735810489  0.7859870930396301  1.0000
