data_image0
_chemical_formula_structural       Cd4H40C44N8O20
_chemical_formula_sum              "Cd4 H40 C44 N8 O20"
_cell_length_a       6.620249985000197
_cell_length_b       10.13941807300035
_cell_length_c       17.85857398900037
_cell_angle_alpha    89.99998192245756
_cell_angle_beta     90.00001445090565
_cell_angle_gamma    90.00002408343353

_space_group_name_H-M_alt    "P 1"
_space_group_IT_number       1

loop_
  _space_group_symop_operation_xyz
  'x, y, z'

loop_
  _atom_site_type_symbol
  _atom_site_label
  _atom_site_symmetry_multiplicity
  _atom_site_fract_x
  _atom_site_fract_y
  _atom_site_fract_z
  _atom_site_occupancy
  Cd  Cd1       1.0  0.999553315008477  0.27342384344846243  0.971037238935871  1.0000
  Cd  Cd2       1.0  0.5004452460123688  0.7265761524528358  0.47103756714112416  1.0000
  Cd  Cd3       1.0  0.0004460353618114001  0.7734249102056268  0.5289632177326027  1.0000
  Cd  Cd4       1.0  0.49955523685638065  0.22657420745132836  0.028963121298701808  1.0000
  H   H1        1.0  0.3559206086636167  0.5264076960376584  0.9912801244953897  1.0000
  H   H2        1.0  0.14407947469238988  0.4735931375958485  0.49127995125908097  1.0000
  H   H3        1.0  0.6440785827561583  0.026407774450248705  0.5087198165351126  1.0000
  H   H4        1.0  0.8559196566098137  0.9735914917244985  0.0087201329083015  1.0000
  H   H5        1.0  0.9076656054461623  0.5428120937702873  0.8921624918587554  1.0000
  H   H6        1.0  0.5923374322489323  0.4571889321465862  0.3921617568818476  1.0000
  H   H7        1.0  0.09233510704611801  0.04281097944265611  0.607837446228821  1.0000
  H   H8        1.0  0.40766319901441517  0.9571871081992354  0.10783833022869518  1.0000
  H   H9        1.0  0.13644844575473064  0.5176399723557239  0.7461519206567289  1.0000
  H   H10       1.0  0.3635529775712953  0.48236001104108084  0.2461512059488129  1.0000
  H   H11       1.0  0.8635492295064395  0.0176419475162533  0.753846902036301  1.0000
  H   H12       1.0  0.6364522014392405  0.9823561963964949  0.2538483166910552  1.0000
  H   H13       1.0  0.6763645641951187  0.5096918956938054  0.6123853865444886  1.0000
  H   H14       1.0  0.823633747295382  0.4903073129607732  0.1123852267179402  1.0000
  H   H15       1.0  0.3236331059514939  0.009691675885981998  0.8876151174400775  1.0000
  H   H16       1.0  0.17636841579672344  0.9903072427678058  0.3876154144058859  1.0000
  H   H17       1.0  0.8549257931190725  0.3864856100724055  0.7146584092509727  1.0000
  H   H18       1.0  0.645072589527132  0.6135125555844994  0.2146587709574916  1.0000
  H   H19       1.0  0.1450721194865707  0.8864846017848225  0.7853420271332537  1.0000
  H   H20       1.0  0.35492933110531066  0.1135133873668366  0.2853419377668445  1.0000
  H   H21       1.0  0.6672576706450498  0.31813350400972956  0.8278135781691347  1.0000
  H   H22       1.0  0.8327438117627679  0.6818665713616383  0.32781394476258896  1.0000
  H   H23       1.0  0.33274170849438184  0.8181326100365067  0.6721868704781713  1.0000
  H   H24       1.0  0.16725815285349202  0.18186544190069043  0.17218675169855396  1.0000
  H   H25       1.0  0.660236905232985  0.6888283483735761  0.8227358715371338  1.0000
  H   H26       1.0  0.8397691051930638  0.3111737023160899  0.3227346254130623  1.0000
  H   H27       1.0  0.3397639012178715  0.1888272634606096  0.6772640403537267  1.0000
  H   H28       1.0  0.16023294262964075  0.8111727581583924  0.1772654878940045  1.0000
  H   H29       1.0  0.7575701458277848  0.7906763955963144  0.8955328326530747  1.0000
  H   H30       1.0  0.7424344047290105  0.20932462845082264  0.3955315959067747  1.0000
  H   H31       1.0  0.2424307261604639  0.2906753243506515  0.6044676209203885  1.0000
  H   H32       1.0  0.25756757755585374  0.7093237514109205  0.1044685356729858  1.0000
  H   H33       1.0  0.44753504530970645  0.7810239071290326  0.9611018844259576  1.0000
  H   H34       1.0  0.0524650170501104  0.21897792949933154  0.4611011885428766  1.0000
  H   H35       1.0  0.5524643099507359  0.28102394364191946  0.5388985708790841  1.0000
  H   H36       1.0  0.9475339504124564  0.7189762920374392  0.0388995012600404  1.0000
  H   H37       1.0  0.3421900254621236  0.6924014710476242  0.8841153375249958  1.0000
  H   H38       1.0  0.15781451488609832  0.30760040829812146  0.3841157552795663  1.0000
  H   H39       1.0  0.6578107832880065  0.1924005075186841  0.6158845737247987  1.0000
  H   H40       1.0  0.8421875306377231  0.8075996854439184  0.1158854785788108  1.0000
  C   C1        1.0  0.38928933451772  0.4135137022839642  0.7947101299327102  1.0000
  C   C2        1.0  0.11071061207582739  0.5864882266693883  0.2947088134823943  1.0000
  C   C3        1.0  0.6107085954807802  0.9135158250147767  0.7052897416470145  1.0000
  C   C4        1.0  0.889288270131374  0.08648629083996438  0.2052896602699832  1.0000
  C   C5        1.0  0.2931162334871189  0.48755740158873817  0.7389705060574556  1.0000
  C   C6        1.0  0.20688518484266888  0.5124425857926269  0.2389703315905294  1.0000
  C   C7        1.0  0.7068802336397867  0.9875605060482328  0.7610276723725916  1.0000
  C   C8        1.0  0.7931196917850087  0.012439606380155495  0.2610275954915977  1.0000
  C   C9        1.0  0.3945776457131771  0.5183678806215964  0.6725967873441973  1.0000
  C   C10       1.0  0.1054237264369817  0.48163115733842693  0.17259604917790483  1.0000
  C   C11       1.0  0.6054200300167379  0.018369744093654095  0.8274031551285006  1.0000
  C   C12       1.0  0.8945784310707268  0.981628359005413  0.3274029136373855  1.0000
  C   C13       1.0  0.5980125471798843  0.4825690123502114  0.6637539885437674  1.0000
  C   C14       1.0  0.9019888210839682  0.5174301678021891  0.1637538310114266  1.0000
  C   C15       1.0  0.40198693777063704  0.982569032609035  0.8362458706470335  1.0000
  C   C16       1.0  0.0980145482371597  0.0174279420478669  0.3362463349962325  1.0000
  C   C17       1.0  0.6963985576384459  0.41367255122770535  0.7206415200611715  1.0000
  C   C18       1.0  0.8036028502042357  0.5863256111099558  0.220641341177263  1.0000
  C   C19       1.0  0.3036008829788912  0.9136735622872222  0.7793583514902238  1.0000
  C   C20       1.0  0.19639905293310284  0.08632443018420588  0.2793588124697308  1.0000
  C   C21       1.0  0.5918254777519181  0.37654711421801323  0.785134349939561  1.0000
  C   C22       1.0  0.9081744644449189  0.6234529848344722  0.28513417395112833  1.0000
  C   C23       1.0  0.4081724284586628  0.8765472035250284  0.7148655282725046  1.0000
  C   C24       1.0  0.09182595206566191  0.12345082473110117  0.2148654130797496  1.0000
  C   C25       1.0  0.2725535706313096  0.3693779985911121  0.8619663384177159  1.0000
  C   C26       1.0  0.22744793327187554  0.6306219205444492  0.3619655846722623  1.0000
  C   C27       1.0  0.7274458414836219  0.8693792044425022  0.6380341010356503  1.0000
  C   C28       1.0  0.7725524878518469  0.13061998998050234  0.1380340010724268  1.0000
  C   C29       1.0  0.283462505708016  0.5841182043993028  0.6100693875254989  1.0000
  C   C30       1.0  0.21653731242305702  0.4158838270043931  0.1100686713093282  1.0000
  C   C31       1.0  0.7165367228475858  0.08411907743657572  0.8899305431511166  1.0000
  C   C32       1.0  0.7834632922615726  0.9158829359677586  0.3899314232116637  1.0000
  C   C33       1.0  0.6561675620428388  0.5106681845791883  0.9574678094608445  1.0000
  C   C34       1.0  0.8438340105707454  0.48933181885200855  0.45746709170010297  1.0000
  C   C35       1.0  0.34383161924916555  0.0106691480410319  0.5425321343933973  1.0000
  C   C36       1.0  0.15616664137621686  0.9893309483362387  0.0425329896436111  1.0000
  C   C37       1.0  0.6761305893174382  0.6987746637950278  0.8838023372978938  1.0000
  C   C38       1.0  0.8238724425614664  0.301227353010475  0.3838016514608356  1.0000
  C   C39       1.0  0.323868713016509  0.1987736084016447  0.6161970128533056  1.0000
  C   C40       1.0  0.176128088343674  0.8012254608513559  0.1161984636307167  1.0000
  C   C41       1.0  0.4678967737162266  0.6951718531336085  0.9242120495345673  1.0000
  C   C42       1.0  0.03210628401134841  0.3048290177141268  0.424211336388275  1.0000
  C   C43       1.0  0.5321040368168967  0.19517186358724098  0.5757878612181031  1.0000
  C   C44       1.0  0.9678942492116677  0.8048273653735337  0.07578933801220697  1.0000
  N   N1        1.0  0.47811086515768864  0.5728028869651425  0.9673549233633736  1.0000
  N   N2        1.0  0.0218892015523124  0.42719795994375426  0.46735418732936307  1.0000
  N   N3        1.0  0.5218883561164632  0.0728029185524832  0.5326450093433975  1.0000
  N   N4        1.0  0.9781114104125023  0.9271963343470799  0.032645905161828595  1.0000
  N   N5        1.0  0.7819498307688592  0.5853608629403768  0.9155882048809971  1.0000
  N   N6        1.0  0.718053223224672  0.41464113622845394  0.4155869290710328  1.0000
  N   N7        1.0  0.218050909102729  0.0853597961288699  0.5844117255729202  1.0000
  N   N8        1.0  0.28194738065981545  0.9146392907610092  0.0844126057178727  1.0000
  O   O1        1.0  0.09681551343081202  0.41854252870242437  0.8727062652424564  1.0000
  O   O2        1.0  0.4031844874277652  0.5814583707237659  0.372704976422078  1.0000
  O   O3        1.0  0.9031824198032368  0.9185428025156667  0.6272941653903317  1.0000
  O   O4        1.0  0.5968159020603708  0.08145639786623352  0.1272951780981444  1.0000
  O   O5        1.0  0.347268258270674  0.28101986904565734  0.9044876619558977  1.0000
  O   O6        1.0  0.15273327521626362  0.7189800264965028  0.40448632557524883  1.0000
  O   O7        1.0  0.6527310969875516  0.7810210779760424  0.5955127933497623  1.0000
  O   O8        1.0  0.8472687132819702  0.2189801125402013  0.09551380427215149  1.0000
  O   O9        1.0  0.12856808035235193  0.6528341538542648  0.6259172241835387  1.0000
  O   O10       1.0  0.3714302382874807  0.34716688250593103  0.125916534450667  1.0000
  O   O11       1.0  0.8714327029369642  0.15283310571503247  0.8740826941650184  1.0000
  O   O12       1.0  0.628567301145708  0.8471669439827636  0.3740841323537012  1.0000
  O   O13       1.0  0.3465461964511221  0.5639849263254533  0.5430175659742531  1.0000
  O   O14       1.0  0.1534535750281023  0.43601418353321003  0.0430168403813553  1.0000
  O   O15       1.0  0.6534530191490971  0.06398574483705487  0.9569823683144777  1.0000
  O   O16       1.0  0.8465455320928329  0.9360132726128966  0.4569826905728717  1.0000
  O   O17       1.0  0.7018244218408256  0.3987317789369698  0.98517832077507  1.0000
  O   O18       1.0  0.7981756595355166  0.6012691953683458  0.48517757875936957  1.0000
  O   O19       1.0  0.2981750091620228  0.898730962788754  0.5148221134121229  1.0000
  O   O20       1.0  0.20182474270079354  0.1012681627142271  0.014822572206519197  1.0000
