data_image0
_chemical_formula_structural       Zn8H60C64O36
_chemical_formula_sum              "Zn8 H60 C64 O36"
_cell_length_a       18.265017336802526
_cell_length_b       18.300967960576344
_cell_length_c       18.312781937533334
_cell_angle_alpha    60.256608477384404
_cell_angle_beta     60.0872757065037
_cell_angle_gamma    60.08680762339805

_space_group_name_H-M_alt    "P 1"
_space_group_IT_number       1

loop_
  _space_group_symop_operation_xyz
  'x, y, z'

loop_
  _atom_site_type_symbol
  _atom_site_label
  _atom_site_symmetry_multiplicity
  _atom_site_fract_x
  _atom_site_fract_y
  _atom_site_fract_z
  _atom_site_occupancy
  Zn  Zn1       1.0  0.7051216791783046  0.3826159744975328  0.20248646764796535  1.0000
  Zn  Zn2       1.0  0.29181949063928414  0.7921089723389868  0.7958053397110587  1.0000
  Zn  Zn3       1.0  0.8766779177992773  0.21055698605406553  0.2091939071163366  1.0000
  Zn  Zn4       1.0  0.7034246589484  0.2068049292456706  0.20823996220617128  1.0000
  Zn  Zn5       1.0  0.11933927664318117  0.7957537697337572  0.7940092027354735  1.0000
  Zn  Zn6       1.0  0.7000658551295016  0.21017223810933663  0.3830942515628807  1.0000
  Zn  Zn7       1.0  0.29548349668097273  0.6176442978975486  0.7872196381319794  1.0000
  Zn  Zn8       1.0  0.29160126002261666  0.7946309569132738  0.6181892518402134  1.0000
  H   H1        1.0  0.4793039954629633  0.36654100405648654  0.54350303136178  1.0000
  H   H2        1.0  0.4938359035357251  0.5702428072989747  0.341766857164579  1.0000
  H   H3        1.0  0.778698256358318  0.9215992213289963  0.5137357946024036  1.0000
  H   H4        1.0  0.7445033751943766  0.9574194218575441  0.4215649334530408  1.0000
  H   H5        1.0  0.7413250305041285  0.8515761705456055  0.5070180770627742  1.0000
  H   H6        1.0  0.11266156179437546  0.5925740590888466  0.040445638448439014  1.0000
  H   H7        1.0  0.2043005170793889  0.5038736602065014  0.07730840599236898  1.0000
  H   H8        1.0  0.09083579867473894  0.5062010295355462  0.1459638738383404  1.0000
  H   H9        1.0  0.21471991264034773  0.0700537276762176  0.48746990181652433  1.0000
  H   H10       1.0  0.12486906200658858  0.0345102404620263  0.5812468254613491  1.0000
  H   H11       1.0  0.10021111849562905  0.1399095457040431  0.4956025450531312  1.0000
  H   H12       1.0  0.7430405792911469  0.08453584475629579  0.07149646896046151  1.0000
  H   H13       1.0  0.40975136619545083  0.6616559047292296  0.4307335027476783  1.0000
  H   H14       1.0  0.7071661559688134  0.9953694261892351  0.1656811900860689  1.0000
  H   H15       1.0  0.7797330166155946  0.9777803113311233  0.0599257133348412  1.0000
  H   H16       1.0  0.9476991550243311  0.7840730915153243  0.145098296567987  1.0000
  H   H17       1.0  0.04292873143472768  0.7632467580642556  0.04841962951563508  1.0000
  H   H18       1.0  0.9416646699248902  0.7507054206285558  0.07122830641738193  1.0000
  H   H19       1.0  0.3404211061043084  0.5403486576488278  0.5508188312473263  1.0000
  H   H20       1.0  0.42780325594759444  0.44916059833749233  0.4623106188749444  1.0000
  H   H21       1.0  0.6202644615209961  0.367103113268513  0.5373681362141693  1.0000
  H   H22       1.0  0.6658954927433456  0.45244413936368477  0.45415899040008856  1.0000
  H   H23       1.0  0.5786940752757557  0.5383347823582342  0.5478225348876361  1.0000
  H   H24       1.0  0.5925589486949505  0.5708766685530192  0.335840536328689  1.0000
  H   H25       1.0  0.5297966192323571  0.45511139094693925  0.6303356775312351  1.0000
  H   H26       1.0  0.49831584272078516  0.44530517953968024  0.9015126632446736  1.0000
  H   H27       1.0  0.38349074255502563  0.017657827284224898  0.45672646128311795  1.0000
  H   H28       1.0  0.8609099003980276  0.5408005045300611  0.976108521391445  1.0000
  H   H29       1.0  0.8521843785486921  0.9819527246113039  0.54627705165732  1.0000
  H   H30       1.0  0.5084070589675419  0.6587721647389344  0.4283768741833425  1.0000
  H   H31       1.0  0.15283518375186836  0.0022309607477239996  0.903975102179359  1.0000
  H   H32       1.0  0.05574479296720369  0.1025905721837077  0.9975015504705307  1.0000
  H   H33       1.0  0.550071566224716  0.2882005627193961  0.966782598879362  1.0000
  H   H34       1.0  0.5685669511994148  0.2330468390657927  0.07240334814001394  1.0000
  H   H35       1.0  0.6604052943954669  0.21811961897476093  0.972144085332232  1.0000
  H   H36       1.0  0.3898249558678938  0.45751809283708406  0.633516787902593  1.0000
  H   H37       1.0  0.4120583603086843  0.23759298459297182  0.38485967500666607  1.0000
  H   H38       1.0  0.33974145174868653  0.19233939031568784  0.39269196590785055  1.0000
  H   H39       1.0  0.4026979095960356  0.2516553076374137  0.2853352125852381  1.0000
  H   H40       1.0  0.9514550044815876  0.5861003676199915  0.7912217820828501  1.0000
  H   H41       1.0  0.05823804724001746  0.5939106918154378  0.7599000672795524  1.0000
  H   H42       1.0  0.9697392974739926  0.692170236110826  0.7263973661320902  1.0000
  H   H43       1.0  0.8125649033922784  0.9244525229216476  0.7160023788886672  1.0000
  H   H44       1.0  0.8919104239457026  0.9147318109328422  0.7543423589914082  1.0000
  H   H45       1.0  0.8692345420487301  0.8177044119070658  0.7822515319005058  1.0000
  H   H46       1.0  0.3754178177613597  0.7220270601272103  0.9925165151439114  1.0000
  H   H47       1.0  0.2897478839743711  0.681199670130681  0.029024367080545153  1.0000
  H   H48       1.0  0.3341488608997024  0.6608623888640821  0.10740163990222838  1.0000
  H   H49       1.0  0.5326281979605129  0.7898471379753571  0.6743252406861869  1.0000
  H   H50       1.0  0.6066648900195658  0.8371668518311565  0.6588717422153463  1.0000
  H   H51       1.0  0.49150284559601676  0.8707790724046518  0.723173458174855  1.0000
  H   H52       1.0  0.989681345551517  0.34541996048430695  0.2144905713671222  1.0000
  H   H53       1.0  0.0764841891496744  0.2873617366769494  0.140224479773451  1.0000
  H   H54       1.0  0.09818606516635241  0.3557732649922085  0.16464684117790537  1.0000
  H   H55       1.0  0.9943465516245525  0.2098465321451712  0.33662304823236844  1.0000
  H   H56       1.0  0.10214231074898808  0.15688060762234096  0.3493798905847284  1.0000
  H   H57       1.0  0.07880566285234637  0.13068232448708267  0.2837082765243862  1.0000
  H   H58       1.0  0.5793563940018627  0.5843428514804927  0.0820727180650067  1.0000
  H   H59       1.0  0.493232534568186  0.6182947883025844  0.17620436145721635  1.0000
  H   H60       1.0  0.47670725934894154  0.6743310152516883  0.06997739053837636  1.0000
  C   C1        1.0  0.88152227961244  0.11434671660887116  0.39437772469751314  1.0000
  C   C2        1.0  0.448966522949533  0.9420651314491408  0.5556156626765013  1.0000
  C   C3        1.0  0.9143685429375238  0.9908041478669317  0.5286560215068616  1.0000
  C   C4        1.0  0.5973075077734931  0.2655364484702361  0.0002968654246373551  1.0000
  C   C5        1.0  0.4034296493083004  0.20632071311817407  0.35271617300855945  1.0000
  C   C6        1.0  0.9852228982270006  0.6286845815630638  0.7795105385391704  1.0000
  C   C7        1.0  0.8755670925553217  0.881591727970374  0.7308397369216307  1.0000
  C   C8        1.0  0.351037538974971  0.6652339005186717  0.039192331834485054  1.0000
  C   C9        1.0  0.9452189448364547  0.45015301557929627  0.05812430276974827  1.0000
  C   C10       1.0  0.5390561886705995  0.8512384499724631  0.663507912981707  1.0000
  C   C11       1.0  0.04794942365162308  0.3503450506915015  0.15322525316474156  1.0000
  C   C12       1.0  0.05038713670159468  0.1469834848991383  0.3447891867304661  1.0000
  C   C13       1.0  0.5066415534641348  0.6098338697051845  0.11498512532320132  1.0000
  C   C14       1.0  0.731774170534578  0.9210168441622598  0.49354612796110325  1.0000
  C   C15       1.0  0.1378321577879689  0.5208313806112485  0.0769031105785913  1.0000
  C   C16       1.0  0.9403532290704816  0.05892425264518409  0.45100097580422727  1.0000
  C   C17       1.0  0.1467626011824876  0.0704942629916729  0.5089877056947572  1.0000
  C   C18       1.0  0.7623178753154176  0.0117671512289732  0.10465767732209494  1.0000
  C   C19       1.0  0.9691881443189772  0.7892871599650063  0.07526749646505958  1.0000
  C   C20       1.0  0.430277156442237  0.5484897116787195  0.9607240549015043  1.0000
  C   C21       1.0  0.4204821903578591  0.5791518324177999  0.02341199584238748  1.0000
  C   C22       1.0  0.5194085080242629  0.9243399326013912  0.5807893409234877  1.0000
  C   C23       1.0  0.021695667004720923  0.4285752484130967  0.076043765750306  1.0000
  C   C24       1.0  0.886553765014611  0.39340026195861105  0.11380027323841073  1.0000
  C   C25       1.0  0.020201726626375184  0.07333468834174542  0.4257741693108981  1.0000
  C   C26       1.0  0.47733490118775285  0.5233960479916816  0.0751495401694624  1.0000
  C   C27       1.0  0.5747437727803869  0.9775039143042433  0.5229482231308606  1.0000
  C   C28       1.0  0.07337789763923297  0.4852161309934785  0.018988192466501595  1.0000
  C   C29       1.0  0.07282143593083389  0.015590625996857496  0.48147403552446366  1.0000
  C   C30       1.0  0.3851047539135306  0.8907944215416278  0.6126520917392992  1.0000
  C   C31       1.0  0.5415189954637964  0.44095449513045537  0.06486023664563594  1.0000
  C   C32       1.0  0.5602043383733886  0.04665285991865888  0.44427672853672795  1.0000
  C   C33       1.0  0.05193073357614247  0.5585975990373909  0.9454112289210809  1.0000
  C   C34       1.0  0.048560634607845446  0.9452831951768415  0.5584159603460606  1.0000
  C   C35       1.0  0.378817659211073  0.6057490289271711  0.8970008926886588  1.0000
  C   C36       1.0  0.9144429020701706  0.9932060084782106  0.06703616788838912  1.0000
  C   C37       1.0  0.9685152748882756  0.937740699902427  0.013494838845524318  1.0000
  C   C38       1.0  0.054186563333956855  0.942455578109566  0.9537540022143883  1.0000
  C   C39       1.0  0.9456289371415068  0.054389453746878806  0.058567315396857104  1.0000
  C   C40       1.0  0.08575459276205072  0.0009617504353797997  0.949372446641675  1.0000
  C   C41       1.0  0.03209245184857679  0.0563975064211846  0.0010874376834593038  1.0000
  C   C42       1.0  0.6025876648182376  0.3840130336165686  0.11909020141369807  1.0000
  C   C43       1.0  0.6157954302018566  0.10665942635110777  0.3873661929307062  1.0000
  C   C44       1.0  0.11021812458344023  0.615736787414704  0.8842837543710046  1.0000
  C   C45       1.0  0.10663572344140697  0.8845256138078738  0.6156065227902869  1.0000
  C   C46       1.0  0.8880362784374469  0.11728869179722777  0.11076429309529336  1.0000
  C   C47       1.0  0.11267407144421063  0.8877873792210094  0.8931305419071833  1.0000
  C   C48       1.0  0.6088050884747956  0.3965578939839317  0.3835690814916716  1.0000
  C   C49       1.0  0.39708763973462874  0.6138620623849462  0.603436272914713  1.0000
  C   C50       1.0  0.4634596362659521  0.43755209146394236  0.5029219220272267  1.0000
  C   C51       1.0  0.5299216094157585  0.5568205423557941  0.3827644018258381  1.0000
  C   C52       1.0  0.473463781384467  0.6161577806773124  0.44295820264647284  1.0000
  C   C53       1.0  0.404924540084572  0.4977557008255784  0.5624569780442454  1.0000
  C   C54       1.0  0.6026624499274077  0.4384523866565004  0.49820981712002765  1.0000
  C   C55       1.0  0.5440199355917128  0.4966572163064241  0.5596558456576516  1.0000
  C   C56       1.0  0.5520502220892851  0.45770242849437176  0.44015007521081606  1.0000
  C   C57       1.0  0.4542048030291427  0.5577897036903605  0.5418087865226153  1.0000
  C   C58       1.0  0.5494272801025843  0.41271552466551487  0.001784045726310264  1.0000
  C   C59       1.0  0.4906438055709116  0.061093107078100686  0.42052829468690334  1.0000
  C   C60       1.0  0.9752902888917419  0.5782111617068536  0.9296227807224752  1.0000
  C   C61       1.0  0.9685547680019084  0.9331339617966705  0.5817090157422481  1.0000
  C   C62       1.0  0.4924628189317772  0.4658062109111683  0.9513223375724846  1.0000
  C   C63       1.0  0.4361886529132092  0.008198170108634903  0.47576550446998306  1.0000
  C   C64       1.0  0.9214655060718113  0.5247959013117479  0.9869429264590219  1.0000
  O   O1        1.0  0.7460237439351616  0.2521975711961844  0.25203354694900765  1.0000
  O   O2        1.0  0.8022766079475048  0.43412064440732206  0.13126090535394042  1.0000
  O   O3        1.0  0.3533571210137224  0.8789442537924115  0.5724272884446292  1.0000
  O   O4        1.0  0.3549596476408962  0.5663350622188402  0.8753829781304672  1.0000
  O   O5        1.0  0.6466143206070426  0.42146977446755335  0.11751501515450956  1.0000
  O   O6        1.0  0.6153242908112659  0.14945427025234884  0.4253176297876706  1.0000
  O   O7        1.0  0.19079369666938104  0.5783230699025735  0.8421738154131757  1.0000
  O   O8        1.0  0.18913959057651647  0.8480961137934171  0.5771901939541094  1.0000
  O   O9        1.0  0.2506861329963143  0.7489119879630834  0.7491970691901738  1.0000
  O   O10       1.0  0.9256617128660807  0.30898278271917684  0.13790155704693757  1.0000
  O   O11       1.0  0.9205485967039663  0.14355753436611002  0.3105941053388647  1.0000
  O   O12       1.0  0.36536273254707624  0.6892184665780051  0.8676723492221327  1.0000
  O   O13       1.0  0.36617332885431614  0.8644782957669576  0.6968965053685349  1.0000
  O   O14       1.0  0.657999447028196  0.11012261720909317  0.3060972847757738  1.0000
  O   O15       1.0  0.606241244219305  0.3026784703182345  0.16169384474946458  1.0000
  O   O16       1.0  0.0677997441309515  0.8756084973127257  0.6985000467101726  1.0000
  O   O17       1.0  0.07297127850557658  0.6972852747612066  0.8805674145891942  1.0000
  O   O18       1.0  0.9279810437674811  0.13046437568941366  0.14161821570665012  1.0000
  O   O19       1.0  0.1972449607572883  0.8606783040764298  0.8764218425589544  1.0000
  O   O20       1.0  0.6348454548496464  0.31292011768154987  0.4255522497728634  1.0000
  O   O21       1.0  0.6255868830601297  0.433223455503331  0.29938045768252414  1.0000
  O   O22       1.0  0.3745925694288344  0.6984097992947297  0.5671590944097102  1.0000
  O   O23       1.0  0.3762932721082776  0.571320950670035  0.6873121492544881  1.0000
  O   O24       1.0  0.8054589070349748  0.15420820045068237  0.11780111005116105  1.0000
  O   O25       1.0  0.797548627517699  0.12676357272396638  0.4339811001597057  1.0000
  O   O26       1.0  0.07410693058765348  0.874379347675152  0.8614978727970023  1.0000
  O   O27       1.0  0.6198062311242081  0.3376585777901154  0.9854106543482926  1.0000
  O   O28       1.0  0.4781212199479298  0.1265874933179418  0.34192906099359266  1.0000
  O   O29       1.0  0.9534983597903804  0.6507846221685581  0.8579636573207096  1.0000
  O   O30       1.0  0.9481885398595508  0.8604195258849501  0.6532855271212551  1.0000
  O   O31       1.0  0.46669152180437107  0.5453249519211809  0.14280772786305812  1.0000
  O   O32       1.0  0.6434409827265385  0.9627595059698419  0.5460899960443655  1.0000
  O   O33       1.0  0.1490242943200143  0.46658543474931946  0.03387067433354216  1.0000
  O   O34       1.0  0.15146846958969457  0.0277024099416465  0.4583007143457464  1.0000
  O   O35       1.0  0.836374371347844  0.9811643252627531  0.1333045368335061  1.0000
  O   O36       1.0  0.9346363019932793  0.8802154764016875  0.022826317933315448  1.0000
