data_image0
_chemical_formula_structural       Cd2H36C36N8O10
_chemical_formula_sum              "Cd2 H36 C36 N8 O10"
_cell_length_a       9.505611767580362
_cell_length_b       9.493129701974429
_cell_length_c       11.547370113185613
_cell_angle_alpha    74.1228780836265
_cell_angle_beta     81.44383754529956
_cell_angle_gamma    66.19017750294913

_space_group_name_H-M_alt    "P 1"
_space_group_IT_number       1

loop_
  _space_group_symop_operation_xyz
  'x, y, z'

loop_
  _atom_site_type_symbol
  _atom_site_label
  _atom_site_symmetry_multiplicity
  _atom_site_fract_x
  _atom_site_fract_y
  _atom_site_fract_z
  _atom_site_occupancy
  Cd  Cd1       1.0  0.3019665284628488  0.6969479050710063  0.8946053417542503  1.0000
  Cd  Cd2       1.0  0.6980326015696436  0.3030528911649668  0.10539426824232129  1.0000
  H   H1        1.0  0.7846400589660903  0.2583023628099141  0.389083252955679  1.0000
  H   H2        1.0  0.21536057964421937  0.7416972591007537  0.6109164347927563  1.0000
  H   H3        1.0  0.5195577676527422  0.43785005642327945  0.6108107173635634  1.0000
  H   H4        1.0  0.4804424222834029  0.5621507502841111  0.3891887547749776  1.0000
  H   H5        1.0  0.9593678885606424  0.08487740502327769  0.5373681370987954  1.0000
  H   H6        1.0  0.04062957518834755  0.9151221911391475  0.4626328283251412  1.0000
  H   H7        1.0  0.8036045093560277  0.11133733847015043  0.9038209166824561  1.0000
  H   H8        1.0  0.19639524160523084  0.888664664365983  0.09618006804897318  1.0000
  H   H9        1.0  0.035124714000581016  0.32899676486006507  0.22094996996688823  1.0000
  H   H10       1.0  0.9648759246097284  0.6710028570506026  0.7790497177815471  1.0000
  H   H11       1.0  0.2807961616745517  0.3479841279078072  0.05707345600497865  1.0000
  H   H12       1.0  0.7192040234119548  0.6520166731335737  0.9429251520321673  1.0000
  H   H13       1.0  0.9716402842987791  0.810518297931786  0.07393012708395477  1.0000
  H   H14       1.0  0.02836035431153053  0.18948132397888165  0.9260695606644804  1.0000
  H   H15       1.0  0.7326795642451954  0.722346339048059  0.1975734231564986  1.0000
  H   H16       1.0  0.2673210743651211  0.2776532828626017  0.8024262645919367  1.0000
  H   H17       1.0  0.7962654341929181  0.5267396113553532  0.286362031050338  1.0000
  H   H18       1.0  0.20373581564687976  0.47326120582345516  0.7136373032301652  1.0000
  H   H19       1.0  0.8774941124867157  0.799787785795296  0.3093409049101157  1.0000
  H   H20       1.0  0.1225060822990756  0.20021302657810483  0.6906594313298132  1.0000
  H   H21       1.0  0.9711314624873141  0.6032143557716124  0.3901973762235827  1.0000
  H   H22       1.0  0.028869787352483908  0.3967864614071956  0.6098019580569201  1.0000
  H   H23       1.0  0.7360515280531671  0.9310980052012141  0.4667836936006397  1.0000
  H   H24       1.0  0.2639491154067812  0.06890162237545643  0.5332168582491904  1.0000
  H   H25       1.0  0.8631159904238287  0.7589930693069745  0.5614503249582514  1.0000
  H   H26       1.0  0.1368840418066384  0.24100536300155545  0.438550580359511  1.0000
  H   H27       1.0  0.6193265526450988  0.771992462615948  0.4068832148079054  1.0000
  H   H28       1.0  0.38067408596521796  0.22800715929471949  0.5931164729405299  1.0000
  H   H29       1.0  0.7369485296263251  0.5970322370721063  0.5046033452511625  1.0000
  H   H30       1.0  0.26305255280851725  0.4029661943758213  0.4953956940057723  1.0000
  H   H31       1.0  0.6851435956528605  0.007399119289573301  0.6835963893284003  1.0000
  H   H32       1.0  0.31485401610251545  0.9926028399396924  0.3164014147135248  1.0000
  H   H33       1.0  0.46004471824246435  0.972032926420376  0.8607887166618584  1.0000
  H   H34       1.0  0.5399548604641923  0.027966685018867603  0.13921110894460753  1.0000
  H   H35       1.0  0.5213347905578231  0.6774997729164126  0.6281597857515423  1.0000
  H   H36       1.0  0.47866825882829295  0.32249631074149926  0.3718412750699401  1.0000
  C   C1        1.0  0.6259616589650463  0.3391679398941818  0.6419753341423943  1.0000
  C   C2        1.0  0.37403730366248333  0.660830470610918  0.35802398083061604  1.0000
  C   C3        1.0  0.8721983085749373  0.1398233313894863  0.6013184814263114  1.0000
  C   C4        1.0  0.1278012749813584  0.8601762857157739  0.3986822082815565  1.0000
  C   C5        1.0  0.7371412296536731  0.2675736715161888  0.5592259473672387  1.0000
  C   C6        1.0  0.26285835390262235  0.7324259455890711  0.44077474234062225  1.0000
  C   C7        1.0  0.8958197524220992  0.08406163128764631  0.7251392505518837  1.0000
  C   C8        1.0  0.10417771132689067  0.9159379648747715  0.2748617148720599  1.0000
  C   C9        1.0  0.7849612325682856  0.1555113692994894  0.8076609353647443  1.0000
  C   C10       1.0  0.2150379023138456  0.8444894326024864  0.1923395387332221  1.0000
  C   C11       1.0  0.6498538786106778  0.28310337106275085  0.7656615325386371  1.0000
  C   C12       1.0  0.3501452562714533  0.7168974308392322  0.23433894155932927  1.0000
  C   C13       1.0  0.530570858374837  0.3647508342270385  0.8526037572879662  1.0000
  C   C14       1.0  0.4694287251814656  0.6352487828782217  0.14739693241989474  1.0000
  C   C15       1.0  0.039611273928095214  0.9457717912838534  0.7699319874109138  1.0000
  C   C16       1.0  0.9603872545741938  0.0542278210159992  0.23006970425638684  1.0000
  C   C17       1.0  0.06208485984267753  0.4290158735712737  0.1673606294834968  1.0000
  C   C18       1.0  0.9379157739179935  0.5709837426733841  0.8326381941635437  1.0000
  C   C19       1.0  0.17946861562041516  0.44010376944352453  0.0848052503788566  1.0000
  C   C20       1.0  0.820531569466084  0.5598970315978562  0.9151933576582822  1.0000
  C   C21       1.0  0.022809287087952206  0.6821643405524969  0.08911585596351299  1.0000
  C   C22       1.0  0.9771902916187045  0.3178352708867465  0.9108839696429603  1.0000
  C   C23       1.0  0.8289857455859391  0.6292397205031008  0.25023183081896166  1.0000
  C   C24       1.0  0.17101489787401639  0.3707599070735769  0.7497687210308686  1.0000
  C   C25       1.0  0.8612123852063787  0.6880579930875755  0.3501481151004101  1.0000
  C   C26       1.0  0.138787804729759  0.31194281361981524  0.6498513570381237  1.0000
  C   C27       1.0  0.7480024057169529  0.8134815771088881  0.5239457480235147  1.0000
  C   C28       1.0  0.2519971778393498  0.18651803999636474  0.4760549416843532  1.0000
  C   C29       1.0  0.7321570739515622  0.7127610225787464  0.44810526866587713  1.0000
  C   C30       1.0  0.26784295342926606  0.28723740406377374  0.5518947725504902  1.0000
  C   C31       1.0  0.6164359670751053  0.9362957718300609  0.6985477491384133  1.0000
  C   C32       1.0  0.38356316295738685  0.06370502440590542  0.30145186085816533  1.0000
  C   C33       1.0  0.5048505265627342  0.9181234888358317  0.7846901562917241  1.0000
  C   C34       1.0  0.4951495008180942  0.08187493780668828  0.2153098849246363  1.0000
  C   C35       1.0  0.5347435618965759  0.7623995290629256  0.667413305866532  1.0000
  C   C36       1.0  0.465258432435526  0.23759654978957911  0.33258875691438317  1.0000
  N   N1        1.0  0.9640387736141276  0.5830139873065934  0.16877619420959897  1.0000
  N   N2        1.0  0.03596141632201727  0.4169868194007975  0.8312232779289348  1.0000
  N   N3        1.0  0.153296314731449  0.5982823820875538  0.03681654545083295  1.0000
  N   N4        1.0  0.8467028201506822  0.40171841981442913  0.9631839286471335  1.0000
  N   N5        1.0  0.45463549373811685  0.8100620458843723  0.7640106677279946  1.0000
  N   N6        1.0  0.5453660470701819  0.18993521209885236  0.23599031534162418  1.0000
  N   N7        1.0  0.6339395520523396  0.8371692984563593  0.6245648959153345  1.0000
  N   N8        1.0  0.36606048017813464  0.1628291338521706  0.37543600940242794  1.0000
  O   O1        1.0  0.4201621906501246  0.4904068948811044  0.8054960582734838  1.0000
  O   O2        1.0  0.5798373929061712  0.5095927222241485  0.19450463143437705  1.0000
  O   O3        1.0  0.5449035932319503  0.30551077439690016  0.9650821142108301  1.0000
  O   O4        1.0  0.4550970453783662  0.6944888475137675  0.0349175735376051  1.0000
  O   O5        1.0  0.09947125896626834  0.8363443042002815  0.7123777443382266  1.0000
  O   O6        1.0  0.9005289309698696  0.1636565025071093  0.28762172780031403  1.0000
  O   O7        1.0  0.0931507249607222  0.9437698333132261  0.8654419571333708  1.0000
  O   O8        1.0  0.9068490163012511  0.0562321581908876  0.13455729939526861  1.0000
  O   O9        1.0  0.7079414807017699  0.3264119584558571  0.440246025415597  1.0000
  O   O10       1.0  0.2920585515286973  0.6735864738526729  0.5597548799021654  1.0000
