data_image0
_chemical_formula_structural       Mn2H40C46N8O10
_chemical_formula_sum              "Mn2 H40 C46 N8 O10"
_cell_length_a       9.482581042378968
_cell_length_b       9.97492074734058
_cell_length_c       12.85043399408808
_cell_angle_alpha    80.50850966843309
_cell_angle_beta     81.87232322195659
_cell_angle_gamma    63.05395923777239

_space_group_name_H-M_alt    "P 1"
_space_group_IT_number       1

loop_
  _space_group_symop_operation_xyz
  'x, y, z'

loop_
  _atom_site_type_symbol
  _atom_site_label
  _atom_site_symmetry_multiplicity
  _atom_site_fract_x
  _atom_site_fract_y
  _atom_site_fract_z
  _atom_site_occupancy
  Mn  Mn1       1.0  0.3368533542964798  0.17311386606569806  0.09683096890072562  1.0000
  Mn  Mn2       1.0  0.6631524436551007  0.8268864418327694  0.9031690603104039  1.0000
  H   H1        1.0  0.913465024917102  0.6647632841374218  0.07100192610180765  1.0000
  H   H2        1.0  0.08653493954783194  0.3352358671564843  0.9290012241006379  1.0000
  H   H3        1.0  0.6833702235695824  0.9382269001726228  0.32595094025985827  1.0000
  H   H4        1.0  0.3166318577662537  0.06176999206111591  0.6740522758086557  1.0000
  H   H5        1.0  0.07039910556922284  0.4915275028178313  0.3860350080548827  1.0000
  H   H6        1.0  0.9296061678828738  0.5084716715585387  0.6139667832506674  1.0000
  H   H7        1.0  0.7982491265588368  0.9526036234256166  0.4778935911374376  1.0000
  H   H8        1.0  0.20175084692682085  0.04739779685149868  0.5221092605795405  1.0000
  H   H9        1.0  0.7822146534082184  0.8425337667777343  0.6010860576857978  1.0000
  H   H10       1.0  0.21778584457690905  0.1574687870214788  0.39891503193675953  1.0000
  H   H11       1.0  0.6413766754801673  0.8954194698955645  0.5047556510670006  1.0000
  H   H12       1.0  0.3586264515758019  0.1045774221242866  0.4952451166465507  1.0000
  H   H13       1.0  0.658554404864816  0.1865181275019694  0.9514802002421021  1.0000
  H   H14       1.0  0.3414434074620944  0.8134787397102697  0.04852114901991915  1.0000
  H   H15       1.0  0.6436675130327957  0.45661270272525195  0.8345640450511026  1.0000
  H   H16       1.0  0.3563340003314792  0.5433807766523628  0.16543656750675947  1.0000
  H   H17       1.0  0.18230126529972798  0.520046391057633  0.9565317540779006  1.0000
  H   H18       1.0  0.8176970862892718  0.4799538803850467  0.043468311952658226  1.0000
  H   H19       1.0  0.4039363227603802  0.7391822557360186  0.8456947379943854  1.0000
  H   H20       1.0  0.5960609396364023  0.26081573658652246  0.15430341078605636  1.0000
  H   H21       1.0  0.21204048359263802  0.7462278323954196  0.8666892451983442  1.0000
  H   H22       1.0  0.7879599766623004  0.2537724437949009  0.13330825616755954  1.0000
  H   H23       1.0  0.1430217193138291  0.6187929261447919  0.7282660360005836  1.0000
  H   H24       1.0  0.8569787146947052  0.38120507588690333  0.2717294318055181  1.0000
  H   H25       1.0  0.1462290635061619  0.6122275471936761  0.5357284022701946  1.0000
  H   H26       1.0  0.8537697953566338  0.3877738525956929  0.4642675696206738  1.0000
  H   H27       1.0  0.5273301205827682  0.7436332459857055  0.47805061535406407  1.0000
  H   H28       1.0  0.47267457013515485  0.25636024482620456  0.5219480935778691  1.0000
  H   H29       1.0  0.5210621090121423  0.753805514324192  0.6714631252280228  1.0000
  H   H30       1.0  0.4789499919854805  0.24617893701065433  0.32853674082632983  1.0000
  H   H31       1.0  0.46724098079138104  0.6078802160158787  0.3460342781422269  1.0000
  H   H32       1.0  0.5327536361246317  0.3921279657016327  0.6539589314857607  1.0000
  H   H33       1.0  0.2794389508791827  0.6067083698899934  0.3628561846195452  1.0000
  H   H34       1.0  0.7205540785915476  0.3932986733438996  0.6371389034125627  1.0000
  H   H35       1.0  0.4863548847129664  0.852400817473992  0.2711143043400739  1.0000
  H   H36       1.0  0.5136397723963101  0.1476073763194705  0.728884346726879  1.0000
  H   H37       1.0  0.014761439206985524  0.1262844252740223  0.1949665965115059  1.0000
  H   H38       1.0  0.9852327253911071  0.8737249108811015  0.8050366275580956  1.0000
  H   H39       1.0  0.03100857923166003  0.8633304341132301  0.3195426470899179  1.0000
  H   H40       1.0  0.9689844822273628  0.13667888500442155  0.6804552518504181  1.0000
  C   C1        1.0  0.12496064696770054  0.41780541559684536  0.18433614038252702  1.0000
  C   C2        1.0  0.8750424858301572  0.5821914781481398  0.81566540467945  1.0000
  C   C3        1.0  0.004246396136252982  0.5630809159188387  0.2243973305751368  1.0000
  C   C4        1.0  0.9957530298823444  0.43691936393563674  0.7756041738425736  1.0000
  C   C5        1.0  0.9033535586466854  0.6791473616303493  0.15427958054151247  1.0000
  C   C6        1.0  0.09664535435622677  0.3208517881523035  0.8457252406674628  1.0000
  C   C7        1.0  0.7894577836880005  0.81355765219039  0.19169978424287853  1.0000
  C   C8        1.0  0.2105448336311043  0.18644037701571387  0.8083032244280588  1.0000
  C   C9        1.0  0.7733412502613461  0.8317214253193583  0.2997699450607954  1.0000
  C   C10       1.0  0.22666084583710247  0.16827773762273077  0.7002337498706835  1.0000
  C   C11       1.0  0.8742580776976894  0.7149430644647767  0.3692579753999041  1.0000
  C   C12       1.0  0.12574771123316714  0.2850549744504817  0.6307423522966857  1.0000
  C   C13       1.0  0.991692509903182  0.5813739002651699  0.331273184028518  1.0000
  C   C14       1.0  0.00831383223662395  0.41862528079786177  0.6687292683157651  1.0000
  C   C15       1.0  0.6802305382116959  0.9377305722323396  0.1170850439803246  1.0000
  C   C16       1.0  0.31977208157047693  0.06226519144082229  0.8829198178729172  1.0000
  C   C17       1.0  0.7663930840008181  0.8619540950911784  0.5163106593838052  1.0000
  C   C18       1.0  0.23360794094685391  0.1380473266971904  0.4836905213266363  1.0000
  C   C19       1.0  0.5581389959812598  0.2957573135804807  0.9356327967553284  1.0000
  C   C20       1.0  0.4418566937328451  0.704241810966792  0.064367709292199  1.0000
  C   C21       1.0  0.5531593289790566  0.4258539568930502  0.8767896152525836  1.0000
  C   C22       1.0  0.4468390193311152  0.5741440472915543  0.12321152661186116  1.0000
  C   C23       1.0  0.31049670257948503  0.4632837138067813  0.9417282377502757  1.0000
  C   C24       1.0  0.6895000500804332  0.5367154157020122  0.05827215198755203  1.0000
  C   C25       1.0  0.3319667459008004  0.6857861727321293  0.8294160662985419  1.0000
  C   C26       1.0  0.6680352804791669  0.31420843671730836  0.17058122946804843  1.0000
  C   C27       1.0  0.32968331422070224  0.6895886477486001  0.7117660158567887  1.0000
  C   C28       1.0  0.6703187064173692  0.3104059599756964  0.2882305025613832  1.0000
  C   C29       1.0  0.22556521372035135  0.6487115357760374  0.6730944951876053  1.0000
  C   C30       1.0  0.7744352260300786  0.351286467980799  0.3269017499669146  1.0000
  C   C31       1.0  0.22840503918627778  0.643592955821724  0.5650456726915962  1.0000
  C   C32       1.0  0.7715948736016077  0.3564061799459565  0.43495048137503994  1.0000
  C   C33       1.0  0.3364481129675101  0.6785203937988837  0.4940748531077972  1.0000
  C   C34       1.0  0.6635544584164424  0.3214776216061281  0.5059219367757635  1.0000
  C   C35       1.0  0.44034396142894394  0.7196929744765369  0.5329193618943151  1.0000
  C   C36       1.0  0.5596601965845381  0.28030164662107626  0.4670784786013158  1.0000
  C   C37       1.0  0.43703213078843134  0.7260754866198339  0.6408841691438313  1.0000
  C   C38       1.0  0.5629699160960444  0.27392139526308756  0.3591143828341501  1.0000
  C   C39       1.0  0.34373560156987554  0.6688076462471316  0.3773523603660037  1.0000
  C   C40       1.0  0.656259550513653  0.33119713965172787  0.622643570880598  1.0000
  C   C41       1.0  0.35963095390690836  0.8948274331532957  0.26744703452219903  1.0000
  C   C42       1.0  0.6403621042732868  0.1051796187062806  0.7325519402520229  1.0000
  C   C43       1.0  0.11475939491825933  0.030978772656162293  0.2301831712104701  1.0000
  C   C44       1.0  0.8852353056631017  0.9690317004713265  0.769819845461555  1.0000
  C   C45       1.0  0.12067249991981314  0.902505629976666  0.292060820352205  1.0000
  C   C46       1.0  0.8793216294111663  0.09749916303662332  0.7079406686430544  1.0000
  N   N1        1.0  0.4061497142323491  0.3205609216258765  0.9764426945416673  1.0000
  N   N2        1.0  0.5938475801527332  0.6794393465804233  0.023558265147009594  1.0000
  N   N3        1.0  0.3954693299280695  0.530571604000684  0.881833068750808  1.0000
  N   N4        1.0  0.6045311295111093  0.46942413939861877  0.11816736163128637  1.0000
  N   N5        1.0  0.2771096609929061  0.8171837698390831  0.3147237604690005  1.0000
  N   N6        1.0  0.7228833766827877  0.18282100958700906  0.6852739580938376  1.0000
  N   N7        1.0  0.2642669641094956  0.025228929890950297  0.21547770579297074  1.0000
  N   N8        1.0  0.7357240001673733  0.9747803879293357  0.7845243125088643  1.0000
  O   O1        1.0  0.08681933543005026  0.367228155859884  0.11281394797947537  1.0000
  O   O2        1.0  0.9131901643746548  0.6327732969949693  0.8871824155113047  1.0000
  O   O3        1.0  0.26092149393461034  0.3502586629990248  0.22116320638212272  1.0000
  O   O4        1.0  0.7390827190347483  0.6497382408828896  0.7788405544154244  1.0000
  O   O5        1.0  0.707280263308832  0.9273321065087288  0.018185904510474398  1.0000
  O   O6        1.0  0.29272023960243854  0.07266591622460081  0.9818188914766922  1.0000
  O   O7        1.0  0.563848625527335  0.04877070727240349  0.1578171254487728  1.0000
  O   O8        1.0  0.43615187164203956  0.9512273137357923  0.8421868931899752  1.0000
  O   O9        1.0  0.869206798024159  0.7209982193337865  0.4756884618415853  1.0000
  O   O10       1.0  0.13079476536985624  0.2790020738940058  0.5243143646535842  1.0000
