data_image0
_chemical_formula_structural       Cd4H68C48N8Cl4O8
_chemical_formula_sum              "Cd4 H68 C48 N8 Cl4 O8"
_cell_length_a       6.90466053502009
_cell_length_b       14.028988625037476
_cell_length_c       16.072899845026654
_cell_angle_alpha    90.00013826814622
_cell_angle_beta     90.00015699513048
_cell_angle_gamma    89.9997735119841

_space_group_name_H-M_alt    "P 1"
_space_group_IT_number       1

loop_
  _space_group_symop_operation_xyz
  'x, y, z'

loop_
  _atom_site_type_symbol
  _atom_site_label
  _atom_site_symmetry_multiplicity
  _atom_site_fract_x
  _atom_site_fract_y
  _atom_site_fract_z
  _atom_site_occupancy
  Cd  Cd1       1.0  0.6463511156269703  0.26645351293177555  0.11019546369288956  1.0000
  Cd  Cd2       1.0  0.8536441486833795  0.7335475459774017  0.6101917272392261  1.0000
  Cd  Cd3       1.0  0.1463479659179683  0.23354821706836762  0.889805540848315  1.0000
  Cd  Cd4       1.0  0.3536491496832426  0.7664538779256349  0.3898055969580343  1.0000
  H   H1        1.0  0.6467474577217871  0.07571639723051501  0.17089370664521655  1.0000
  H   H2        1.0  0.8532525365467336  0.9242841169301883  0.6708916152310709  1.0000
  H   H3        1.0  0.14674963554438852  0.4242824807501862  0.8291054318694154  1.0000
  H   H4        1.0  0.3532557847870591  0.5757165949307818  0.3291075749967336  1.0000
  H   H5        1.0  0.9011441931011033  0.8427082769403141  0.3683263674987744  1.0000
  H   H6        1.0  0.5988556053642781  0.15729349669798154  0.8683304499523321  1.0000
  H   H7        1.0  0.4011414653957104  0.6572909159482876  0.6316735015681163  1.0000
  H   H8        1.0  0.09885111608844001  0.342706900278131  0.13167547569868535  1.0000
  H   H9        1.0  0.7350469341722105  0.9874151603300093  0.31425466033007887  1.0000
  H   H10       1.0  0.7649612110282789  0.012590027627815897  0.8142549020130051  1.0000
  H   H11       1.0  0.23503991622005319  0.5125857819681273  0.6857431456670756  1.0000
  H   H12       1.0  0.2649631463593635  0.48741075833935105  0.1857456207379543  1.0000
  H   H13       1.0  0.2739819615522947  0.06854807020305743  0.19789793971123268  1.0000
  H   H14       1.0  0.2260211781511927  0.9314456525220649  0.6979019344417029  1.0000
  H   H15       1.0  0.7739707984525239  0.4314505597626309  0.8021025937056125  1.0000
  H   H16       1.0  0.7260314764760096  0.5685517433128667  0.3021014603675242  1.0000
  H   H17       1.0  0.41657083947573886  0.9147586877550539  0.25338921186884295  1.0000
  H   H18       1.0  0.083429755678317  0.0852330501938212  0.7533962353384286  1.0000
  H   H19       1.0  0.9165649960856397  0.5852397622577075  0.7466131641136617  1.0000
  H   H20       1.0  0.5834311336477428  0.41476238718615127  0.2466146493767384  1.0000
  H   H21       1.0  0.8206444315414315  0.1671612990152767  0.26690956031877283  1.0000
  H   H22       1.0  0.6793605167541514  0.8328330657063036  0.7669083150922378  1.0000
  H   H23       1.0  0.3206409400748313  0.33283510154770823  0.7330891618287017  1.0000
  H   H24       1.0  0.17936821604067177  0.6671615698442254  0.23308942500307958  1.0000
  H   H25       1.0  0.015805172824897795  0.17824546382245643  0.19568237178958742  1.0000
  H   H26       1.0  0.4841936078707931  0.8217596577217279  0.695681464029484  1.0000
  H   H27       1.0  0.5158021445605314  0.3217543822298623  0.8043159895897747  1.0000
  H   H28       1.0  0.9842044893110327  0.6782457885413963  0.3043153925132602  1.0000
  H   H29       1.0  0.9522165090364113  0.0102878966028399  0.09293713298986725  1.0000
  H   H30       1.0  0.5477800940942146  0.9897159657665359  0.592939172831976  1.0000
  H   H31       1.0  0.45221865692244717  0.48971323713242754  0.9070580118876211  1.0000
  H   H32       1.0  0.04778291302923069  0.5102860543879687  0.40705841154505884  1.0000
  H   H33       1.0  0.5694006651469863  0.0708548900379853  0.011963405177922904  1.0000
  H   H34       1.0  0.9305925277208614  0.9291444712717338  0.511964526348642  1.0000
  H   H35       1.0  0.06940670882002559  0.42914200028446464  0.9880325309719784  1.0000
  H   H36       1.0  0.4305953748309221  0.5708560898237848  0.48803475540932356  1.0000
  H   H37       1.0  0.7430261856006125  0.9955470740925847  0.9647944082397975  1.0000
  H   H38       1.0  0.7569713282360766  0.004454966647827501  0.4647952358877278  1.0000
  H   H39       1.0  0.2430295888954817  0.5044517142105748  0.035202785039302915  1.0000
  H   H40       1.0  0.2569710703733961  0.49554654770491874  0.5352040330762836  1.0000
  H   H41       1.0  0.5418711883113331  0.9476445849581411  0.12936191924446666  1.0000
  H   H42       1.0  0.9581285424973771  0.0523558142125395  0.6293630953519413  1.0000
  H   H43       1.0  0.041872265986882  0.5523560210990298  0.8706369024674887  1.0000
  H   H44       1.0  0.4581232797216543  0.4476438823916027  0.3706364116732957  1.0000
  H   H45       1.0  0.4457230872186456  0.8771874262983489  0.95357584593792  1.0000
  H   H46       1.0  0.0542744329446947  0.122811281216336  0.45357606047368665  1.0000
  H   H47       1.0  0.9457255354763064  0.6228088284444977  0.04642407588729471  1.0000
  H   H48       1.0  0.5542794623737707  0.3771906282666535  0.5464229686055833  1.0000
  H   H49       1.0  0.30484679992482466  0.9601508992170336  0.010908991564647905  1.0000
  H   H50       1.0  0.1951493603359324  0.03984729543669369  0.5109098301361572  1.0000
  H   H51       1.0  0.8048515484256739  0.5398449173367083  0.9890907635368082  1.0000
  H   H52       1.0  0.695149016134529  0.4601550522393297  0.48908812133291263  1.0000
  H   H53       1.0  0.3323071073275087  0.8408173027518872  0.04736776687777682  1.0000
  H   H54       1.0  0.1676936291083919  0.15918170565502987  0.5473682017821633  1.0000
  H   H55       1.0  0.8323063230995088  0.6591798858976292  0.9526332650511836  1.0000
  H   H56       1.0  0.6676940101799929  0.3408199827333291  0.45263033935852104  1.0000
  H   H57       1.0  0.7847072786813952  0.8255405844269249  0.010219774841346004  1.0000
  H   H58       1.0  0.7152916963108993  0.1744594848591277  0.5102209203760497  1.0000
  H   H59       1.0  0.2847081334344637  0.6744581226311653  0.9897812007566035  1.0000
  H   H60       1.0  0.21529251300248123  0.3255413979378545  0.4897820322524  1.0000
  H   H61       1.0  0.662288972127264  0.7834387208056058  0.10084985019049955  1.0000
  H   H62       1.0  0.8377120260969732  0.2165623122268485  0.6008499848293456  1.0000
  H   H63       1.0  0.1622903627517118  0.7165623633240443  0.8991522248608422  1.0000
  H   H64       1.0  0.3377068121504437  0.28343761911950344  0.3991518683463513  1.0000
  H   H65       1.0  0.8578783142491062  0.8633822972130859  0.11107284747916424  1.0000
  H   H66       1.0  0.6421213005326579  0.13661947693832838  0.6110744489924829  1.0000
  H   H67       1.0  0.3578802808194438  0.6366191184423047  0.8889269703884185  1.0000
  H   H68       1.0  0.14211827752410497  0.3633794100707918  0.3889284170356932  1.0000
  C   C1        1.0  0.9786741072686951  0.8939691490998031  0.3298430569502459  1.0000
  C   C2        1.0  0.5213182055856221  0.10602895393920872  0.829844451162565  1.0000
  C   C3        1.0  0.4786662413860369  0.6060327438950354  0.6701556595412304  1.0000
  C   C4        1.0  0.021333825705696093  0.3939651788741187  0.17015702757273496  1.0000
  C   C5        1.0  0.8873208954789646  0.9752487543654313  0.299390587283206  1.0000
  C   C6        1.0  0.6126915003389043  0.024754966819195097  0.7993956516651228  1.0000
  C   C7        1.0  0.3873167709019825  0.5247511782804324  0.7006086432587326  1.0000
  C   C8        1.0  0.1126805927953853  0.4752461160048114  0.200612779018421  1.0000
  C   C9        1.0  0.992835833348458  0.04017191285203841  0.2514922733836898  1.0000
  C   C10       1.0  0.5071646722362928  0.9598266860453961  0.7514917136344368  1.0000
  C   C11       1.0  0.49282418026722746  0.45982842890744996  0.7485054082181224  1.0000
  C   C12       1.0  0.007182177043823399  0.5401704236017936  0.24850582267846738  1.0000
  C   C13       1.0  0.1865239574644448  0.018526780328741707  0.2338079701502381  1.0000
  C   C14       1.0  0.31348954811601  0.9814706058661502  0.7338134179356434  1.0000
  C   C15       1.0  0.6865179587949655  0.4814720201251673  0.766194948425863  1.0000
  C   C16       1.0  0.8134782951602303  0.5185294707257029  0.26619505770308655  1.0000
  C   C17       1.0  0.2665315582801995  0.9353248379492883  0.26551452357273336  1.0000
  C   C18       1.0  0.2334662171902835  0.06466907200396581  0.7655210591899577  1.0000
  C   C19       1.0  0.7665214579088797  0.5646774685989869  0.7344858083466055  1.0000
  C   C20       1.0  0.7334789397863517  0.43532179601985627  0.2344850257705674  1.0000
  C   C21       1.0  0.9016723043077306  0.12989474501664938  0.21778153321256621  1.0000
  C   C22       1.0  0.5983265391094007  0.870106611780024  0.7177796483118544  1.0000
  C   C23       1.0  0.40167027405770744  0.37010506163529294  0.782214796173378  1.0000
  C   C24       1.0  0.09833195221117558  0.6298938842150861  0.2822161293901574  1.0000
  C   C25       1.0  0.8442181678915972  0.06454135405642349  0.07546796981247893  1.0000
  C   C26       1.0  0.6557768761156807  0.9354617471320026  0.5754675346951219  1.0000
  C   C27       1.0  0.3442208614981297  0.43545785178428537  0.9245301580754489  1.0000
  C   C28       1.0  0.15578081929358228  0.5645422009245067  0.4245314218274603  1.0000
  C   C29       1.0  0.9481489522999667  0.13580789392150192  0.018741566009275307  1.0000
  C   C30       1.0  0.5518515250357082  0.864194337385257  0.5187408579995891  1.0000
  C   C31       1.0  0.4481482321297463  0.3641925349412319  0.9812573070434785  1.0000
  C   C32       1.0  0.0518567051064522  0.6358083876364445  0.48125424253698434  1.0000
  C   C33       1.0  0.6816396052447756  0.016918622789461303  0.025095457132167112  1.0000
  C   C34       1.0  0.8183551192141179  0.9830836261174413  0.525095936752422  1.0000
  C   C35       1.0  0.1816494781523659  0.4830823255928749  0.974902478352917  1.0000
  C   C36       1.0  0.31835252219828186  0.5169164409690198  0.47490383433602573  1.0000
  C   C37       1.0  0.5888625096823075  0.9289581431466375  0.06566838050566302  1.0000
  C   C38       1.0  0.9111382653611527  0.07104207966503401  0.5656689181379237  1.0000
  C   C39       1.0  0.08886239334228209  0.5710409456877417  0.9343304968174099  1.0000
  C   C40       1.0  0.411136453024845  0.42895913415852494  0.43433115544403494  1.0000
  C   C41       1.0  0.407224285318577  0.9004551288356878  0.016895463551819007  1.0000
  C   C42       1.0  0.09277336121070329  0.0995445080116824  0.5168963065213605  1.0000
  C   C43       1.0  0.907227069032544  0.5995419137649236  0.9831037905464943  1.0000
  C   C44       1.0  0.5927749058533889  0.40045661361464374  0.48310214595257167  1.0000
  C   C45       1.0  0.7315766143731252  0.8458315648097497  0.07233861134758263  1.0000
  C   C46       1.0  0.7684198580956972  0.15416867647577703  0.5723397770823627  1.0000
  C   C47       1.0  0.2315815825851857  0.6541686714354001  0.9276616792099123  1.0000
  C   C48       1.0  0.2684172214722124  0.34583210275531684  0.4276619940896681  1.0000
  N   N1        1.0  0.16531481290704866  0.8745258946049504  0.31346903191136033  1.0000
  N   N2        1.0  0.3346905082529759  0.12546957373650264  0.8134739487050955  1.0000
  N   N3        1.0  0.6653169556752873  0.625470906767724  0.6865336688822199  1.0000
  N   N4        1.0  0.8346744480415893  0.3745296507119775  0.18653598903598126  1.0000
  N   N5        1.0  0.7636001971063349  0.1125606764725546  0.14886854197370525  1.0000
  N   N6        1.0  0.7363996574474853  0.887438351086075  0.6488674791009716  1.0000
  N   N7        1.0  0.26359846508842116  0.3874386865275172  0.8511288683365239  1.0000
  N   N8        1.0  0.23640419836130624  0.6125604501353907  0.3511309506669563  1.0000
  Cl  Cl1       1.0  0.3893975619201981  0.24606755436027333  0.21860385473210905  1.0000
  Cl  Cl2       1.0  0.1105970193276065  0.7539312153695478  0.7186054729993645  1.0000
  Cl  Cl3       1.0  0.8894007250665651  0.2539322762122893  0.7813905936341998  1.0000
  Cl  Cl4       1.0  0.610599970191039  0.74606925671403  0.281394674379925  1.0000
  O   O1        1.0  0.9031282862735139  0.22417140142316336  0.020079909781976806  1.0000
  O   O2        1.0  0.5968620614567113  0.7758336848362575  0.5200778248657018  1.0000
  O   O3        1.0  0.4031268176180518  0.27583125363760524  0.9799226429830842  1.0000
  O   O4        1.0  0.09686652477414977  0.7241703780668587  0.4799204397673764  1.0000
  O   O5        1.0  0.0718019970780546  0.10130721988562641  0.9688614092962884  1.0000
  O   O6        1.0  0.42818982682501167  0.8986993708611949  0.468858720946564  1.0000
  O   O7        1.0  0.5718122750338281  0.39869465542332694  0.031137018364361814  1.0000
  O   O8        1.0  0.9281839360688051  0.6013040461639533  0.5311393136351443  1.0000
