data_image0
_chemical_formula_structural       Cd3H16C20Br4N22
_chemical_formula_sum              "Cd3 H16 C20 Br4 N22"
_cell_length_a       6.862066639486727
_cell_length_b       9.443659268574558
_cell_length_c       13.156510111022017
_cell_angle_alpha    82.09659190520188
_cell_angle_beta     81.95630658565574
_cell_angle_gamma    88.74742332582125

_space_group_name_H-M_alt    "P 1"
_space_group_IT_number       1

loop_
  _space_group_symop_operation_xyz
  'x, y, z'

loop_
  _atom_site_type_symbol
  _atom_site_label
  _atom_site_symmetry_multiplicity
  _atom_site_fract_x
  _atom_site_fract_y
  _atom_site_fract_z
  _atom_site_occupancy
  Cd  Cd1       1.0  2.682387006014332e-07  0.9999994369508303  0.999999335245285  1.0000
  Cd  Cd2       1.0  0.250228105391848  0.41761928298590345  0.977334746299384  1.0000
  Cd  Cd3       1.0  0.749774094232599  0.5823787856674871  0.02266614461665026  1.0000
  H   H1        1.0  0.0069900369624918005  0.25983710944909433  0.8070759178026635  1.0000
  H   H2        1.0  0.9930062724904258  0.7401609685484589  0.1929246483918305  1.0000
  H   H3        1.0  0.09147348265050678  0.3060801012399992  0.614320790263591  1.0000
  H   H4        1.0  0.9085272418978078  0.6939211766678286  0.3856798955725437  1.0000
  H   H5        1.0  0.2883060737940326  0.8662805882295932  0.6238306630836162  1.0000
  H   H6        1.0  0.7116961161161725  0.1337238959662415  0.3761688400874377  1.0000
  H   H7        1.0  0.20768108748050199  0.8412993737664822  0.8155004942688251  1.0000
  H   H8        1.0  0.7923225786084627  0.1587008321073569  0.18449931861229632  1.0000
  H   H9        1.0  0.4601661597880451  0.6111578331898144  0.7814759575560686  1.0000
  H   H10       1.0  0.5398360438281529  0.3888423713244862  0.218526244027565  1.0000
  H   H11       1.0  0.6431688564143058  0.6049914478929213  0.604523819072142  1.0000
  H   H12       1.0  0.3568318734377626  0.3950076907426877  0.39547783598830216  1.0000
  H   H13       1.0  0.643923534192453  0.1425193152594204  0.6731252295264485  1.0000
  H   H14       1.0  0.3560742335321122  0.8574798343023249  0.3268720833713985  1.0000
  H   H15       1.0  0.4583086341671602  0.16823626988799134  0.8454030135072728  1.0000
  H   H16       1.0  0.5416891375491488  0.8317650155346643  0.15459561005817327  1.0000
  C   C1        1.0  0.07212716599793369  0.17599506396307874  0.7635267903570765  1.0000
  C   C2        1.0  0.9278706141206212  0.8240040810502693  0.2364735623966467  1.0000
  C   C3        1.0  0.11753245534442407  0.20129287173405438  0.65605755354742  1.0000
  C   C4        1.0  0.8824667932345136  0.7987094784302047  0.3439423765051899  1.0000
  C   C5        1.0  0.1952500122743075  0.08837218163073152  0.6048416611363763  1.0000
  C   C6        1.0  0.8047507080728876  0.9116301664817498  0.3951581601056234  1.0000
  C   C7        1.0  0.22969775595148426  0.9567018887917913  0.6614298333464106  1.0000
  C   C8        1.0  0.7703044381598403  0.04330152519938931  0.3385705344187784  1.0000
  C   C9        1.0  0.18341279029969118  0.9427287207026611  0.7686622203958108  1.0000
  C   C10       1.0  0.8165894029183888  0.057272556290499224  0.23133759666575318  1.0000
  C   C11       1.0  0.5001646300767462  0.5096528481750725  0.7534430090504713  1.0000
  C   C12       1.0  0.49983167407242485  0.4903473690946996  0.24655658791972002  1.0000
  C   C13       1.0  0.6033309056610887  0.5060085777281458  0.655276333448562  1.0000
  C   C14       1.0  0.39666539649221016  0.49399057161116383  0.344722608187837  1.0000
  C   C15       1.0  0.6521404548829606  0.37281198149567274  0.6244685322634568  1.0000
  C   C16       1.0  0.3478558492662103  0.6271882357740994  0.3755310647067418  1.0000
  C   C17       1.0  0.6042570287921762  0.24847301013575426  0.6929951806913551  1.0000
  C   C18       1.0  0.3957348540645994  0.7515240094979421  0.30700277670925397  1.0000
  C   C19       1.0  0.5001425173992117  0.26271350893767237  0.7898841095707994  1.0000
  C   C20       1.0  0.499852305686204  0.7372867137951645  0.2101133163180933  1.0000
  Br  Br1       1.0  0.24983254822680576  0.11055284339312273  0.45811751540707496  1.0000
  Br  Br2       1.0  0.7501725841172942  0.8894527057667363  0.541881665512598  1.0000
  Br  Br3       1.0  0.783019534539015  0.36473210405952733  0.4887530657566757  1.0000
  Br  Br4       1.0  0.21698708348871068  0.6352659573014635  0.5112482586915092  1.0000
  N   N1        1.0  0.10493050408766179  0.0493571866928946  0.8192509854930351  1.0000
  N   N2        1.0  0.8950702184647877  0.9506430232844708  0.18074904500929992  1.0000
  N   N3        1.0  0.4459723577468465  0.39047397426153213  0.8194156566400538  1.0000
  N   N4        1.0  0.5540239413079533  0.6095251762148808  0.18058252503237068  1.0000
  N   N5        1.0  0.973173148058137  0.49279610036703775  0.8900096300221776  1.0000
  N   N6        1.0  0.026827581793931198  0.5072030382685712  0.1099920250382596  1.0000
  N   N7        1.0  0.0018732334848934008  0.5630546834720604  0.8051498130327917  1.0000
  N   N8        1.0  0.9981274932686758  0.4369444563006511  0.19485108206368548  1.0000
  N   N9        1.0  0.0280011412667349  0.6298620640178356  0.7231999295028118  1.0000
  N   N10       1.0  0.9719981210181955  0.3701360064648825  0.2768026989623777  1.0000
  N   N11       1.0  0.19373389471100205  0.1833213610767146  0.04754282124892482  1.0000
  N   N12       1.0  0.8062682998190809  0.8166756407833163  0.9524566543693425  1.0000
  N   N13       1.0  0.2718147188599858  0.13951269403277425  0.123256518093477  1.0000
  N   N14       1.0  0.7281845268298285  0.8604864512030092  0.8767422059216942  1.0000
  N   N15       1.0  0.3450254295033517  0.09516477873160065  0.1956259084391192  1.0000
  N   N16       1.0  0.6549752983528376  0.904833291973553  0.8043750912875254  1.0000
  N   N17       1.0  0.7438596961670779  0.16135307413596683  0.9699345825726056  1.0000
  N   N18       1.0  0.2561439701312622  0.838643925672294  0.030064784235051375  1.0000
  N   N19       1.0  0.6733766518532034  0.2596534704994937  0.007260274081616579  1.0000
  N   N20       1.0  0.3266240737977383  0.7403467383407758  0.9927405163846927  1.0000
  N   N21       1.0  0.5937589529146833  0.3583423865538649  0.04338406917687369  1.0000
  N   N22       1.0  0.4062447164821562  0.6416546121173  0.9566160575947505  1.0000
