data_image0
_chemical_formula_structural       CoH22C24N4O6
_chemical_formula_sum              "Co1 H22 C24 N4 O6"
_cell_length_a       5.513682682299242
_cell_length_b       9.685038095299072
_cell_length_c       13.243705846842142
_cell_angle_alpha    87.79400683543409
_cell_angle_beta     94.41964224887471
_cell_angle_gamma    102.23337866376704

_space_group_name_H-M_alt    "P 1"
_space_group_IT_number       1

loop_
  _space_group_symop_operation_xyz
  'x, y, z'

loop_
  _atom_site_type_symbol
  _atom_site_label
  _atom_site_symmetry_multiplicity
  _atom_site_fract_x
  _atom_site_fract_y
  _atom_site_fract_z
  _atom_site_occupancy
  Co  Co1       1.0  0.9999939717898839  2.4643195928009304e-06  2.860947141401264e-06  1.0000
  H   H1        1.0  0.9977113840328611  0.11232619008106334  0.3004039204781321  1.0000
  H   H2        1.0  0.002300441908872075  0.8876712655466078  0.6995983643713971  1.0000
  H   H3        1.0  0.8573558742088848  0.2567411338337209  0.4271460573871479  1.0000
  H   H4        1.0  0.14266644585455177  0.7432579741553839  0.5728458117408337  1.0000
  H   H5        1.0  0.502113093734387  0.5864553988817106  0.38803163005875524  1.0000
  H   H6        1.0  0.4979073448547665  0.4135344742756786  0.6119752914258854  1.0000
  H   H7        1.0  0.6484928591443831  0.4389704839237538  0.2624045151999894  1.0000
  H   H8        1.0  0.3515424642393796  0.561036520367267  0.7375989355592765  1.0000
  H   H9        1.0  0.38084387627864663  0.8762976319392238  0.10726204247159639  1.0000
  H   H10       1.0  0.6191377767293178  0.12371382641816103  0.8927519356026963  1.0000
  H   H11       1.0  0.402842526130172  0.6418687745164747  0.18620698693428753  1.0000
  H   H12       1.0  0.5971477287697908  0.35814838774393826  0.8137995892701894  1.0000
  H   H13       1.0  0.023568571989038462  0.4422198052492306  0.1692493850264967  1.0000
  H   H14       1.0  0.976445275332523  0.5577854752004683  0.8307446489596728  1.0000
  H   H15       1.0  0.6420399550525389  0.4903522508932312  0.07407082435261  1.0000
  H   H16       1.0  0.35797208593996294  0.5096490021153457  0.9259193820840892  1.0000
  H   H17       1.0  0.6440429917185141  0.734502632918435  0.0016815281299997994  1.0000
  H   H18       1.0  0.35596876576167347  0.2655081484141917  0.9983079612994104  1.0000
  H   H19       1.0  0.29722323916439564  0.8974007188321239  0.891843855521863  1.0000
  H   H20       1.0  0.7027334304988456  0.1025822188067735  0.108148429373486  1.0000
  H   H21       1.0  0.07228474116362804  0.9626952687803867  0.843847068976224  1.0000
  H   H22       1.0  0.9276845714859192  0.03729982097586769  0.1561560552174655  1.0000
  C   C1        1.0  0.3975321963024002  0.18782470142551236  0.18608282720318667  1.0000
  C   C2        1.0  0.6024559396039564  0.8121739865459432  0.8139138008967777  1.0000
  C   C3        1.0  0.327891448847204  0.26886171136264647  0.2702247152155337  1.0000
  C   C4        1.0  0.672121991189627  0.7311345778608215  0.7297798580274558  1.0000
  C   C5        1.0  0.10804092953578956  0.21646755025699346  0.3192294433151588  1.0000
  C   C6        1.0  0.8919510116220337  0.7835284115895719  0.6807793307235812  1.0000
  C   C7        1.0  0.028916475537172914  0.2956997161266984  0.39003862518189436  1.0000
  C   C8        1.0  0.9711154713906892  0.7042924327688311  0.6099662173916371  1.0000
  C   C9        1.0  0.1694512692766637  0.4315322175734763  0.41264957374288247  1.0000
  C   C10       1.0  0.8305692934442916  0.5684602002817343  0.5873490431614741  1.0000
  C   C11       1.0  0.3945490424969336  0.48213328836533265  0.3674728898975843  1.0000
  C   C12       1.0  0.6054542201433436  0.5178531121873816  0.632538285326504  1.0000
  C   C13       1.0  0.4742604859769627  0.40066475245880884  0.2977152422302396  1.0000
  C   C14       1.0  0.5257574011218011  0.5993309362347075  0.7022810793761494  1.0000
  C   C15       1.0  0.22134944451643426  0.788219100010579  0.10136261781683228  1.0000
  C   C16       1.0  0.7786393976013386  0.2117910710080224  0.8986363424233587  1.0000
  C   C17       1.0  0.23123456181834  0.656709827928303  0.145264160869786  1.0000
  C   C18       1.0  0.7687533482818338  0.3432983490355639  0.8547325071380811  1.0000
  C   C19       1.0  0.022223467881026762  0.5469942107770436  0.1362492583849289  1.0000
  C   C20       1.0  0.9777731789983692  0.45300892841436285  0.8637437416777587  1.0000
  C   C21       1.0  0.8081142035724156  0.5739552850160264  0.0831057806426188  1.0000
  C   C22       1.0  0.19188068560512048  0.42605713889395963  0.9168910155126256  1.0000
  C   C23       1.0  0.8083240414339058  0.7084504762928461  0.0424838724686012  1.0000
  C   C24       1.0  0.19167046829402073  0.2915608915922904  0.9575129129432655  1.0000
  N   N1        1.0  0.09913268812225343  0.5252140639427552  0.47830742417937694  1.0000
  N   N2        1.0  0.9009018663256471  0.4747721649669714  0.5216898699558215  1.0000
  N   N3        1.0  0.01198290206726691  0.8143799162349199  0.0513974022829373  1.0000
  N   N4        1.0  0.988001146751806  0.18563109130352734  0.9486052681027316  1.0000
  O   O1        1.0  0.2404474378848604  0.0776033548284047  0.1560657553249669  1.0000
  O   O2        1.0  0.7595222404764143  0.9223808359257646  0.843944130454119  1.0000
  O   O3        1.0  0.6044766956733554  0.23395354527329454  0.1473391034054501  1.0000
  O   O4        1.0  0.39552080640191895  0.766046315464223  0.8526561635639284  1.0000
  O   O5        1.0  0.22201573181990147  0.9854654060406034  0.8932403702668595  1.0000
  O   O6        1.0  0.7779717414839239  0.014525779377599695  0.1067584817662564  1.0000
