data_image0
_chemical_formula_structural       Ni2H28C28N16O4
_chemical_formula_sum              "Ni2 H28 C28 N16 O4"
_cell_length_a       7.870967124194922
_cell_length_b       8.247660755454342
_cell_length_c       11.927907001559696
_cell_angle_alpha    89.99815486163013
_cell_angle_beta     89.36889958307736
_cell_angle_gamma    89.99964228482565

_space_group_name_H-M_alt    "P 1"
_space_group_IT_number       1

loop_
  _space_group_symop_operation_xyz
  'x, y, z'

loop_
  _atom_site_type_symbol
  _atom_site_label
  _atom_site_symmetry_multiplicity
  _atom_site_fract_x
  _atom_site_fract_y
  _atom_site_fract_z
  _atom_site_occupancy
  Ni  Ni1       1.0  0.9999944609077148  0.5000015905012702  0.9999962327160077  1.0000
  Ni  Ni2       1.0  0.4999980995618004  3.879098152000001e-06  3.868424961699532e-06  1.0000
  H   H1        1.0  0.009029405042767297  0.9574711996169113  0.8215763784130345  1.0000
  H   H2        1.0  0.4909623859007937  0.45746836315728256  0.17841916779593703  1.0000
  H   H3        1.0  0.9909523946384838  0.042529132629916  0.1784283588830959  1.0000
  H   H4        1.0  0.5090440436239306  0.5425380315209267  0.8215715071861212  1.0000
  H   H5        1.0  0.0892449164579503  0.5406397106784127  0.7606352727649508  1.0000
  H   H6        1.0  0.410770269815778  0.04063195434670771  0.23936540914354515  1.0000
  H   H7        1.0  0.9107640826582538  0.4593509219532592  0.23935458405047433  1.0000
  H   H8        1.0  0.5892267144074806  0.9593720151570369  0.7606411247694567  1.0000
  H   H9        1.0  0.125633519681827  0.7712094909559467  0.5527393275287977  1.0000
  H   H10       1.0  0.37436261023754713  0.27120747490917557  0.44727031299022  1.0000
  H   H11       1.0  0.8743443527072756  0.22876537948786793  0.44726873355759983  1.0000
  H   H12       1.0  0.6256577627163223  0.7287867950058741  0.5527213104567252  1.0000
  H   H13       1.0  0.9588190551399335  0.8267582941988466  0.6502331507229187  1.0000
  H   H14       1.0  0.5411764062666579  0.32674277375331673  0.34976939197505896  1.0000
  H   H15       1.0  0.04116254054798671  0.1732287008201611  0.349777455275543  1.0000
  H   H16       1.0  0.4588362578620106  0.673253921096311  0.6502246865537273  1.0000
  H   H17       1.0  0.16824592047095882  0.7971834257340192  0.6986058278651583  1.0000
  H   H18       1.0  0.3317323683783044  0.297188877938119  0.3014063522040686  1.0000
  H   H19       1.0  0.8317382739646532  0.20280235683457457  0.3014031214166053  1.0000
  H   H20       1.0  0.6682827196691578  0.7028150916194137  0.6985910996659115  1.0000
  H   H21       1.0  0.9441714729728761  0.15973397742757103  0.9686241091880773  1.0000
  H   H22       1.0  0.5558075928668272  0.6597281333411614  0.0313683845767656  1.0000
  H   H23       1.0  0.0558170567127476  0.8402784796346693  0.0313697792290384  1.0000
  H   H24       1.0  0.4441871422980769  0.3402879609913967  0.9686297455754129  1.0000
  H   H25       1.0  0.1572712563951981  0.35247623132823247  0.6032068407793645  1.0000
  H   H26       1.0  0.3427618942030577  0.8524740925642719  0.396800981218874  1.0000
  H   H27       1.0  0.8427362976408759  0.6475083388905603  0.3967880362875746  1.0000
  H   H28       1.0  0.6572478214995527  0.1475226020773803  0.60320481437833  1.0000
  C   C1        1.0  0.028169939586256004  0.08546658475680154  0.8039258057755347  1.0000
  C   C2        1.0  0.4718376975548466  0.5854523175320524  0.1960744916216015  1.0000
  C   C3        1.0  0.9718309136139921  0.9145313224277134  0.1960790814787927  1.0000
  C   C4        1.0  0.5281647755681574  0.41455528955704324  0.8039203451660342  1.0000
  C   C5        1.0  0.13799160831482743  0.017097503836666306  0.6097388625467205  1.0000
  C   C6        1.0  0.3620308838561996  0.5171002073356022  0.3902700352267487  1.0000
  C   C7        1.0  0.8620129973075308  0.9828979783591477  0.39026773144707516  1.0000
  C   C8        1.0  0.6379765245003314  0.48290133731261886  0.6097290334266532  1.0000
  C   C9        1.0  0.0753440274040287  0.41031053090034686  0.7708523101748099  1.0000
  C   C10       1.0  0.42467309067559705  0.9103113793036642  0.22914382106166906  1.0000
  C   C11       1.0  0.9246647968736852  0.5896801016346276  0.2291425768085986  1.0000
  C   C12       1.0  0.5753229729871308  0.08969016547229812  0.770852642551695  1.0000
  C   C13       1.0  0.0906584678118918  0.13697369735321982  0.6999267726878315  1.0000
  C   C14       1.0  0.40935147668318456  0.63698048049001  0.3000822684641875  1.0000
  C   C15       1.0  0.9093335228846301  0.8630242099091563  0.3000772062393509  1.0000
  C   C16       1.0  0.5906623702610218  0.363016214302455  0.6999143351437099  1.0000
  C   C17       1.0  0.0933317577147434  0.8423023549415236  0.6274156579203662  1.0000
  C   C18       1.0  0.4066645039190533  0.342302806477754  0.3725929764978417  1.0000
  C   C19       1.0  0.9066524950099648  0.1576919149143095  0.37259161452863054  1.0000
  C   C20       1.0  0.5933493430361239  0.657703588034714  0.6274036269842398  1.0000
  C   C21       1.0  0.9939714301100512  0.19833403711495382  0.8877065615081392  1.0000
  C   C22       1.0  0.5060174187065627  0.6983281448543651  0.11229842456130258  1.0000
  C   C23       1.0  0.0060157127694467  0.8016675077066395  0.1122906705007409  1.0000
  C   C24       1.0  0.4939811271544627  0.301680674661725  0.8876997356705872  1.0000
  C   C25       1.0  0.11161483535844499  0.30444439400918805  0.6833151702118344  1.0000
  C   C26       1.0  0.388405708201212  0.8044471779333479  0.31668792937794177  1.0000
  C   C27       1.0  0.8883748479810195  0.6955486635397533  0.3166820818973762  1.0000
  C   C28       1.0  0.611605394306153  0.1955592164839501  0.6833145226432293  1.0000
  N   N1        1.0  0.7323816850473008  0.3182508043547189  0.08915493221264371  1.0000
  N   N2        1.0  0.7675937247630955  0.818245442263944  0.9108392875363336  1.0000
  N   N3        1.0  0.2676208463634283  0.6817640775566076  0.9108382277579636  1.0000
  N   N4        1.0  0.23239820767724237  0.18177307687121672  0.08916636784613982  1.0000
  N   N5        1.0  0.020372174184458896  0.35832690758487473  0.8728433701361951  1.0000
  N   N6        1.0  0.4796297291397593  0.8583091544795494  0.127149798254365  1.0000
  N   N7        1.0  0.9796277584607438  0.6416734247318557  0.12715144675557613  1.0000
  N   N8        1.0  0.5203675173508486  0.14170330242424714  0.8728491902965559  1.0000
  N   N9        1.0  0.7771653513122131  0.42425026215272515  0.026370973865873296  1.0000
  N   N10       1.0  0.7228453695333029  0.9242515516545711  0.9736350277574248  1.0000
  N   N11       1.0  0.22283071235051466  0.57575128262323  0.9736254897474909  1.0000
  N   N12       1.0  0.2771505775841447  0.07576211770692962  0.026364789143983103  1.0000
  N   N13       1.0  0.6709116906938347  0.21717903442498  0.1459373922599525  1.0000
  N   N14       1.0  0.8290925310062391  0.7171811092907703  0.8540647096497622  1.0000
  N   N15       1.0  0.3290854683734139  0.7828297850354603  0.8540641114221544  1.0000
  N   N16       1.0  0.1708995471136419  0.2828204354149619  0.1459367541462413  1.0000
  O   O1        1.0  0.2160118529898156  0.063822166360147  0.525402944914056  1.0000
  O   O2        1.0  0.2840222935787438  0.5638323470565254  0.4746014770505483  1.0000
  O   O3        1.0  0.7839838900986393  0.9361466416835142  0.4746027410986144  1.0000
  O   O4        1.0  0.7160091909509276  0.4361619226018547  0.5253994583270938  1.0000
