data_image0
_chemical_formula_structural       Mn8P4H8C4O28
_chemical_formula_sum              "Mn8 P4 H8 C4 O28"
_cell_length_a       6.518194498003152
_cell_length_b       10.053397091365877
_cell_length_c       10.222606617319274
_cell_angle_alpha    116.40693260879893
_cell_angle_beta     90.00007476736972
_cell_angle_gamma    90.00004152746891

_space_group_name_H-M_alt    "P 1"
_space_group_IT_number       1

loop_
  _space_group_symop_operation_xyz
  'x, y, z'

loop_
  _atom_site_type_symbol
  _atom_site_label
  _atom_site_symmetry_multiplicity
  _atom_site_fract_x
  _atom_site_fract_y
  _atom_site_fract_z
  _atom_site_occupancy
  Mn  Mn1       1.0  0.14462327252505253  0.0236298913671291  0.3813894713907047  1.0000
  Mn  Mn2       1.0  0.6446241871157313  0.47636935737844516  0.6186095844467303  1.0000
  Mn  Mn3       1.0  0.855379144703477  0.9763674725552819  0.6186068023555648  1.0000
  Mn  Mn4       1.0  0.3553782301212324  0.5236324326007705  0.3813925523025148  1.0000
  Mn  Mn5       1.0  0.9740140061225163  0.26845764597702276  0.2658866104798108  1.0000
  Mn  Mn6       1.0  0.4740140408912906  0.23154195259117227  0.7341128735019069  1.0000
  Mn  Mn7       1.0  0.025989945278510604  0.731543041534778  0.7341130840717298  1.0000
  Mn  Mn8       1.0  0.5259899105086205  0.7684576243604583  0.26588633174684867  1.0000
  P   P1        1.0  0.14937348498482814  0.39408734301540693  0.6028476615677221  1.0000
  P   P2        1.0  0.6493720035981384  0.10591080021359292  0.3971509111397395  1.0000
  P   P3        1.0  0.8506273980796379  0.6059111233744191  0.3971510543762519  1.0000
  P   P4        1.0  0.350628879467436  0.8940887767364103  0.6028482941070192  1.0000
  H   H1        1.0  0.114259187587507  0.7748623898117658  0.12200867217407549  1.0000
  H   H2        1.0  0.6142588185028901  0.7251372592677683  0.8779903690746025  1.0000
  H   H3        1.0  0.8857416954760851  0.22513719523016823  0.8779885801767621  1.0000
  H   H4        1.0  0.3857420645647949  0.27486342419643256  0.12201030192290571  1.0000
  H   H5        1.0  0.018232691209391305  0.7288195584285831  0.2402899157312816  1.0000
  H   H6        1.0  0.5182336661636668  0.7711799886685711  0.759709000702216  1.0000
  H   H7        1.0  0.9817697260223568  0.2711800225681955  0.7597083130685149  1.0000
  H   H8        1.0  0.4817702852372462  0.22881958423708681  0.24029118099449684  1.0000
  C   C1        1.0  0.04625571320056571  0.9588040185868963  0.04124058897858853  1.0000
  C   C2        1.0  0.5462568391957277  0.5411977672540972  0.9587622718290235  1.0000
  C   C3        1.0  0.9537313623418909  0.041188943546352205  0.958743963066965  1.0000
  C   C4        1.0  0.45373483889175503  0.45881174404304653  0.041255983856224435  1.0000
  O   O1        1.0  0.0931398973256137  0.2600640426501428  0.45566841101128824  1.0000
  O   O2        1.0  0.5931388644331719  0.23993515141746977  0.5443305779063579  1.0000
  O   O3        1.0  0.9068640540731892  0.7399344237413175  0.5443303049346753  1.0000
  O   O4        1.0  0.40686355279957803  0.7600644255333436  0.455668627341403  1.0000
  O   O5        1.0  0.9640378491226328  0.5043063051571581  0.6597635693145278  1.0000
  O   O6        1.0  0.46403583935844483  0.9956926007910595  0.3402364137235096  1.0000
  O   O7        1.0  0.0359645681099892  0.4956921571875199  0.34023612307840506  1.0000
  O   O8        1.0  0.5359650437071366  0.004306976158936503  0.6597627915232493  1.0000
  O   O9        1.0  0.3262184934242356  0.48498884205455545  0.5776902430399034  1.0000
  O   O10       1.0  0.8262184968033708  0.015010599550237199  0.4223090488359418  1.0000
  O   O11       1.0  0.6737839238073987  0.5150096243360878  0.4223084729050655  1.0000
  O   O12       1.0  0.17378392043048763  0.984990087960746  0.5776906457146039  1.0000
  O   O13       1.0  0.20070526831322877  0.33706126307698986  0.7162624557941797  1.0000
  O   O14       1.0  0.7007036188872036  0.16293804118205912  0.2837376493854009  1.0000
  O   O15       1.0  0.7992956147522249  0.6629371992668709  0.2837372365977515  1.0000
  O   O16       1.0  0.299295730012318  0.8370626463272971  0.7162620451631482  1.0000
  O   O17       1.0  0.0934908114532149  0.039326565980175615  0.1732177935093588  1.0000
  O   O18       1.0  0.5934936672042994  0.46067262441621887  0.8267821723148926  1.0000
  O   O19       1.0  0.9065085374464275  0.960675236135323  0.8267814138940179  1.0000
  O   O20       1.0  0.4065087500304331  0.5393269444426566  0.17321898582878248  1.0000
  O   O21       1.0  0.06748025409244461  0.818919357971282  0.9730057423293061  1.0000
  O   O22       1.0  0.5674796355306243  0.6810802414274592  0.02699323811555832  1.0000
  O   O23       1.0  0.9325098898109873  0.1810902221064907  0.026995913739632678  1.0000
  O   O24       1.0  0.43251357669429075  0.3189115494593651  0.9730054713505893  1.0000
  O   O25       1.0  0.1360367956719202  0.7821896200465233  0.22115739189863592  1.0000
  O   O26       1.0  0.6360362163474776  0.7178100481154247  0.7788426541045865  1.0000
  O   O27       1.0  0.8639640873957647  0.21781106341768464  0.7788432790988721  1.0000
  O   O28       1.0  0.36396313254982005  0.2821884182735844  0.2211560618383928  1.0000
