data_image0
_chemical_formula_structural       Ag4H24C32S4N20O12
_chemical_formula_sum              "Ag4 H24 C32 S4 N20 O12"
_cell_length_a       6.147766715709947
_cell_length_b       7.873934101951517
_cell_length_c       22.624389745122144
_cell_angle_alpha    90.0008685984512
_cell_angle_beta     89.99925058256387
_cell_angle_gamma    89.99843850447179

_space_group_name_H-M_alt    "P 1"
_space_group_IT_number       1

loop_
  _space_group_symop_operation_xyz
  'x, y, z'

loop_
  _atom_site_type_symbol
  _atom_site_label
  _atom_site_symmetry_multiplicity
  _atom_site_fract_x
  _atom_site_fract_y
  _atom_site_fract_z
  _atom_site_occupancy
  Ag  Ag1       1.0  0.3911968559807378  0.27799191969471343  0.4290458687700891  1.0000
  Ag  Ag2       1.0  0.10879818178559471  0.7220188661302628  0.9290442423895725  1.0000
  Ag  Ag3       1.0  0.6088026340199592  0.7779885734523972  0.07095670941921378  1.0000
  Ag  Ag4       1.0  0.8912052586529953  0.2220201542279838  0.5709549556040727  1.0000
  H   H1        1.0  0.42690208898219584  0.3920231498912372  0.2962880522619002  1.0000
  H   H2        1.0  0.07311071206096639  0.6079755457113336  0.7962877148905037  1.0000
  H   H3        1.0  0.5731064579558733  0.8920428182488822  0.2037160160772302  1.0000
  H   H4        1.0  0.9268869244582731  0.10798561975543923  0.7037126449730023  1.0000
  H   H5        1.0  0.18737447139001517  0.5057548754686892  0.21357892587136013  1.0000
  H   H6        1.0  0.3126471822790364  0.4942415140468128  0.7135811088417725  1.0000
  H   H7        1.0  0.8126474744774869  0.005770971833662501  0.2864208793225202  1.0000
  H   H8        1.0  0.6873598282755397  0.9942419916862234  0.7864168840660923  1.0000
  H   H9        1.0  0.7791790239957522  0.5136052559929852  0.2327638246701298  1.0000
  H   H10       1.0  0.7208373627899293  0.4863863373859659  0.7327645248902145  1.0000
  H   H11       1.0  0.22083614364209578  0.013591283884508703  0.2672364641834122  1.0000
  H   H12       1.0  0.27917317356278204  0.9863807553422179  0.7672334262431448  1.0000
  H   H13       1.0  0.9676695928978631  0.7503872323383974  0.359464110288954  1.0000
  H   H14       1.0  0.5323211888576297  0.24960094923979884  0.8594615713407238  1.0000
  H   H15       1.0  0.0322983220801163  0.2504111889129064  0.140536553300187  1.0000
  H   H16       1.0  0.4676796684999118  0.7495782330218148  0.6405430772095002  1.0000
  H   H17       1.0  0.944296562125004  0.6244552268794338  0.46354971862822947  1.0000
  H   H18       1.0  0.5556794603357958  0.3755323751514014  0.9635490918173985  1.0000
  H   H19       1.0  0.0556692147338467  0.12447926275961413  0.0364502756064411  1.0000
  H   H20       1.0  0.4443056420638031  0.8755234392081591  0.5364637401677541  1.0000
  H   H21       1.0  0.9097337477843369  0.8275490377902912  0.5479689505104304  1.0000
  H   H22       1.0  0.590255729900747  0.17245234612649804  0.04796799380351761  1.0000
  H   H23       1.0  0.0902448861702467  0.32755220133854124  0.9520285984459207  1.0000
  H   H24       1.0  0.4097653133374308  0.6724671983075937  0.45203667543312065  1.0000
  C   C1        1.0  0.25043448413003233  0.4018372517611084  0.3004935889073224  1.0000
  C   C2        1.0  0.24957974154938972  0.5981578156432408  0.8004943388327419  1.0000
  C   C3        1.0  0.7495753490626386  0.9018554998321024  0.199508321585661  1.0000
  C   C4        1.0  0.7504149824559717  0.09816386614149052  0.6995028748355878  1.0000
  C   C5        1.0  0.11808887414625958  0.46365304515632033  0.2554191819330853  1.0000
  C   C6        1.0  0.3819258900396462  0.5363375334022108  0.7554222259065924  1.0000
  C   C7        1.0  0.8819204416632972  0.9636589782313721  0.24458084708933822  1.0000
  C   C8        1.0  0.6180807379384206  0.03634582625904412  0.74457642716051  1.0000
  C   C9        1.0  0.8949104563142924  0.46896758335784483  0.2660320215873639  1.0000
  C   C10       1.0  0.6051059590871476  0.5310229084116357  0.7660333712685627  1.0000
  C   C11       1.0  0.1051084349462457  0.9689655600410633  0.2339671516431565  1.0000
  C   C12       1.0  0.3948943469279698  0.0310253610300464  0.7339648115449222  1.0000
  C   C13       1.0  0.9482530603517388  0.3613264961701717  0.3580858361743324  1.0000
  C   C14       1.0  0.5517589332539572  0.6386705157626906  0.8580870640089415  1.0000
  C   C15       1.0  0.051750045358801296  0.8613292551559584  0.1419136489608306  1.0000
  C   C16       1.0  0.44823601210273983  0.1386716561780261  0.6419121329840536  1.0000
  C   C17       1.0  0.8985223217563953  0.09302955303413545  0.43656114056488343  1.0000
  C   C18       1.0  0.6014777693666176  0.9069632320067598  0.9365649433464539  1.0000
  C   C19       1.0  0.10147219784079202  0.593041824340439  0.0634333825419588  1.0000
  C   C20       1.0  0.39852250904215225  0.40695696381627045  0.5634374476602844  1.0000
  C   C21       1.0  0.9440131682118463  0.8292116985608831  0.3985805550918187  1.0000
  C   C22       1.0  0.5559838675822846  0.17077309429151913  0.898584142907957  1.0000
  C   C23       1.0  0.055961772342769195  0.3292347271508191  0.10141345543912908  1.0000
  C   C24       1.0  0.44402460369212804  0.6707593533183669  0.6014249486734045  1.0000
  C   C25       1.0  0.9328723793478063  0.7600443125943598  0.4551061146546047  1.0000
  C   C26       1.0  0.5671073019455122  0.239950544253503  0.9550985384662879  1.0000
  C   C27       1.0  0.0670805612387895  0.26006084908017624  0.044897694277267405  1.0000
  C   C28       1.0  0.4329020232419012  0.7399320577216599  0.5449011967763155  1.0000
  C   C29       1.0  0.9118990891888002  0.8720378565301131  0.5022020845758846  1.0000
  C   C30       1.0  0.5881039730990308  0.12795392850729573  0.0022079710769631  1.0000
  C   C31       1.0  0.08808776110218018  0.37205320515207063  0.9977903968563737  1.0000
  C   C32       1.0  0.4119218669886706  0.6279567430365844  0.4978017656099638  1.0000
  S   S1        1.0  0.8388677701819204  0.3119079143678789  0.4293037321743327  1.0000
  S   S2        1.0  0.6611294163438688  0.6880858269019967  0.9293061590996956  1.0000
  S   S3        1.0  0.1611175304510013  0.81191541227534  0.0706928383284122  1.0000
  S   S4        1.0  0.3388670682161036  0.18808241975347076  0.5706924165308251  1.0000
  N   N1        1.0  0.1657447830895933  0.3531215835206821  0.3527761254305233  1.0000
  N   N2        1.0  0.33426530453276376  0.6468808244979132  0.8527768326761844  1.0000
  N   N3        1.0  0.8342602337083136  0.85312940771847  0.1472250841071272  1.0000
  N   N4        1.0  0.6657277292527582  0.14689277782544247  0.6472215239869357  1.0000
  N   N5        1.0  0.8079257049312857  0.4158957796688227  0.3176276812653782  1.0000
  N   N6        1.0  0.6920882320582818  0.5840982129788659  0.8176298872349506  1.0000
  N   N7        1.0  0.19208201449207246  0.9158883931856681  0.18237209388329487  1.0000
  N   N8        1.0  0.3079118594809458  0.0841002971805338  0.6823694616875144  1.0000
  N   N9        1.0  0.8961941969058599  0.040566558332535904  0.49319767104631745  1.0000
  N   N10       1.0  0.6038048004067846  0.9594312153980484  0.9931959983928706  1.0000
  N   N11       1.0  0.10379563604043081  0.5405750611564815  0.0068014352151735  1.0000
  N   N12       1.0  0.39620016441136846  0.45943143846133705  0.5068026934947127  1.0000
  N   N13       1.0  0.9257746007698274  0.9969118443291338  0.38894055223158824  1.0000
  N   N14       1.0  0.5742277777834203  0.00308777168798  0.8889378797401903  1.0000
  N   N15       1.0  0.0742107888664805  0.4969183890477922  0.11105921161261278  1.0000
  N   N16       1.0  0.42577349768608036  0.503062138158569  0.6110619225185303  1.0000
  N   N17       1.0  0.43822349656469595  0.9307007527437676  0.3720771432526107  1.0000
  N   N18       1.0  0.061782410779585496  0.0693037597782933  0.8720748670352307  1.0000
  N   N19       1.0  0.5617788292684409  0.430706477327206  0.1279222686315791  1.0000
  N   N20       1.0  0.9382263270000665  0.5693072534507378  0.6279226352360681  1.0000
  O   O1        1.0  0.41864026385223235  0.9784317769663816  0.42664452265690034  1.0000
  O   O2        1.0  0.0813662756982083  0.021570014786682603  0.9266414809783541  1.0000
  O   O3        1.0  0.5813538999802006  0.47843218298569923  0.0733542589276723  1.0000
  O   O4        1.0  0.9186506242567701  0.5215766484440109  0.5733548835688254  1.0000
  O   O5        1.0  0.4688493605126993  0.04121917880449641  0.3326248209621525  1.0000
  O   O6        1.0  0.031153561916475805  0.9587937880612002  0.8326220776488215  1.0000
  O   O7        1.0  0.5311518361477425  0.5412229340288662  0.1673734047335813  1.0000
  O   O8        1.0  0.9688546783392269  0.45878996246366216  0.667374842830597  1.0000
  O   O9        1.0  0.4266238981124033  0.7750046228226071  0.36006581842764973  1.0000
  O   O10       1.0  0.07338095944271569  0.2250057204744635  0.8600647704757236  1.0000
  O   O11       1.0  0.573388708324636  0.2750055382476759  0.13993541786881278  1.0000
  O   O12       1.0  0.9266207508505744  0.7250036318005044  0.6399340013869903  1.0000
