data_image0
_chemical_formula_structural       Zn4H40C56O20
_chemical_formula_sum              "Zn4 H40 C56 O20"
_cell_length_a       5.527593887
_cell_length_b       13.590419906239674
_cell_length_c       15.989960618157362
_cell_angle_alpha    90.00021823846653
_cell_angle_beta     89.99983999782715
_cell_angle_gamma    98.16405282926827

_space_group_name_H-M_alt    "P 1"
_space_group_IT_number       1

loop_
  _space_group_symop_operation_xyz
  'x, y, z'

loop_
  _atom_site_type_symbol
  _atom_site_label
  _atom_site_symmetry_multiplicity
  _atom_site_fract_x
  _atom_site_fract_y
  _atom_site_fract_z
  _atom_site_occupancy
  Zn  Zn1       1.0  0.06510080357041668  0.8881236707591925  0.9201254681914433  1.0000
  Zn  Zn2       1.0  0.4348792739037606  0.1118708134067745  0.420117357414746  1.0000
  Zn  Zn3       1.0  0.9349033094251807  0.11188874625907631  0.0798794962985809  1.0000
  Zn  Zn4       1.0  0.5650901836575102  0.8881252499538732  0.5798757246194981  1.0000
  H   H1        1.0  0.6716180555563939  0.865380647008415  0.8329651534605202  1.0000
  H   H2        1.0  0.8283658361842753  0.1346123795326903  0.3329589188610455  1.0000
  H   H3        1.0  0.328388629875306  0.1346235931848838  0.16703480789023215  1.0000
  H   H4        1.0  0.17161188828298185  0.8653814537954931  0.6670354139580181  1.0000
  H   H5        1.0  0.8832287098924851  0.8679739157692552  0.7683052068415035  1.0000
  H   H6        1.0  0.616766117549048  0.1320163508273282  0.2682958452799866  1.0000
  H   H7        1.0  0.1167849447489786  0.1320243776674133  0.23169725607888125  1.0000
  H   H8        1.0  0.3832209119994587  0.8679782258364739  0.7316959859694376  1.0000
  H   H9        1.0  0.6953175673366944  0.6774634051807668  0.7959688146869226  1.0000
  H   H10       1.0  0.8046683581425426  0.3225233714307265  0.2959688340115463  1.0000
  H   H11       1.0  0.3046624929105803  0.3225371182960401  0.20403427362587925  1.0000
  H   H12       1.0  0.19531531269947786  0.6774719485994326  0.7040280003771568  1.0000
  H   H13       1.0  0.8258264218468624  0.5127230884005982  0.7942270968262333  1.0000
  H   H14       1.0  0.6741763278333152  0.4872651606162606  0.294223989188815  1.0000
  H   H15       1.0  0.17416424117789117  0.4872818951360003  0.20577223913210216  1.0000
  H   H16       1.0  0.3258228463695829  0.5127279293609348  0.7057690928454292  1.0000
  H   H17       1.0  0.2215553197561704  0.403228908610366  0.9566383786324335  1.0000
  H   H18       1.0  0.2784356459454572  0.5967673614970012  0.45663589638742497  1.0000
  H   H19       1.0  0.7784511061213164  0.596774588247321  0.0433640842879512  1.0000
  H   H20       1.0  0.7215405289414961  0.4032272151847352  0.5433603126088684  1.0000
  H   H21       1.0  0.09334052759238894  0.569093900156588  0.9565445697709976  1.0000
  H   H22       1.0  0.406654568997233  0.4308986524450162  0.4565402113487521  1.0000
  H   H23       1.0  0.9066643410637738  0.4309051366233733  0.043457267756977586  1.0000
  H   H24       1.0  0.5933309109585068  0.5690966675800126  0.5434553722551241  1.0000
  H   H25       1.0  0.9469123348992242  0.38151961196235357  0.8043196795320566  1.0000
  H   H26       1.0  0.5530856319205312  0.6184709497863495  0.3043128195401791  1.0000
  H   H27       1.0  0.05311244921512071  0.6184898316699119  0.19568465956555764  1.0000
  H   H28       1.0  0.4469220763919068  0.3815258569201561  0.6956802624940648  1.0000
  H   H29       1.0  0.0404150491876933  0.211442779159654  0.7937705603672427  1.0000
  H   H30       1.0  0.4595646318202995  0.7885447227904904  0.2937724558690959  1.0000
  H   H31       1.0  0.9595898270887062  0.788561461064397  0.2062369056924211  1.0000
  H   H32       1.0  0.5404391987188008  0.21145134058552634  0.7062243785196072  1.0000
  H   H33       1.0  0.7547913867004394  0.0690372788801383  0.8522528807644105  1.0000
  H   H34       1.0  0.7451780275739636  0.930951445694042  0.3522572778359034  1.0000
  H   H35       1.0  0.24521918405000784  0.9309729081338602  0.14776021382693463  1.0000
  H   H36       1.0  0.2548144292450445  0.0690431309979473  0.6477414327300222  1.0000
  H   H37       1.0  0.291482173437231  0.2723479470592949  0.9430054494959703  1.0000
  H   H38       1.0  0.20851671373027614  0.727639291154155  0.4429979641116829  1.0000
  H   H39       1.0  0.7085338246918056  0.7276622399162633  0.056998264209234185  1.0000
  H   H40       1.0  0.7914933151341754  0.2723537988051064  0.556990740175692  1.0000
  C   C1        1.0  0.3027440566161844  0.7340435002467915  0.8752554389812204  1.0000
  C   C2        1.0  0.19723454104645546  0.26594466947676665  0.37525670909066366  1.0000
  C   C3        1.0  0.6972608273885469  0.26596594335471485  0.12474139540748297  1.0000
  C   C4        1.0  0.802748091616138  0.7340476771878883  0.6247445030449013  1.0000
  C   C5        1.0  0.3842085036547759  0.6344150876579562  0.8760071606575364  1.0000
  C   C6        1.0  0.11577473273376883  0.36557085817820223  0.3760059291973404  1.0000
  C   C7        1.0  0.6157945635619484  0.3655891525379076  0.12399342608562587  1.0000
  C   C8        1.0  0.8842084113671193  0.6344177717443388  0.6239921559761752  1.0000
  C   C9        1.0  0.5917577967797955  0.6169566827351503  0.8310927285862277  1.0000
  C   C10       1.0  0.9082286998655461  0.38303335510856584  0.33109399869567807  1.0000
  C   C11       1.0  0.40823673633985885  0.3830438407237224  0.16890598197969806  1.0000
  C   C12       1.0  0.09175781058285548  0.6169597348788829  0.6689015849082054  1.0000
  C   C13       1.0  0.6650790070601005  0.5231613001949071  0.830643696836155  1.0000
  C   C14       1.0  0.8349188616175951  0.4768250172319668  0.330643090768369  1.0000
  C   C15       1.0  0.3349302584320951  0.4768399666149463  0.1693562645145974  1.0000
  C   C16       1.0  0.16507255707603008  0.5231665860612011  0.6693518674431047  1.0000
  C   C17       1.0  0.5341820433315831  0.4431626004628768  0.8750102851566621  1.0000
  C   C18       1.0  0.9658100677342388  0.5568248238826996  0.375005926734424  1.0000
  C   C19       1.0  0.46582877936945977  0.5568431264323905  0.12499217776372257  1.0000
  C   C20       1.0  0.03417747323177885  0.4431660360517996  0.6249859045150001  1.0000
  C   C21       1.0  0.3267107373969438  0.4621604761212482  0.9202805655090172  1.0000
  C   C22       1.0  0.1732812231278515  0.5378317792858596  0.42027433090954947  1.0000
  C   C23       1.0  0.6733088712644673  0.5378445074461027  0.07972627515823658  1.0000
  C   C24       1.0  0.8266949441014475  0.462157593974851  0.5797218780867439  1.0000
  C   C25       1.0  0.2533288616936177  0.5556525746138021  0.9209891351090744  1.0000
  C   C26       1.0  0.24666102842534343  0.4443441466752632  0.4209829005096067  1.0000
  C   C27       1.0  0.7466801519061832  0.44435315227890737  0.0790127024189005  1.0000
  C   C28       1.0  0.7533195356524588  0.5556474566076517  0.5790095561322273  1.0000
  C   C29       1.0  0.6071908737529766  0.34238942437303177  0.8731078414467175  1.0000
  C   C30       1.0  0.8927960948273749  0.6575987277277093  0.3731034830244724  1.0000
  C   C31       1.0  0.3928266739189468  0.6576200192720449  0.12689962461294604  1.0000
  C   C32       1.0  0.10718860655719453  0.3423943622341171  0.6268858466553124  1.0000
  C   C33       1.0  0.8209483320894078  0.3218513554054567  0.8325511436853714  1.0000
  C   C34       1.0  0.6790327178624052  0.6781386943824188  0.3325505376175925  1.0000
  C   C35       1.0  0.17907179565963824  0.6781551148459286  0.16745382080465274  1.0000
  C   C36       1.0  0.32095741845862596  0.3218595990234975  0.6674444205938812  1.0000
  C   C37       1.0  0.8754238694752418  0.2248945000000901  0.8265086022240025  1.0000
  C   C38       1.0  0.624558291297106  0.7750932702361553  0.3265092469410361  1.0000
  C   C39       1.0  0.12458643410491282  0.7751097402316489  0.17350074001289065  1.0000
  C   C40       1.0  0.37544269966885924  0.2249050231620728  0.6734838350932077  1.0000
  C   C41       1.0  0.7182414190634816  0.1452243141781224  0.8599026807184129  1.0000
  C   C42       1.0  0.7817392672552685  0.8547659597529532  0.3599008238658071  1.0000
  C   C43       1.0  0.2817719912850478  0.8547836427982887  0.14011041387293935  1.0000
  C   C44       1.0  0.21825758643718976  0.1452308469458643  0.6400903819912074  1.0000
  C   C45       1.0  0.5094073248961948  0.16472839888865556  0.9028596345477238  1.0000
  C   C46       1.0  0.9905888050507343  0.8352562803167987  0.4028590284799377  1.0000
  C   C47       1.0  0.4906122837652163  0.835276584678695  0.09714720611953  1.0000
  C   C48       1.0  0.009415788798264707  0.1647316062470665  0.5971359297315286  1.0000
  C   C49       1.0  0.4576883172324031  0.2620205072953041  0.9098827913073249  1.0000
  C   C50       1.0  0.04229524741396772  0.737967946176923  0.4098778074926698  1.0000
  C   C51       1.0  0.5423341386681103  0.7379874496657379  0.0901265509295683  1.0000
  C   C52       1.0  0.9577021177084646  0.2620251437849035  0.5901115221871149  1.0000
  C   C53       1.0  0.32849630540099634  0.08360646794393028  0.9385338937674701  1.0000
  C   C54       1.0  0.1715090989752923  0.9163785036178851  0.4385339130920939  1.0000
  C   C55       1.0  0.6715295091769136  0.9164007456686889  0.0614748230770132  1.0000
  C   C56       1.0  0.8284908461577486  0.08361161299125543  0.5614629212966094  1.0000
  O   O1        1.0  0.1321010737104871  0.749275609217392  0.926246809096426  1.0000
  O   O2        1.0  0.3678786627757589  0.25071818180865785  0.4262487045982794  1.0000
  O   O3        1.0  0.8679020011389439  0.2507338344148664  0.07375753000118827  1.0000
  O   O4        1.0  0.6321008784088278  0.7492808549687382  0.5737525075372858  1.0000
  O   O5        1.0  0.4010037065942669  0.8008314326703996  0.824867572541258  1.0000
  O   O6        1.0  0.09898899565219918  0.19915335074939122  0.3248719696127508  1.0000
  O   O7        1.0  0.5989934142684845  0.19917132081068442  0.17512738567021555  1.0000
  O   O8        1.0  0.9010050030520349  0.800835279191084  0.6751304933076339  1.0000
  O   O9        1.0  0.17283760535574538  0.1081326305257804  0.989602187149053  1.0000
  O   O10       1.0  0.3271500671338359  0.8918557329441512  0.489605958828136  1.0000
  O   O11       1.0  0.8271597902892223  0.8918812731867689  0.010403402733380997  1.0000
  O   O12       1.0  0.6728982048573968  0.10813289691945023  0.5103777423199671  1.0000
  O   O13       1.0  0.3384379130291038  0.9949639972765993  0.9126351433018909  1.0000
  O   O14       1.0  0.161573003485536  0.005020018676241001  0.4126301594872358  1.0000
  O   O15       1.0  0.6615953974207115  0.0050439597356942  0.0873867067831924  1.0000
  O   O16       1.0  0.8384000644709175  0.9949708413607539  0.5873866874585687  1.0000
  O   O17       1.0  0.8421183212655876  0.8991099187055696  0.821560497479396  1.0000
  O   O18       1.0  0.6578641649047227  0.1008785542802428  0.3215498851330594  1.0000
  O   O19       1.0  0.1578865473864184  0.1008891180769567  0.17844196544099583  1.0000
  O   O20       1.0  0.3421163991730793  0.8991130490026793  0.6784425715087747  1.0000
