data_image0
_chemical_formula_structural       Cu4Mo4H16C20N4O16
_chemical_formula_sum              "Cu4 Mo4 H16 C20 N4 O16"
_cell_length_a       7.519793299328398
_cell_length_b       9.231907854817239
_cell_length_c       13.580640025128092
_cell_angle_alpha    71.3423128783761
_cell_angle_beta     86.30846228732227
_cell_angle_gamma    71.73224308620183

_space_group_name_H-M_alt    "P 1"
_space_group_IT_number       1

loop_
  _space_group_symop_operation_xyz
  'x, y, z'

loop_
  _atom_site_type_symbol
  _atom_site_label
  _atom_site_symmetry_multiplicity
  _atom_site_fract_x
  _atom_site_fract_y
  _atom_site_fract_z
  _atom_site_occupancy
  Cu  Cu1       1.0  0.8779637241310569  0.9391386713645105  0.10177721523420047  1.0000
  Cu  Cu2       1.0  0.12203291304044943  0.060857213996229106  0.8982177507837079  1.0000
  Cu  Cu3       1.0  0.6922016442606493  0.6684776561601568  0.06565882806614802  1.0000
  Cu  Cu4       1.0  0.3078046860173629  0.3315169542036359  0.9343383832394212  1.0000
  Mo  Mo1       1.0  0.20600204313139872  0.6850300796991319  0.009362522686473106  1.0000
  Mo  Mo2       1.0  0.7940000955779496  0.3149609781925237  0.9906384999009321  1.0000
  Mo  Mo3       1.0  0.36011055044537704  0.9957046138098987  0.11912415536230718  1.0000
  Mo  Mo4       1.0  0.6398916987653253  0.004286434902326202  0.8808739205135441  1.0000
  H   H1        1.0  0.4711801655039452  0.3216245929811876  0.7337912927664477  1.0000
  H   H2        1.0  0.5288512178412504  0.6783890055136013  0.2662085933369199  1.0000
  H   H3        1.0  0.38485232983893536  0.4628565425088312  0.5486652620729018  1.0000
  H   H4        1.0  0.6151660171564474  0.5371859560826877  0.4513353695484455  1.0000
  H   H5        1.0  0.8889808652297618  0.7763538705457833  0.641815338407348  1.0000
  H   H6        1.0  0.11099890482229578  0.2236325823669176  0.3581872214033126  1.0000
  H   H7        1.0  0.9976192437253179  0.6197123096431625  0.8244729162494197  1.0000
  H   H8        1.0  0.0023707622834549685  0.3802680541143674  0.175527753337299  1.0000
  H   H9        1.0  0.7693766096961882  0.04279298290384761  0.2902425705541348  1.0000
  H   H10       1.0  0.23059555152624972  0.9572043092953422  0.709752694085424  1.0000
  H   H11       1.0  0.8643556812805216  0.9318179944025646  0.479437178736525  1.0000
  H   H12       1.0  0.13562331660643429  0.06818282984417581  0.5205549505944234  1.0000
  H   H13       1.0  0.13862764220942844  0.6447756209243779  0.23084176134370438  1.0000
  H   H14       1.0  0.8613682311091538  0.3552250969534398  0.7691632336089145  1.0000
  H   H15       1.0  0.24456055981861624  0.5135988651436065  0.4149864513414558  1.0000
  H   H16       1.0  0.7554501298122248  0.4864089215335954  0.585017399386814  1.0000
  C   C1        1.0  0.3437784978214964  0.42345264743953254  0.710180669337902  1.0000
  C   C2        1.0  0.6562507338717298  0.5765633648470825  0.2898180149992626  1.0000
  C   C3        1.0  0.29309079632817975  0.504142320721016  0.6059692772187617  1.0000
  C   C4        1.0  0.7069252768251744  0.49588819497027725  0.3940288266222255  1.0000
  C   C5        1.0  0.1261364191516847  0.6329130312618291  0.5765095152455901  1.0000
  C   C6        1.0  0.8738628915392186  0.36710083986624653  0.4234910993137434  1.0000
  C   C7        1.0  0.020029918551102865  0.6775936289406701  0.6570834564559719  1.0000
  C   C8        1.0  0.9799584627192744  0.32239874261681223  0.3429168852565426  1.0000
  C   C9        1.0  0.078791642122127  0.5905999700314837  0.7601305362715466  1.0000
  C   C10       1.0  0.92121280310073  0.40939226291450126  0.2398687045350982  1.0000
  C   C11       1.0  0.8733889890063509  0.9253119021375582  0.3228066013473736  1.0000
  C   C12       1.0  0.12659114097333207  0.07469252942876642  0.6771920908968242  1.0000
  C   C13       1.0  0.9281176491106465  0.861890995071825  0.42789582361964323  1.0000
  C   C14       1.0  0.07187422017229751  0.13809895133411496  0.572105689506742  1.0000
  C   C15       1.0  0.08048411452994499  0.7030336641742636  0.2889588039318839  1.0000
  C   C16       1.0  0.9195223282815448  0.2969705746205236  0.7110503314340023  1.0000
  C   C17       1.0  0.1402736890128722  0.6320784263256061  0.39249479610406013  1.0000
  C   C18       1.0  0.8597246360241828  0.36792228719163933  0.6075160315669947  1.0000
  C   C19       1.0  0.06453959327511428  0.7106640947823665  0.46561579352564314  1.0000
  C   C20       1.0  0.9354697767299813  0.28934730357499927  0.5343887873974467  1.0000
  N   N1        1.0  0.9471414226246113  0.8464024845866264  0.25446792160515497  1.0000
  N   N2        1.0  0.05283227541406177  0.15359361224822984  0.7455334538254947  1.0000
  N   N3        1.0  0.23675011986009048  0.4646225360761846  0.7859149737009475  1.0000
  N   N4        1.0  0.7632573366662926  0.535368478671451  0.21408666415501898  1.0000
  O   O1        1.0  0.5933940178385271  0.8745314080209569  0.09819390641973054  1.0000
  O   O2        1.0  0.4066100888019903  0.12546202040393692  0.9018028766329351  1.0000
  O   O3        1.0  0.40154015614160005  0.6220326082211258  0.09363137011075649  1.0000
  O   O4        1.0  0.5984606629419961  0.3779620613506935  0.9063703826714617  1.0000
  O   O5        1.0  0.32379348306117367  0.9323631265226665  0.2511381859394817  1.0000
  O   O6        1.0  0.6762167290624249  0.06762785862095198  0.7488611811781569  1.0000
  O   O7        1.0  0.6597680249327169  0.7959955430592416  0.9176756492020672  1.0000
  O   O8        1.0  0.3402401401959169  0.20399064376103135  0.08231743307496939  1.0000
  O   O9        1.0  0.18289988920120243  0.9628009790956611  0.0516016042142056  1.0000
  O   O10       1.0  0.8171022206488914  0.0371984519671997  0.9483909935253082  1.0000
  O   O11       1.0  0.9935421705986229  0.731403940058243  0.07976892199368985  1.0000
  O   O12       1.0  0.006451107030443426  0.26858959071870453  0.9202317872670636  1.0000
  O   O13       1.0  0.21610240855242335  0.8433414522583861  0.8909878857353422  1.0000
  O   O14       1.0  0.7838997192664298  0.15665320824857085  0.1090145733724341  1.0000
  O   O15       1.0  0.19513261371267276  0.5209984253855637  0.9726603821591129  1.0000
  O   O16       1.0  0.8048709166079463  0.47899261655665976  0.02733913672018669  1.0000
