data_image0
_chemical_formula_structural       CdH8C12I2N4
_chemical_formula_sum              "Cd1 H8 C12 I2 N4"
_cell_length_a       4.092880957886273
_cell_length_b       7.515612907572374
_cell_length_c       12.386097637866268
_cell_angle_alpha    97.02038933203922
_cell_angle_beta     99.6427765022244
_cell_angle_gamma    89.98376126099092

_space_group_name_H-M_alt    "P 1"
_space_group_IT_number       1

loop_
  _space_group_symop_operation_xyz
  'x, y, z'

loop_
  _atom_site_type_symbol
  _atom_site_label
  _atom_site_symmetry_multiplicity
  _atom_site_fract_x
  _atom_site_fract_y
  _atom_site_fract_z
  _atom_site_occupancy
  Cd  Cd1       1.0  0.47427024653627825  0.49998420519431613  0.9999801446548986  1.0000
  H   H1        1.0  0.27780975601304186  0.46206030214344906  0.5536057529175337  1.0000
  H   H2        1.0  0.7205810382252337  0.5380677102967794  0.446486131521496  1.0000
  H   H3        1.0  0.2922219774683795  0.009485735861019902  0.713524628794076  1.0000
  H   H4        1.0  0.5838804400221633  0.9903459223377169  0.28640476786490854  1.0000
  H   H5        1.0  0.391968850261982  0.8846820688008348  0.8942628612138606  1.0000
  H   H6        1.0  0.5025293194627735  0.1151297570289813  0.1056329594760541  1.0000
  H   H7        1.0  0.3777612805965589  0.3616808078801341  0.7408525305083699  1.0000
  H   H8        1.0  0.634648762880026  0.6383308150971627  0.25918997009902256  1.0000
  C   C1        1.0  0.3018571181477725  0.5599511590640063  0.6268473165988908  1.0000
  C   C2        1.0  0.6741332353760824  0.4401149597444841  0.3731860547663999  1.0000
  C   C3        1.0  0.31050669970794337  0.8656702309659964  0.7159876739942986  1.0000
  C   C4        1.0  0.598518033611171  0.13420643987591774  0.2839692243676737  1.0000
  C   C5        1.0  0.2782545667307231  0.7446614251393057  0.618972376710083  1.0000
  C   C6        1.0  0.661041639424333  0.2553392589581307  0.3810060051528765  1.0000
  C   C7        1.0  0.22236886476193965  0.8044203794280874  0.51244817301977  1.0000
  C   C8        1.0  0.7099514846185996  0.1957525479638987  0.4875677757053864  1.0000
  C   C9        1.0  0.3654507945518546  0.7959622606699311  0.8165767596997568  1.0000
  C   C10       1.0  0.552778432545807  0.2038443723982226  0.1833725241602693  1.0000
  C   C11       1.0  0.35629731087436767  0.5036158066762368  0.7308956391816679  1.0000
  C   C12       1.0  0.6252689071422708  0.49634276608676237  0.2691230452363911  1.0000
  I   I1        1.0  0.9322742863645529  0.23264024595116686  0.9149916154131928  1.0000
  I   I2        1.0  0.018049960090579  0.7674191806303978  0.0850783149234076  1.0000
  N   N1        1.0  0.38749827927939856  0.6194058233547253  0.8237051460034265  1.0000
  N   N2        1.0  0.5656932260987729  0.3804675229312835  0.17629219839958668  1.0000
  N   N3        1.0  0.17692966016090136  0.8475558503096747  0.42381191006229096  1.0000
  N   N4        1.0  0.7491456904740658  0.15286013509950178  0.576232448566266  1.0000
