data_image0
_chemical_formula_structural       Zn8H44C51O49
_chemical_formula_sum              "Zn8 H44 C51 O49"
_cell_length_a       18.341385290107162
_cell_length_b       18.4987532988482
_cell_length_c       18.61730081457802
_cell_angle_alpha    90.35841422490645
_cell_angle_beta     119.1086758247361
_cell_angle_gamma    119.67884552666581

_space_group_name_H-M_alt    "P 1"
_space_group_IT_number       1

loop_
  _space_group_symop_operation_xyz
  'x, y, z'

loop_
  _atom_site_type_symbol
  _atom_site_label
  _atom_site_symmetry_multiplicity
  _atom_site_fract_x
  _atom_site_fract_y
  _atom_site_fract_z
  _atom_site_occupancy
  Zn  Zn1       1.0  0.4195368217329759  0.5473408737029075  0.460374376745861  1.0000
  Zn  Zn2       1.0  0.5951626775287124  0.5469326527163645  0.45657695003831816  1.0000
  Zn  Zn3       1.0  0.4285797726377965  0.37813353198873767  0.45792784281712784  1.0000
  Zn  Zn4       1.0  0.5915828095819009  0.5517484384110886  0.6286951544880637  1.0000
  Zn  Zn5       1.0  0.5924539342418668  0.9546175763029936  0.04819941485174412  1.0000
  Zn  Zn6       1.0  0.5999361972226254  0.131693355537216  0.0409454879727633  1.0000
  Zn  Zn7       1.0  0.42247770286940783  0.9630346084973314  0.04373062837439073  1.0000
  Zn  Zn8       1.0  0.4269097025331734  0.9615411868084112  0.8746779460230556  1.0000
  H   H1        1.0  0.10977690756764252  0.8071831838714589  0.6981565423897322  1.0000
  H   H2        1.0  0.7170193392341775  0.27169805791193385  0.9506141340784996  1.0000
  H   H3        1.0  0.7631697573105143  0.34550363343775814  0.8979181358474763  1.0000
  H   H4        1.0  0.3577355796509423  0.11756451983546154  0.5789607151084581  1.0000
  H   H5        1.0  0.5596842457545038  0.4238256776720064  0.7772089025354704  1.0000
  H   H6        1.0  0.15349527251950681  0.7670966900755117  0.9181476766409205  1.0000
  H   H7        1.0  0.9754177432332297  0.6040174275606844  0.5962474107439917  1.0000
  H   H8        1.0  0.042133799640154596  0.7032549117292248  0.5765700014230433  1.0000
  H   H9        1.0  0.9160013440413549  0.6145107815537544  0.490622742674006  1.0000
  H   H10       1.0  0.8672783635555562  0.7159586182470719  0.7706601889080035  1.0000
  H   H11       1.0  0.3194691279144806  0.0873155206344904  0.1911303953782806  1.0000
  H   H12       1.0  0.5694140107383133  0.8149679534552519  0.23113489282090421  1.0000
  H   H13       1.0  0.2360998614758217  0.3857661291942663  0.592178407356812  1.0000
  H   H14       1.0  0.29273601020513956  0.4291628710185833  0.5335770810037843  1.0000
  H   H15       1.0  0.2518427316656258  0.48438908900271826  0.5665862568449  1.0000
  H   H16       1.0  0.6472925853921794  0.27984024608041125  0.21912958849568298  1.0000
  H   H17       1.0  0.4944422502134458  0.21547864578366221  0.42902142964617707  1.0000
  H   H18       1.0  0.4686254816849741  0.1264947373503773  0.35823708668177556  1.0000
  H   H19       1.0  0.37547808976862745  0.11002706219681364  0.378050797184173  1.0000
  H   H20       1.0  0.5528902669995901  0.42333735537861367  0.26284812942795804  1.0000
  H   H21       1.0  0.411218872592343  0.837023104785267  0.3602893033115392  1.0000
  H   H22       1.0  0.2983630849864695  0.7468235125925275  0.2631884410839475  1.0000
  H   H23       1.0  0.4202382268313656  0.7259763452717465  0.3278326796540511  1.0000
  H   H24       1.0  0.3243653123302436  0.8546540998170047  0.27528265610447983  1.0000
  H   H25       1.0  0.6371812845279407  0.7158292454105392  0.34913969660090055  1.0000
  H   H26       1.0  0.16944284611709284  0.3746719134696192  0.6583572024342672  1.0000
  H   H27       1.0  0.18979425874749017  0.402806167410752  0.761609341894861  1.0000
  H   H28       1.0  0.17895903617589684  0.30558805238902664  0.7249200970861837  1.0000
  H   H29       1.0  0.34166011992530815  0.46558829902084414  0.8897320576828991  1.0000
  H   H30       1.0  0.5113349313999791  0.7556341961160485  0.05801477598600245  1.0000
  H   H31       1.0  0.5854864808557919  0.7544739130238866  0.022403951217007844  1.0000
  H   H32       1.0  0.4966537311896459  0.6543959959725215  0.027600184950109866  1.0000
  H   H33       1.0  0.49811370746402156  0.9104794271745007  0.7659423061417314  1.0000
  H   H34       1.0  0.5488426560787899  0.8599481110357842  0.6518311104632843  1.0000
  H   H35       1.0  0.9704665009026314  0.08903239472844147  0.29279305256415006  1.0000
  H   H36       1.0  0.8353027815613245  0.22364635888551024  0.018794099944486168  1.0000
  H   H37       1.0  0.9486294306553801  0.2293055531429005  0.05167705936111129  1.0000
  H   H38       1.0  0.9546545509245519  0.3284819164508832  0.06757818704234345  1.0000
  H   H39       1.0  0.055491686087442794  0.1209010158566883  0.2161162086429869  1.0000
  H   H40       1.0  0.09999493898910569  0.42402818322049274  0.26755477681155776  1.0000
  H   H41       1.0  0.14897898144452174  0.4697874751372809  0.37866169722531856  1.0000
  H   H42       1.0  0.013689706300930023  0.4011961959358743  0.2976108814966664  1.0000
  H   H43       1.0  0.29146545271915164  0.09843148628941373  0.6631499528119562  1.0000
  H   H44       1.0  0.7006649455622168  0.22973572931199726  0.8523734824813475  1.0000
  C   C1        1.0  0.7797510402743839  0.6347729457374882  0.6312813905994402  1.0000
  C   C2        1.0  0.8947935832658233  0.18409913674327777  0.16397641635312246  1.0000
  C   C3        1.0  0.06737352308450537  0.2183540065360532  0.2695857692986721  1.0000
  C   C4        1.0  0.23777362452948836  0.36367817942286257  0.36313221633785986  1.0000
  C   C5        1.0  0.1261259031641799  0.30446073706520593  0.3195245789508618  1.0000
  C   C6        1.0  0.4375600557429139  0.17418402434982025  0.7262397558335181  1.0000
  C   C7        1.0  0.521441615455899  0.19592341579870257  0.8053928915322005  1.0000
  C   C8        1.0  0.43492544586403165  0.22613199219637878  0.6674895200157422  1.0000
  C   C9        1.0  0.48214669135404625  0.31568080723418035  0.691773968636703  1.0000
  C   C10       1.0  0.06748938954150661  0.7702582182793164  0.7254592069941237  1.0000
  C   C11       1.0  0.1269506540194103  0.784143368411023  0.8119406171516347  1.0000
  C   C12       1.0  0.4249250402542942  0.6520593309097862  0.8632849602080769  1.0000
  C   C13       1.0  0.9586411952910582  0.7135098382175258  0.6659706464053629  1.0000
  C   C14       1.0  0.8911546263810948  0.6967779986577514  0.6879176616386289  1.0000
  C   C15       1.0  0.4426959344464693  0.173338901306856  0.20714107152556244  1.0000
  C   C16       1.0  0.5215055021328537  0.6575094804142408  0.3814294486819846  1.0000
  C   C17       1.0  0.5178533108632094  0.1981847049747856  0.19316085389313287  1.0000
  C   C18       1.0  0.4478290228305469  0.22948418773670914  0.26701164405317007  1.0000
  C   C19       1.0  0.49074257844314667  0.31823633958771314  0.2838302332993549  1.0000
  C   C20       1.0  0.4700367424372658  0.8124624423247867  0.2585837598763091  1.0000
  C   C21       1.0  0.5217917396121123  0.8379212910783167  0.21942860515358822  1.0000
  C   C22       1.0  0.473383395224104  0.7534525566719451  0.30877721287992416  1.0000
  C   C23       1.0  0.4546723882931402  0.6928624281831403  0.8088206725897393  1.0000
  C   C24       1.0  0.5337420679248693  0.7236594286851742  0.33453477844446394  1.0000
  C   C25       1.0  0.5159683343636488  0.13877085989480517  0.8617722845161211  1.0000
  C   C26       1.0  0.5166666500997154  0.8877298823136144  0.15934875385144656  1.0000
  C   C27       1.0  0.7824972727917016  0.13076575540818416  0.11778203680829338  1.0000
  C   C28       1.0  0.4926553893345512  0.36918464648604754  0.6344446685276779  1.0000
  C   C29       1.0  0.23873286110750788  0.8531923651905018  0.8640976604147071  1.0000
  C   C30       1.0  0.5098183150019935  0.1435853898713191  0.12846276096240672  1.0000
  C   C31       1.0  0.49969250406801546  0.8472530910712736  0.8720243110701844  1.0000
  C   C32       1.0  0.504656846653134  0.37413123614430793  0.3529991133852022  1.0000
  C   C33       1.0  0.4906967646629354  0.6329597953161822  0.6341105039976255  1.0000
  C   C34       1.0  0.4461755744776782  0.6402448758408213  0.7438692697853072  1.0000
  C   C35       1.0  0.3981232670229032  0.5479518653161575  0.7289029023435986  1.0000
  C   C36       1.0  0.36443425957509146  0.5095373426837284  0.779606704023145  1.0000
  C   C37       1.0  0.3829987372533809  0.5626763412476948  0.8496289252111283  1.0000
  C   C38       1.0  0.08696527023123214  0.41276511823813417  0.31918585652427817  1.0000
  C   C39       1.0  0.7029168432759861  0.2796631437438818  0.8876770391341823  1.0000
  C   C40       1.0  0.9671867063620212  0.6497036741141926  0.5607473749326956  1.0000
  C   C41       1.0  0.28515010620073156  0.44631816704649907  0.5847931936986228  1.0000
  C   C42       1.0  0.43562912469169396  0.15721846663119984  0.37037772047464307  1.0000
  C   C43       1.0  0.3587125375222584  0.8177266951564662  0.2894836657536287  1.0000
  C   C44       1.0  0.20688766459324645  0.37357921079232176  0.7254249597685104  1.0000
  C   C45       1.0  0.48003830582661067  0.6793323954294337  0.6910374523970617  1.0000
  C   C46       1.0  0.5114360422328232  0.7162023813429811  0.01407425402829415  1.0000
  C   C47       1.0  0.9177371089163628  0.2602883850143485  0.06736136203150517  1.0000
  C   C48       1.0  0.5065737760480217  0.7635269068558799  0.6925355315994323  1.0000
  C   C49       1.0  0.503209821002656  0.8121027890049531  0.748672101192767  1.0000
  C   C50       1.0  0.4858320286111635  0.7814924205279609  0.8106978211834246  1.0000
  C   C51       1.0  0.9558550557987076  0.16253170284646498  0.2226440669616849  1.0000
  O   O1        1.0  0.5092400148998024  0.5074987080270859  0.5006900378473347  1.0000
  O   O2        1.0  0.2830600911213424  0.8657008446027347  0.9461896702306165  1.0000
  O   O3        1.0  0.5909831067870569  0.1812040788609863  0.1279583270900915  1.0000
  O   O4        1.0  0.7361340450377013  0.6267685792321771  0.6712765579894223  1.0000
  O   O5        1.0  0.4517586402035649  0.8826627691020905  0.833000887362168  1.0000
  O   O6        1.0  0.4289267959371941  0.0673959420225785  0.078790534355285  1.0000
  O   O7        1.0  0.5616429415643154  0.8710562407290184  0.9531853469591738  1.0000
  O   O8        1.0  0.7373573694340648  0.049262967701153584  0.1096079039459354  1.0000
  O   O9        1.0  0.2805494482064505  0.8928884606385666  0.8256746783555756  1.0000
  O   O10       1.0  0.5659352557651617  0.17857762544211644  0.9427845680255232  1.0000
  O   O11       1.0  0.46199470870527654  0.9179424950584478  0.13922836415874673  1.0000
  O   O12       1.0  0.4506335509820332  0.6261981349665859  0.3932098834160981  1.0000
  O   O13       1.0  0.27715318002687894  0.4458550843421776  0.391055912369346  1.0000
  O   O14       1.0  0.5866316544137717  0.6386273131885857  0.404347926970999  1.0000
  O   O15       1.0  0.44336561326709045  0.3312660798649675  0.5533526414495213  1.0000
  O   O16       1.0  0.5456005454478614  0.4557724654197699  0.3566614827545322  1.0000
  O   O17       1.0  0.5668637080563669  0.6282446431462603  0.6726489093059839  1.0000
  O   O18       1.0  0.480271862930394  0.34241095972981134  0.4041644893368783  1.0000
  O   O19       1.0  0.42707206735539677  0.6083742243076813  0.5522055417357876  1.0000
  O   O20       1.0  0.5364998289621923  0.8018614662345628  0.6409112950948169  1.0000
  O   O21       1.0  0.07868228758302105  0.33380129446397416  0.336258549759215  1.0000
  O   O22       1.0  0.34733899256086437  0.09139017685599525  0.6918512083430812  1.0000
  O   O23       1.0  0.5544252960788187  0.4529433700698108  0.674832684634609  1.0000
  O   O24       1.0  0.610632749253412  0.2749085836313371  0.8361574434840336  1.0000
  O   O25       1.0  0.3750714778281151  0.1770362562753718  0.5807502487856413  1.0000
  O   O26       1.0  0.5251980809432126  0.36184051448310567  0.7744965748656654  1.0000
  O   O27       1.0  0.09313634997974421  0.7388752781942074  0.8576759956910253  1.0000
  O   O28       1.0  0.9196606719327108  0.6821584893048822  0.5797474913603652  1.0000
  O   O29       1.0  0.9275683109346178  0.7422766720525331  0.7686080640240861  1.0000
  O   O30       1.0  0.3578667176373145  0.08880716640850753  0.16767997117661082  1.0000
  O   O31       1.0  0.38605947356808923  0.4986363732605669  0.6631370269082028  1.0000
  O   O32       1.0  0.6093014246252864  0.2775660718114779  0.2434718570607899  1.0000
  O   O33       1.0  0.38792822257300946  0.18229423698141295  0.29700690490622617  1.0000
  O   O34       1.0  0.7342401803827412  0.5943722569342781  0.5513061192414739  1.0000
  O   O35       1.0  0.5231645749919451  0.361360296424074  0.23598626576355733  1.0000
  O   O36       1.0  0.410816037065146  0.8409356244963249  0.24718605642748753  1.0000
  O   O37       1.0  0.6076039516243981  0.7483021965057971  0.32114808277049883  1.0000
  O   O38       1.0  0.31534358760852405  0.41985296415451506  0.7666822083402636  1.0000
  O   O39       1.0  0.35620391006933977  0.5243384107372223  0.9031430706784889  1.0000
  O   O40       1.0  0.4317890616207834  0.69857071625556  0.9267310530422749  1.0000
  O   O41       1.0  0.5234950915208286  0.8917316131739452  0.7386510279762603  1.0000
  O   O42       1.0  0.9164248075089318  0.08383044334913595  0.23798291358914989  1.0000
  O   O43       1.0  0.9409380819855852  0.2646577458943398  0.15356137999367547  1.0000
  O   O44       1.0  0.10896838763057567  0.17482268489471414  0.2660379996973817  1.0000
  O   O45       1.0  0.28566182178406757  0.3294175658686456  0.3703485066251631  1.0000
  O   O46       1.0  0.5108009630034971  0.0028082772294623997  0.0009616218427197985  1.0000
  O   O47       1.0  0.46404690706928164  0.05604492174050779  0.8247932614645209  1.0000
  O   O48       1.0  0.5693248237167695  0.8964282888467211  0.12860010510163977  1.0000
  O   O49       1.0  0.7413034496294628  0.1726793901220773  0.09001944345911278  1.0000
