data_image0
_chemical_formula_structural       Cu4H32C28N8O16
_chemical_formula_sum              "Cu4 H32 C28 N8 O16"
_cell_length_a       4.825488966093915
_cell_length_b       13.573767492405587
_cell_length_c       14.522261034004064
_cell_angle_alpha    112.4715054252886
_cell_angle_beta     89.9981920897667
_cell_angle_gamma    89.99560721731719

_space_group_name_H-M_alt    "P 1"
_space_group_IT_number       1

loop_
  _space_group_symop_operation_xyz
  'x, y, z'

loop_
  _atom_site_type_symbol
  _atom_site_label
  _atom_site_symmetry_multiplicity
  _atom_site_fract_x
  _atom_site_fract_y
  _atom_site_fract_z
  _atom_site_occupancy
  Cu  Cu1       1.0  0.9261872528572398  0.45826317857290627  0.5812370836468401  1.0000
  Cu  Cu2       1.0  0.42610534177276094  0.04174629348280941  0.9187540834441915  1.0000
  Cu  Cu3       1.0  0.0737790690234164  0.5417420579468695  0.41877443828698074  1.0000
  Cu  Cu4       1.0  0.5737511466328868  0.9582669019761383  0.08124030849226935  1.0000
  H   H1        1.0  0.07985213519832259  0.34677580727007024  0.7076689393465397  1.0000
  H   H2        1.0  0.579878522689164  0.1531953683381388  0.7923218289969323  1.0000
  H   H3        1.0  0.9201473474070454  0.6532047079675962  0.2923261903068805  1.0000
  H   H4        1.0  0.4201375373771441  0.8467963043395271  0.20767245999147116  1.0000
  H   H5        1.0  0.0204647337394803  0.1623365289705134  0.7066665196419135  1.0000
  H   H6        1.0  0.5204530938667132  0.3376368266843952  0.7933228929759362  1.0000
  H   H7        1.0  0.9795326785641975  0.8376320189520285  0.293313323978637  1.0000
  H   H8        1.0  0.47953395270163673  0.6623580435875169  0.20668286564678334  1.0000
  H   H9        1.0  0.7688622838440935  0.026250993335338497  0.5637674064190319  1.0000
  H   H10       1.0  0.26888394929068227  0.4737411522844042  0.9362405715525665  1.0000
  H   H11       1.0  0.23112062171698264  0.9737255182233323  0.4362035715590975  1.0000
  H   H12       1.0  0.731103096952232  0.5262513364452984  0.06377742099252252  1.0000
  H   H13       1.0  0.6018357188714063  0.07817455555526458  0.4233604829824527  1.0000
  H   H14       1.0  0.1017703305257456  0.4218287063643161  0.07664272163082587  1.0000
  H   H15       1.0  0.39819899297138045  0.9218210815392138  0.5766076760005485  1.0000
  H   H16       1.0  0.8982436578953568  0.5781470428359229  0.9233734317474283  1.0000
  H   H17       1.0  0.503524617101668  0.3370795449571489  0.4392067908647517  1.0000
  H   H18       1.0  0.0036267283852921997  0.16293449398687435  0.060793021459218666  1.0000
  H   H19       1.0  0.4964562130081235  0.6629145211934214  0.5607897292022839  1.0000
  H   H20       1.0  0.9964556433466852  0.8370739320896661  0.9392230805021736  1.0000
  H   H21       1.0  0.5669170301514227  0.204834758937487  0.3515398731351949  1.0000
  H   H22       1.0  0.06684738935018689  0.29518574256928787  0.148484994708653  1.0000
  H   H23       1.0  0.4331425478877335  0.795164088731866  0.6484576633826006  1.0000
  H   H24       1.0  0.933121002316895  0.7048449951791512  0.8515218509677848  1.0000
  H   H25       1.0  0.8333680169565837  0.3287316889270572  0.3031904083499483  1.0000
  H   H26       1.0  0.333351722472301  0.17127423025416988  0.19681338891993502  1.0000
  H   H27       1.0  0.1666376725718308  0.6713253697580087  0.6968416629774408  1.0000
  H   H28       1.0  0.6666788492165168  0.8286839393711672  0.8031455378671947  1.0000
  H   H29       1.0  0.06784999315906498  0.2514739163770442  0.3431594756794353  1.0000
  H   H30       1.0  0.5679100883543454  0.2484811556740212  0.15681863217417902  1.0000
  H   H31       1.0  0.932176423346334  0.7485616000468908  0.6568442539529824  1.0000
  H   H32       1.0  0.4321494894897953  0.7515161039423148  0.843186601098658  1.0000
  C   C1        1.0  0.9744447658725265  0.28392372813222266  0.6469843780084472  1.0000
  C   C2        1.0  0.4744784538174116  0.2160568733732831  0.8530097584317528  1.0000
  C   C3        1.0  0.025550571970057896  0.7160607669858052  0.35300390802281356  1.0000
  C   C4        1.0  0.5255458946691222  0.7839387918519732  0.14699421774351856  1.0000
  C   C5        1.0  0.938683315460153  0.18207773764459736  0.6460344248460712  1.0000
  C   C6        1.0  0.4387114013383028  0.3179025868616634  0.8539648068965844  1.0000
  C   C7        1.0  0.061318241531644405  0.8178924009414243  0.35394116591968566  1.0000
  C   C8        1.0  0.5613274531235319  0.6820914921934076  0.14604962102210803  1.0000
  C   C9        1.0  0.7985333655851291  0.10660369106523862  0.5658225790221322  1.0000
  C   C10       1.0  0.2985519322974497  0.3933881565707722  0.9341780964891765  1.0000
  C   C11       1.0  0.20147233502740391  0.893376807401431  0.4341511980738913  1.0000
  C   C12       1.0  0.7014848498684572  0.60660592198505  0.06583564266411902  1.0000
  C   C13       1.0  0.7043818210255212  0.1351762633382378  0.488886630351139  1.0000
  C   C14       1.0  0.20437442186916846  0.3648343986090622  0.011126404442933247  1.0000
  C   C15       1.0  0.2956487451364395  0.8648209817661011  0.5110993171486837  1.0000
  C   C16       1.0  0.7956582153376814  0.6351628674125606  0.9888864058351526  1.0000
  C   C17       1.0  0.7482892200095819  0.23889794560261626  0.49345688987472847  1.0000
  C   C18       1.0  0.24830475319100734  0.26111668327366283  0.006556412064718067  1.0000
  C   C19       1.0  0.25172269489887356  0.7610977134032096  0.506538820969247  1.0000
  C   C20       1.0  0.7517195945611589  0.7388853588802177  0.9934484614217493  1.0000
  C   C21       1.0  0.6603459932844942  0.27322970926925905  0.4113826754256066  1.0000
  C   C22       1.0  0.16035699496831057  0.22679452814182346  0.08863497313173235  1.0000
  C   C23       1.0  0.33967213774320726  0.7267731243387344  0.5886149058075031  1.0000
  C   C24       1.0  0.839656988738902  0.7732266482121587  0.9113767251492316  1.0000
  C   C25       1.0  0.9065300666526995  0.31392961935709  0.3687011049998431  1.0000
  C   C26       1.0  0.40651474127447074  0.18607201835649786  0.13130108885138714  1.0000
  C   C27       1.0  0.0934714816493312  0.6861019236298276  0.6313170452843975  1.0000
  C   C28       1.0  0.5935137502580049  0.8139435635452799  0.8686913989839408  1.0000
  N   N1        1.0  0.8802434867057585  0.3113108096881376  0.5727160201850905  1.0000
  N   N2        1.0  0.38026566364876396  0.18868760447552543  0.9272875203587458  1.0000
  N   N3        1.0  0.1197497771821787  0.6886816681810473  0.42728819649052935  1.0000
  N   N4        1.0  0.6197358890506804  0.8113112464088272  0.0727127720017435  1.0000
  N   N5        1.0  0.5163386461667726  0.5109547160159379  0.7217566138552554  1.0000
  N   N6        1.0  0.016380358860189393  0.9890489579558946  0.7782370344080858  1.0000
  N   N7        1.0  0.48360073609591586  0.4890513058907756  0.2782393505915478  1.0000
  N   N8        1.0  0.9836274094380573  0.0109530979353991  0.22178505901895554  1.0000
  O   O1        1.0  0.017677907812057504  0.40957818807440555  0.439174614988225  1.0000
  O   O2        1.0  0.5175037623391887  0.09040105051723657  0.06080781811456148  1.0000
  O   O3        1.0  0.9823298582184776  0.5904422040389505  0.5608533299601033  1.0000
  O   O4        1.0  0.4824231869950353  0.9096105238929154  0.9391536311481228  1.0000
  O   O5        1.0  0.7826807876338862  0.5282521298934099  0.7212564367858503  1.0000
  O   O6        1.0  0.28271791757074277  0.9717234414986249  0.7787471270771388  1.0000
  O   O7        1.0  0.2172648142540439  0.4717299802973614  0.2787385734350919  1.0000
  O   O8        1.0  0.7172794880259162  0.028281018692489095  0.22129166172167905  1.0000
  O   O9        1.0  0.3985151409041023  0.46337021841908654  0.6389087855219554  1.0000
  O   O10       1.0  0.8985167302865734  0.036664967235168405  0.8610711839635099  1.0000
  O   O11       1.0  0.6014138794079146  0.5366421736214448  0.3610791220905367  1.0000
  O   O12       1.0  0.1014350858263953  0.9633354871232241  0.13894000955268376  1.0000
  O   O13       1.0  0.39250155578059776  0.5411257921392475  0.8030799502161298  1.0000
  O   O14       1.0  0.8926116705481205  0.9588664524587003  0.6969029339175703  1.0000
  O   O15       1.0  0.6074171025528585  0.4588897880185884  0.19690771738419238  1.0000
  O   O16       1.0  0.10746241359929339  0.041130011252747095  0.30310408119248666  1.0000
