data_image0
_chemical_formula_structural       Al4H60C76N6O38F14
_chemical_formula_sum              "Al4 H60 C76 N6 O38 F14"
_cell_length_a       6.610620068067662
_cell_length_b       22.660363730878228
_cell_length_c       25.434265580362997
_cell_angle_alpha    90.57592604999904
_cell_angle_beta     89.27609789477192
_cell_angle_gamma    90.17691098547886

_space_group_name_H-M_alt    "P 1"
_space_group_IT_number       1

loop_
  _space_group_symop_operation_xyz
  'x, y, z'

loop_
  _atom_site_type_symbol
  _atom_site_label
  _atom_site_symmetry_multiplicity
  _atom_site_fract_x
  _atom_site_fract_y
  _atom_site_fract_z
  _atom_site_occupancy
  Al  Al1       1.0  0.2828550926157334  0.2524238301838153  0.7481036131948358  1.0000
  Al  Al2       1.0  0.7139087022742602  0.7493266723248055  0.2517075109120769  1.0000
  Al  Al3       1.0  0.7820681409856365  0.2532995816500829  0.7470580192380964  1.0000
  Al  Al4       1.0  0.21378791915088163  0.7462697866612803  0.2526114073465138  1.0000
  H   H1        1.0  0.6875374746988359  0.5113954026817282  0.0831550810149224  1.0000
  H   H2        1.0  0.3124107309022506  0.493167795275987  0.9123909358740363  1.0000
  H   H3        1.0  0.0056235147102726  0.5804539739139757  0.19939573573811495  1.0000
  H   H4        1.0  0.9331016174884114  0.6425027770458913  0.16153777874946942  1.0000
  H   H5        1.0  0.9986575774130628  0.5736241618364631  0.1290168946763828  1.0000
  H   H6        1.0  0.0597091012746134  0.3651548509357951  0.8315938180081875  1.0000
  H   H7        1.0  0.9993417048717603  0.4316643926615384  0.7977913221693315  1.0000
  H   H8        1.0  0.011556700433999399  0.4326631632573736  0.8681298367401242  1.0000
  H   H9        1.0  0.7840613351445498  0.5322606873838538  0.2640100976466684  1.0000
  H   H10       1.0  0.5232261477861044  0.546808568641744  0.2772525540883848  1.0000
  H   H11       1.0  0.6568142517641888  0.4941389836121105  0.3167325289063001  1.0000
  H   H12       1.0  0.9972654792517588  0.42382257580029403  0.702818622483143  1.0000
  H   H13       1.0  0.046186241872810306  0.37054245889398624  0.6511064920844094  1.0000
  H   H14       1.0  0.030584722145057707  0.4477564749127156  0.6362714433168648  1.0000
  H   H15       1.0  0.020288049654823198  0.47500024313374223  0.4278157829479953  1.0000
  H   H16       1.0  0.9333644287184057  0.5300166340159578  0.4735432300669089  1.0000
  H   H17       1.0  0.017914404628427895  0.5511436579873321  0.4084756755131594  1.0000
  H   H18       1.0  0.5463754373445868  0.5597452632150494  0.6417312398543943  1.0000
  H   H19       1.0  0.3839172309177244  0.5168317747225402  0.6841667695378462  1.0000
  H   H20       1.0  0.28726292864206476  0.5808824758458756  0.6522718845240901  1.0000
  H   H21       1.0  0.6162805528797719  0.4140165584513368  0.4408737090477645  1.0000
  H   H22       1.0  0.6067208362017523  0.33636736363069286  0.4564720147635982  1.0000
  H   H23       1.0  0.8278402145715021  0.36783096153499173  0.4258187549698605  1.0000
  H   H24       1.0  0.40248022095560293  0.6059295022988779  0.5592607294705801  1.0000
  H   H25       1.0  0.154049284405275  0.6313016708019673  0.5759486805901446  1.0000
  H   H26       1.0  0.33522149077651864  0.6817269022682879  0.5478172465815447  1.0000
  H   H27       1.0  0.9410648449706047  0.29314084065889295  0.5151887564075963  1.0000
  H   H28       1.0  0.6858396124477154  0.2650614032328491  0.5175716398161825  1.0000
  H   H29       1.0  0.8806045196433487  0.22901101930697373  0.5533994870576748  1.0000
  H   H30       1.0  0.08910435586297179  0.7721963623179492  0.4396892677789026  1.0000
  H   H31       1.0  0.2749346360930076  0.739912444432022  0.481008560385952  1.0000
  H   H32       1.0  0.024252026249307307  0.7086296315150734  0.4780351382831824  1.0000
  H   H33       1.0  0.5343010190467795  0.9665381902307927  0.1291192086115913  1.0000
  H   H34       1.0  0.32884902562121004  0.014549140408497903  0.14765296270917364  1.0000
  H   H35       1.0  0.5032294133088513  0.0355241517582954  0.09631200491877931  1.0000
  H   H36       1.0  0.6632000203954932  0.20540482483950484  0.9875823119855199  1.0000
  H   H37       1.0  0.807374465176345  0.1713297470693789  0.0386947083548179  1.0000
  H   H38       1.0  0.5378936532647245  0.16122907791766042  0.0363315016734873  1.0000
  H   H39       1.0  0.998761737402674  0.9333319854532007  0.6179014908224687  1.0000
  H   H40       1.0  0.735132221565685  0.918173673761828  0.6298865989845481  1.0000
  H   H41       1.0  0.8654455743691332  0.9707017683551341  0.6706140123522459  1.0000
  H   H42       1.0  0.2570736347554643  0.084742962082764  0.3704925774645531  1.0000
  H   H43       1.0  0.9954454363042089  0.068544856449293  0.3842306289878509  1.0000
  H   H44       1.0  0.1235239684970963  0.0328429066709575  0.3297549586097333  1.0000
  H   H45       1.0  0.8814972113761856  0.8447171248344675  0.5428375446495366  1.0000
  H   H46       1.0  0.72438674865856  0.7985460653276916  0.50199423491717  1.0000
  H   H47       1.0  0.6141896023236272  0.8405174496242656  0.5554593795605385  1.0000
  H   H48       1.0  0.2745969822432173  0.20343966448066916  0.4980427843011982  1.0000
  H   H49       1.0  0.12018581435999923  0.15709404268177002  0.4566763290082037  1.0000
  H   H50       1.0  0.38791931213192044  0.1618275492242347  0.4447918731786729  1.0000
  H   H51       1.0  0.5006278957493606  0.8400321665136871  0.3529062461866205  1.0000
  H   H52       1.0  0.4264133752176988  0.8533005322179363  0.4206776727533566  1.0000
  H   H53       1.0  0.4165689648944095  0.7801829324844363  0.3923662451278106  1.0000
  H   H54       1.0  0.4937269705766525  0.1603426294371744  0.6479870180325522  1.0000
  H   H55       1.0  0.5830002794566341  0.22051623019024905  0.60966940075145  1.0000
  H   H56       1.0  0.5724503206273682  0.14781384981972684  0.5805027549608894  1.0000
  H   H57       1.0  0.5337082282284983  0.17893757785422795  0.7676559240034422  1.0000
  H   H58       1.0  0.45760130318975456  0.8202261725262403  0.22960573763693762  1.0000
  H   H59       1.0  0.0366680780622417  0.3250107108267315  0.7255577607330892  1.0000
  H   H60       1.0  0.9540904269159896  0.6785202190150345  0.27924705528590726  1.0000
  C   C1        1.0  0.5361223114104376  0.32486208465906696  0.8188219187990242  1.0000
  C   C2        1.0  0.4650458969823461  0.6772434315884369  0.17976127891471802  1.0000
  C   C3        1.0  0.5307878001834467  0.32065543962955456  0.6748701501839278  1.0000
  C   C4        1.0  0.46650577626484596  0.680581703986249  0.32502444559398214  1.0000
  C   C5        1.0  0.028451479953737594  0.1791345435110189  0.6786975944542561  1.0000
  C   C6        1.0  0.9674562312134543  0.8224701220567853  0.32083038743038383  1.0000
  C   C7        1.0  0.0309678951051424  0.18539816506097404  0.8202403002378063  1.0000
  C   C8        1.0  0.9672945848484176  0.8150104204899052  0.17858112878559507  1.0000
  C   C9        1.0  0.021106362996704302  0.1442844545790294  0.8658387144688575  1.0000
  C   C10       1.0  0.9763813486546483  0.8558777140926209  0.13269614289885823  1.0000
  C   C11       1.0  0.862491231126441  0.14704015248053537  0.9029021001683548  1.0000
  C   C12       1.0  0.13430371701368676  0.8970181128461336  0.12637927501810964  1.0000
  C   C13       1.0  0.8543547842598684  0.11099415523015214  0.9471957904066387  1.0000
  C   C14       1.0  0.14874971295104442  0.9354714023505938  0.08352873622162353  1.0000
  C   C15       1.0  0.006546140857132296  0.06818969071844802  0.9537196784560253  1.0000
  C   C16       1.0  0.9959585137975681  0.9320842681193188  0.045000119022347504  1.0000
  C   C17       1.0  0.16140399267712982  0.063446283840733  0.9157682578495923  1.0000
  C   C18       1.0  0.8398547186669063  0.8907926540888128  0.05066328052536311  1.0000
  C   C19       1.0  0.1702701719990642  0.1014775215766335  0.8731590871009445  1.0000
  C   C20       1.0  0.8283637434705325  0.8534403312290308  0.0936235002600867  1.0000
  C   C21       1.0  0.0005413007463345968  0.029804164078441903  0.9994822556912342  1.0000
  C   C22       1.0  0.99966025240915  0.97058125058323  0.9991930470956021  1.0000
  C   C23       1.0  0.9619488066431787  0.8656926045920986  0.36575040450026824  1.0000
  C   C24       1.0  0.036214896255302206  0.1360218253761616  0.6337825339169642  1.0000
  C   C25       1.0  0.0872110471150904  0.9153086388770009  0.366366931026711  1.0000
  C   C26       1.0  0.9108046450280369  0.0864651638331395  0.6329758324352497  1.0000
  C   C27       1.0  0.0855995091999517  0.9568941714318343  0.4073818673841387  1.0000
  C   C28       1.0  0.9132136032365282  0.04489504983951781  0.5919470426588093  1.0000
  C   C29       1.0  0.9511568008388878  0.9475802545118913  0.4504024655755644  1.0000
  C   C30       1.0  0.048360896718570204  0.05442039375076041  0.5490804152307405  1.0000
  C   C31       1.0  0.8229419754963274  0.8975312605292417  0.4506672767434595  1.0000
  C   C32       1.0  0.17661312449350672  0.1044629468625047  0.5490541021516435  1.0000
  C   C33       1.0  0.8264770793893064  0.8574710023509341  0.4082354510967932  1.0000
  C   C34       1.0  0.17224396407634404  0.1444468720643641  0.5915103774107777  1.0000
  C   C35       1.0  0.5327291925665635  0.3658087814392488  0.865514935553364  1.0000
  C   C36       1.0  0.470072970293714  0.6381062159694438  0.1318774898279642  1.0000
  C   C37       1.0  0.4046544474085891  0.41603001536730483  0.8680976311596285  1.0000
  C   C38       1.0  0.598276701861721  0.588023447384117  0.1283673292461813  1.0000
  C   C39       1.0  0.4079099538798658  0.4540537008942423  0.9112575990367449  1.0000
  C   C40       1.0  0.59179717608464  0.5504127970690079  0.08506517128103751  1.0000
  C   C41       1.0  0.5361965969038067  0.44360570020680257  0.9538308946760596  1.0000
  C   C42       1.0  0.4605342126749364  0.5613393991318603  0.0431905515893334  1.0000
  C   C43       1.0  0.6619314175037375  0.39376178281881374  0.9517685279317618  1.0000
  C   C44       1.0  0.3362133374992666  0.6115088418148319  0.04586119609039231  1.0000
  C   C45       1.0  0.6606352450112282  0.356183167550931  0.9080427319312605  1.0000
  C   C46       1.0  0.3415038973363735  0.6488721370984507  0.08978456409899141  1.0000
  C   C47       1.0  0.5370841481397265  0.3634755061065106  0.6304455260056373  1.0000
  C   C48       1.0  0.4682465475039023  0.6401470208402672  0.37107719785038284  1.0000
  C   C49       1.0  0.415373155877795  0.41386433128344186  0.6337576236883038  1.0000
  C   C50       1.0  0.6044896050749173  0.5926746042487849  0.371683862879479  1.0000
  C   C51       1.0  0.4267351345883199  0.45792799307001536  0.5951662029999413  1.0000
  C   C52       1.0  0.6142736662464402  0.5550254501096179  0.4151937973444575  1.0000
  C   C53       1.0  0.5510575654219566  0.4484873952662696  0.5500533542738355  1.0000
  C   C54       1.0  0.47937779499653743  0.5640465663894502  0.4584476564509644  1.0000
  C   C55       1.0  0.6686469248231364  0.3961442787816197  0.5458542206573753  1.0000
  C   C56       1.0  0.34228408637142854  0.6122391062521616  0.4576913370111485  1.0000
  C   C57       1.0  0.6663932733740554  0.3543763087938315  0.5863897226907184  1.0000
  C   C58       1.0  0.33643901842538787  0.6504029227673771  0.41448356865639374  1.0000
  C   C59       1.0  0.9269815707875821  0.5942622858888527  0.16392556321051896  1.0000
  C   C60       1.0  0.0767233146817787  0.4133573819278242  0.8317809726459232  1.0000
  C   C61       1.0  0.6690595159756472  0.5358675419490524  0.2951779302766724  1.0000
  C   C62       1.0  0.0785035901141669  0.4154792440662902  0.665614999887076  1.0000
  C   C63       1.0  0.9405514630523513  0.5171357020069394  0.4318772395626738  1.0000
  C   C64       1.0  0.3910054058899277  0.5434466055083149  0.6483841565181477  1.0000
  C   C65       1.0  0.7036421214270875  0.37594030327826305  0.4539358342979867  1.0000
  C   C66       1.0  0.2805019041382053  0.6356595641852465  0.5479748653740373  1.0000
  C   C67       1.0  0.8258890160237372  0.27179507433291417  0.5398915136297263  1.0000
  C   C68       1.0  0.144746545570122  0.7306346484159859  0.4555990152221768  1.0000
  C   C69       1.0  0.4238908190426613  0.9984701401220305  0.11480885039170372  1.0000
  C   C70       1.0  0.6763404548543477  0.16649608479878  0.0127084286184598  1.0000
  C   C71       1.0  0.8525832764049069  0.9523654133639428  0.6305824527038696  1.0000
  C   C72       1.0  0.1407433279813048  0.050208187082120014  0.3700333453622379  1.0000
  C   C73       1.0  0.7316656659426855  0.8400918522365475  0.5246512559549573  1.0000
  C   C74       1.0  0.269197914183998  0.1619283473983941  0.4752845682570879  1.0000
  C   C75       1.0  0.4981138415870774  0.8221447155528027  0.3927680365404172  1.0000
  C   C76       1.0  0.4998646677776861  0.17884207068228622  0.6083728555076675  1.0000
  N   N1        1.0  0.9199689931627547  0.9900250333964636  0.4904520998811037  1.0000
  N   N2        1.0  0.07996727901882392  0.0121042169282717  0.5089650560530288  1.0000
  N   N3        1.0  0.5504990990611205  0.4792354578971044  0.9991358514329463  1.0000
  N   N4        1.0  0.4442749404760988  0.5258031892829393  0.9978447169901088  1.0000
  N   N5        1.0  0.592307691801338  0.4913635668913729  0.511664007791481  1.0000
  N   N6        1.0  0.4426279524543446  0.5226116136572897  0.4983571879701288  1.0000
  O   O1        1.0  0.6982695021814251  0.3100110833740288  0.696909382468647  1.0000
  O   O2        1.0  0.2972674349283579  0.690613026723497  0.30365876512120593  1.0000
  O   O3        1.0  0.3678830098364189  0.312379082882984  0.7980096852538877  1.0000
  O   O4        1.0  0.6334959575158122  0.691146576574404  0.1997112705873718  1.0000
  O   O5        1.0  0.2035553988497085  0.20602902483890528  0.8081547995439922  1.0000
  O   O6        1.0  0.7928921730499001  0.7985282257043451  0.19382951712356092  1.0000
  O   O7        1.0  0.36065417205586675  0.2990682702725139  0.6883562781759808  1.0000
  O   O8        1.0  0.6350988005715124  0.7020837814495098  0.3102408244613031  1.0000
  O   O9        1.0  0.1936696036411405  0.18974419862589534  0.701992291308052  1.0000
  O   O10       1.0  0.7998438595771733  0.8111889455708692  0.2990275092916619  1.0000
  O   O11       1.0  0.7091100181826775  0.3064971876245437  0.8039086145147536  1.0000
  O   O12       1.0  0.2907103989033856  0.6922032036509906  0.19654900785798193  1.0000
  O   O13       1.0  0.5320970814649469  0.2163811551394019  0.7495226628165029  1.0000
  O   O14       1.0  0.46230363781273803  0.7842782440250036  0.24993937047277373  1.0000
  O   O15       1.0  0.8566310343506913  0.20088784419568376  0.6900732099934573  1.0000
  O   O16       1.0  0.13900270689698857  0.8013742200959516  0.30809911612796986  1.0000
  O   O17       1.0  0.8658432255307673  0.19609836377917841  0.7974475410602793  1.0000
  O   O18       1.0  0.13345825409065526  0.8001336984763299  0.19874524872084012  1.0000
  O   O19       1.0  0.03416826463229229  0.2891990063849192  0.7461100693451215  1.0000
  O   O20       1.0  0.9611644132846422  0.711164785099804  0.2547100413437633  1.0000
  O   O21       1.0  0.7203167991352473  0.5740853778523631  0.16977833981683688  1.0000
  O   O22       1.0  0.28683906699473743  0.4297738550150925  0.8258996304527174  1.0000
  O   O23       1.0  0.7334834344122998  0.5831206473329191  0.3295626420946576  1.0000
  O   O24       1.0  0.2908948124793227  0.4216959575996669  0.6771269995908894  1.0000
  O   O25       1.0  0.7396068881690568  0.5071080637345987  0.411724694989509  1.0000
  O   O26       1.0  0.32516537484571023  0.5101565908682846  0.6028424418105587  1.0000
  O   O27       1.0  0.7978707904359368  0.38772374470936916  0.5037226510471271  1.0000
  O   O28       1.0  0.2020886571106857  0.6196279691456681  0.49749905570512  1.0000
  O   O29       1.0  0.7855075676398259  0.3052753182092047  0.5872250772108245  1.0000
  O   O30       1.0  0.20569964176088013  0.6963802232828585  0.4102721340760668  1.0000
  O   O31       1.0  0.30235817656256364  0.9735773201639266  0.0735140179387699  1.0000
  O   O32       1.0  0.6949817896792113  0.11283354185894717  0.9819115262311726  1.0000
  O   O33       1.0  0.7897347965888315  0.9964293599159934  0.593866436246188  1.0000
  O   O34       1.0  0.20946368374523422  0.005359404749619  0.40513311444343  1.0000
  O   O35       1.0  0.6909184249649486  0.8900433969813548  0.4921326944594925  1.0000
  O   O36       1.0  0.3096759886082411  0.1120044628604759  0.5078029218518552  1.0000
  O   O37       1.0  0.7024568720001556  0.808832861452686  0.40906798303236513  1.0000
  O   O38       1.0  0.29717609346420193  0.19290666532346995  0.5911940063683616  1.0000
  F   F1        1.0  0.7097621813927263  0.18579407011669963  0.8965222110700637  1.0000
  F   F2        1.0  0.2813958409820074  0.9001036129204889  0.16327034589924952  1.0000
  F   F3        1.0  0.787839288288474  0.3813706205360887  0.9915522610169065  1.0000
  F   F4        1.0  0.20809838084396406  0.624182184689559  0.006775518880708399  1.0000
  F   F5        1.0  0.7855499800523731  0.3090982511715836  0.9090891063429114  1.0000
  F   F6        1.0  0.219436268584623  0.6966009620772198  0.08981820186784262  1.0000
  F   F7        1.0  0.6734067276562856  0.8146173660306248  0.0955919870719768  1.0000
  F   F8        1.0  0.32407477742524554  0.0948642912422244  0.8380991619250935  1.0000
  F   F9        1.0  0.9939201359803748  0.9422089609330799  0.9516712863773549  1.0000
  F   F10       1.0  0.991445113006762  0.058490614675477594  0.04716546299743381  1.0000
  F   F11       1.0  0.308162416556641  0.022685407038629504  0.9205202882947034  1.0000
  F   F12       1.0  0.6925933048321369  0.8878358982527742  0.014387105939192698  1.0000
  F   F13       1.0  0.7825574715686515  0.07668483997081671  0.6743742249230068  1.0000
  F   F14       1.0  0.214124023579501  0.9253378643888227  0.3247026149909474  1.0000
