data_image0
_chemical_formula_structural       Cu4H24C40I4N12O4
_chemical_formula_sum              "Cu4 H24 C40 I4 N12 O4"
_cell_length_a       7.067171027325328
_cell_length_b       12.921336027533869
_cell_length_c       13.310516308581265
_cell_angle_alpha    119.0503211157785
_cell_angle_beta     91.47822155060187
_cell_angle_gamma    89.99566345035295

_space_group_name_H-M_alt    "P 1"
_space_group_IT_number       1

loop_
  _space_group_symop_operation_xyz
  'x, y, z'

loop_
  _atom_site_type_symbol
  _atom_site_label
  _atom_site_symmetry_multiplicity
  _atom_site_fract_x
  _atom_site_fract_y
  _atom_site_fract_z
  _atom_site_occupancy
  Cu  Cu1       1.0  0.6511615542890681  0.46688827724898374  0.0927503496481847  1.0000
  Cu  Cu2       1.0  0.8486847378343254  0.37403625024802517  0.9071125272215639  1.0000
  Cu  Cu3       1.0  0.3488344782110672  0.5331072386668866  0.9072450088349271  1.0000
  Cu  Cu4       1.0  0.1513128875694107  0.6259672459038725  0.09289035357099351  1.0000
  H   H1        1.0  0.2498667770027723  0.8048208278147015  0.99962596796707  1.0000
  H   H2        1.0  0.7501393258140538  0.19518266757796005  0.0003792986659334164  1.0000
  H   H3        1.0  0.2368586135818944  0.9942739591427668  0.18416228135872367  1.0000
  H   H4        1.0  0.2629969938634815  0.8097580439826048  0.8151130013883546  1.0000
  H   H5        1.0  0.7631446886090387  0.0057295231678509  0.8158384276661934  1.0000
  H   H6        1.0  0.73700040873544  0.19023749447642763  0.184889150692328  1.0000
  H   H7        1.0  0.2500450879200642  0.19050051604863685  0.9997701823075643  1.0000
  H   H8        1.0  0.7499396887738642  0.8094976676679553  0.00022625110871394628  1.0000
  H   H9        1.0  0.41191914478638836  0.7567189149998725  0.5487036486599166  1.0000
  H   H10       1.0  0.08787241064052857  0.20837925310802066  0.4513335742903308  1.0000
  H   H11       1.0  0.5880827523411298  0.24328276868665452  0.4512879310419748  1.0000
  H   H12       1.0  0.9121336296579725  0.7916215834972962  0.5486696936856746  1.0000
  H   H13       1.0  0.2020554480301442  0.6357470996967577  0.5960314797638944  1.0000
  H   H14       1.0  0.2980534626913425  0.04018367530388639  0.4038852011161111  1.0000
  H   H15       1.0  0.7979507326973092  0.3642572517320843  0.40396592514477453  1.0000
  H   H16       1.0  0.7019424969338601  0.959810981908781  0.5961172666257398  1.0000
  H   H17       1.0  0.1480161059932357  0.4201062124853506  0.4604095531847889  1.0000
  H   H18       1.0  0.35224249756686987  0.9599229551251794  0.5392442864865359  1.0000
  H   H19       1.0  0.8519928027704111  0.5798954985722348  0.5395919156061525  1.0000
  H   H20       1.0  0.6477449093950723  0.0400699481019799  0.46075947941412926  1.0000
  H   H21       1.0  0.5733480350407874  0.6681254215485809  0.3588219832501451  1.0000
  H   H22       1.0  0.9262101568134254  0.3093794215205961  0.6412288769579888  1.0000
  H   H23       1.0  0.4266550947022552  0.33187007639893557  0.641170472407012  1.0000
  H   H24       1.0  0.07380301065691698  0.6906231758643243  0.35877457638310517  1.0000
  C   C1        1.0  0.24995053022333744  0.8891104006095959  0.9996270180303953  1.0000
  C   C2        1.0  0.7500484329750278  0.11089044329597189  0.00037614290921078787  1.0000
  C   C3        1.0  0.2427971867784464  0.994789270907887  0.1027617680883495  1.0000
  C   C4        1.0  0.257143877214112  0.8916681772455137  0.8965370184908822  1.0000
  C   C5        1.0  0.7571988531326141  0.005207138382488101  0.8972362631886599  1.0000
  C   C6        1.0  0.7428536255282194  0.10833089737322872  0.10346529024717202  1.0000
  C   C7        1.0  0.246378712285626  0.10376388034856626  0.10342715284836859  1.0000
  C   C8        1.0  0.2537055124017087  6.183674396000125e-05  0.8959895685442022  1.0000
  C   C9        1.0  0.7536131989910686  0.8962369575221345  0.8965721387268957  1.0000
  C   C10       1.0  0.7462848957581727  0.9999363571345652  0.10401146529472526  1.0000
  C   C11       1.0  0.25006738884510327  0.10659163860868401  0.9997231105559904  1.0000
  C   C12       1.0  0.7499245073245078  0.8934092072630904  0.0002784384160393026  1.0000
  C   C13       1.0  0.2308562254226061  0.2113288374411084  0.21678101801116162  1.0000
  C   C14       1.0  0.2691441406600958  0.9943946888502777  0.7827279666677286  1.0000
  C   C15       1.0  0.7691272306737813  0.7886746813123579  0.7832239061053626  1.0000
  C   C16       1.0  0.7308492408587952  0.0056097077233019  0.21727827516248507  1.0000
  C   C17       1.0  0.32826334634234666  0.4262752261506364  0.33354517358742447  1.0000
  C   C18       1.0  0.17176186446744174  0.09281512789257108  0.6661885575326778  1.0000
  C   C19       1.0  0.6717412862322829  0.5737247105391461  0.6664531427906368  1.0000
  C   C20       1.0  0.828235745829218  0.9071883762603934  0.33381658065665226  1.0000
  C   C21       1.0  0.3907291737776148  0.6636674176570027  0.4858804512272529  1.0000
  C   C22       1.0  0.10909259665265839  0.17807468487443148  0.5140815562824699  1.0000
  C   C23       1.0  0.6092741186271552  0.3363342752375686  0.514114159744274  1.0000
  C   C24       1.0  0.8909105502874652  0.8219234958636433  0.48591967022197474  1.0000
  C   C25       1.0  0.27075738908676067  0.5940323013806932  0.5132724927267986  1.0000
  C   C26       1.0  0.2292107317324934  0.0810701707145824  0.4865835166248615  1.0000
  C   C27       1.0  0.7292487291223748  0.40596939126079684  0.4867229135248792  1.0000
  C   C28       1.0  0.7707867333847531  0.9189280265317877  0.5134206341128192  1.0000
  C   C29       1.0  0.23759005568766864  0.4740291119093882  0.43857756555610905  1.0000
  C   C30       1.0  0.2625832133467867  0.03569859550255929  0.5611802982981473  1.0000
  C   C31       1.0  0.7624202261204472  0.5259699282327047  0.5614189161227614  1.0000
  C   C32       1.0  0.7374142467347653  0.9642996044108403  0.4388246049051219  1.0000
  C   C33       1.0  0.4808712872212196  0.6157554690306526  0.3814801524676242  1.0000
  C   C34       1.0  0.018867268944148894  0.2344025611572319  0.6184687126627679  1.0000
  C   C35       1.0  0.519134690844183  0.3842409140372284  0.618513513866816  1.0000
  C   C36       1.0  0.981135983175079  0.7655991530735308  0.381531918033467  1.0000
  C   C37       1.0  0.4466334702010499  0.4956619327654579  0.30540463846770655  1.0000
  C   C38       1.0  0.0531470586009846  0.19029267922906  0.6944359297589315  1.0000
  C   C39       1.0  0.5533696894709266  0.5043353439300162  0.694590905380487  1.0000
  C   C40       1.0  0.946856256036561  0.8097116937890478  0.30556669959430155  1.0000
  I   I1        1.0  0.0106563301837213  0.45158828921923794  0.12116358501060623  1.0000
  I   I2        1.0  0.489233812934799  0.33030176489229046  0.8787172059599727  1.0000
  I   I3        1.0  0.9893384617195051  0.5484161085613123  0.8788434306924772  1.0000
  I   I4        1.0  0.5107637300930747  0.6696972883902604  0.12127908305338059  1.0000
  N   N1        1.0  0.33257606143936164  0.3146192637068097  0.23769231041917038  1.0000
  N   N2        1.0  0.16745069682831823  0.0768384526275057  0.7619218619775481  1.0000
  N   N3        1.0  0.6674242697677855  0.6853789119502948  0.7623066158739533  1.0000
  N   N4        1.0  0.832548266370047  0.9231623912780621  0.2380812989620581  1.0000
  N   N5        1.0  0.4477468369516373  0.31611644630606156  0.15651336593165152  1.0000
  N   N6        1.0  0.0521418339095092  0.1594084920498702  0.8431466730576958  1.0000
  N   N7        1.0  0.5522534992912043  0.6838817266840208  0.8434848078958836  1.0000
  N   N8        1.0  0.9478543485205008  0.8405941228556558  0.15685652339603715  1.0000
  N   N9        1.0  0.5132565623977285  0.42297180908200716  0.19582019440854742  1.0000
  N   N10       1.0  0.986542334512471  0.22704340334820464  0.8039739228350343  1.0000
  N   N11       1.0  0.4867423133890795  0.5770245946212428  0.8041771272174358  1.0000
  N   N12       1.0  0.013463861036832697  0.7729627348296544  0.1960288276614435  1.0000
  O   O1        1.0  0.1345011643519101  0.21506559688857155  0.29404247686004237  1.0000
  O   O2        1.0  0.3655562566279825  0.920908463110308  0.7053621007745859  1.0000
  O   O3        1.0  0.8654993324626546  0.7849360802569337  0.7059468240378097  1.0000
  O   O4        1.0  0.634449761437743  0.0790896933714791  0.29463314881972025  1.0000
