data_image0
_chemical_formula_structural       Zn4B4H96C110N12O16F8
_chemical_formula_sum              "Zn4 B4 H96 C110 N12 O16 F8"
_cell_length_a       14.921124802634134
_cell_length_b       14.921123369052957
_cell_length_c       15.938150298411674
_cell_angle_alpha    83.06705970133339
_cell_angle_beta     83.06702102763488
_cell_angle_gamma    86.93527247438219

_space_group_name_H-M_alt    "P 1"
_space_group_IT_number       1

loop_
  _space_group_symop_operation_xyz
  'x, y, z'

loop_
  _atom_site_type_symbol
  _atom_site_label
  _atom_site_symmetry_multiplicity
  _atom_site_fract_x
  _atom_site_fract_y
  _atom_site_fract_z
  _atom_site_occupancy
  Zn  Zn1       1.0  0.8774866646534322  0.10484607475676463  0.8422414121825241  1.0000
  Zn  Zn2       1.0  0.8951534209819555  0.12251287766347468  0.657757895914088  1.0000
  Zn  Zn3       1.0  0.122513052460377  0.8951532704947099  0.15775827704518255  1.0000
  Zn  Zn4       1.0  0.10484629613185352  0.877486467588007  0.3422417933136188  1.0000
  B   B1        1.0  0.4052296485353822  0.07993300623157042  0.6410519230891225  1.0000
  B   B2        1.0  0.9200680029162599  0.5947703953844864  0.8589479313235485  1.0000
  B   B3        1.0  0.5947707454472778  0.9200676619432359  0.35894754454997  1.0000
  B   B4        1.0  0.0799317148061149  0.4052296249680865  0.1410516830316624  1.0000
  H   H1        1.0  0.7072753619364819  0.2597988490948567  0.3043898938667695  1.0000
  H   H2        1.0  0.7402007982146515  0.29272411779730584  0.1956110391323236  1.0000
  H   H3        1.0  0.29272367798828475  0.7402005218983946  0.6956104949739839  1.0000
  H   H4        1.0  0.25979823956421205  0.7072745765577579  0.8043900523503423  1.0000
  H   H5        1.0  0.6694432533096161  0.1343428888708402  0.23998129394538378  1.0000
  H   H6        1.0  0.8656573811906155  0.33055676456900335  0.2600188551445441  1.0000
  H   H7        1.0  0.33055646380419296  0.8656564563806343  0.7600183952823159  1.0000
  H   H8        1.0  0.13434166088003957  0.6694432830624351  0.7399808310542965  1.0000
  H   H9        1.0  0.7738004287561753  0.09770581918184722  0.275713602176566  1.0000
  H   H10       1.0  0.902293509295525  0.22619941485863393  0.22428662574904476  1.0000
  H   H11       1.0  0.2261992877490684  0.9022928509685356  0.7242861619236293  1.0000
  H   H12       1.0  0.09770553123780701  0.7738006312357156  0.7757136882192199  1.0000
  H   H13       1.0  0.6838673656743667  0.2316292772075315  0.08383598389171709  1.0000
  H   H14       1.0  0.768370722912252  0.31613218036792295  0.4161649011533228  1.0000
  H   H15       1.0  0.3161323499021123  0.768370066506854  0.9161643331054065  1.0000
  H   H16       1.0  0.23162899112689672  0.6838671618093811  0.5838360436132319  1.0000
  H   H17       1.0  0.7494859899030502  0.212945095905404  0.9352657280078701  1.0000
  H   H18       1.0  0.7870565673719271  0.25051353778644625  0.564734671421462  1.0000
  H   H19       1.0  0.2505137274991327  0.7870562731122703  0.06473436437178752  1.0000
  H   H20       1.0  0.21294517576826882  0.7494863991924489  0.43526535517228376  1.0000
  H   H21       1.0  0.936175890947638  0.017560081712218796  0.018637161741764895  1.0000
  H   H22       1.0  0.9824408719770191  0.0638235064980748  0.48136223103843884  1.0000
  H   H23       1.0  0.06382382799186812  0.9824412888425442  0.9813623028684688  1.0000
  H   H24       1.0  0.017559521397075204  0.9361764865756328  0.5186373114731424  1.0000
  H   H25       1.0  0.8849314898617922  0.0330918684855277  0.16980920465667274  1.0000
  H   H26       1.0  0.9669082435410276  0.11506801319305993  0.3301902909037153  1.0000
  H   H27       1.0  0.11506822878934742  0.9669074783030354  0.8301898568016028  1.0000
  H   H28       1.0  0.033092150761831404  0.8849313063166376  0.6698086987109377  1.0000
  H   H29       1.0  0.2682737265493813  0.09593100292975981  0.5299509694598256  1.0000
  H   H30       1.0  0.9040697707836289  0.7317261900467215  0.9700483463274735  1.0000
  H   H31       1.0  0.7317259917815663  0.9040696925239047  0.4700485700228967  1.0000
  H   H32       1.0  0.0959312960962819  0.26827309910994046  0.0299518269823906  1.0000
  H   H33       1.0  0.15312999612236666  0.06834476168911148  0.5655723458167259  1.0000
  H   H34       1.0  0.931655860713633  0.8468695861663207  0.9344270516050058  1.0000
  H   H35       1.0  0.8468697216000153  0.9316552586634543  0.4344272685384851  1.0000
  H   H36       1.0  0.06834453205189561  0.15312973180628833  0.06557256577907108  1.0000
  H   H37       1.0  0.24410006580802704  0.9868988376237909  0.5806488978894251  1.0000
  H   H38       1.0  0.013101308228975502  0.7558997794419966  0.9193507861994233  1.0000
  H   H39       1.0  0.7558996503770175  0.013101181191693508  0.4193513442352099  1.0000
  H   H40       1.0  0.986899086682449  0.24410021516879968  0.08064812854273384  1.0000
  H   H41       1.0  0.08944109878692791  0.2087635222520774  0.8584249201709185  1.0000
  H   H42       1.0  0.7912359901556626  0.910559000075722  0.6415752352982835  1.0000
  H   H43       1.0  0.9105592951957248  0.7912371459227218  0.14157454746817424  1.0000
  H   H44       1.0  0.20876372602938895  0.0894410187397625  0.3584250068263515  1.0000
  H   H45       1.0  0.19567941719942183  0.2307406428734566  0.8921766556351329  1.0000
  H   H46       1.0  0.7692589597220733  0.8043214540730189  0.6078221226181881  1.0000
  H   H47       1.0  0.804320976783231  0.7692600253013494  0.10782281200395975  1.0000
  H   H48       1.0  0.23074008295715492  0.1956792686595108  0.3921774887081639  1.0000
  H   H49       1.0  0.1445387182885653  0.12677022985013053  0.9254975721732208  1.0000
  H   H50       1.0  0.8732291091720726  0.8554623832675998  0.5745024478374887  1.0000
  H   H51       1.0  0.8554616756940946  0.8732304383246754  0.07450189546587185  1.0000
  H   H52       1.0  0.1267699319698181  0.14453833792784823  0.42549779125828735  1.0000
  H   H53       1.0  0.3198089742325863  0.027685829544623196  0.9612373395715181  1.0000
  H   H54       1.0  0.9723144941196793  0.6801904752941469  0.5387632946300656  1.0000
  H   H55       1.0  0.6801900641548428  0.9723135399115396  0.03876367703866632  1.0000
  H   H56       1.0  0.027685899254407804  0.31980951777956085  0.4612362478815157  1.0000
  H   H57       1.0  0.28539925240843894  0.06943323541915451  0.1078339376789117  1.0000
  H   H58       1.0  0.9305671418481652  0.7146003442172387  0.39216697505651144  1.0000
  H   H59       1.0  0.7145997871961286  0.9305674842391981  0.8921669291862885  1.0000
  H   H60       1.0  0.06943189929373261  0.2854003769782025  0.6078332640392715  1.0000
  H   H61       1.0  0.29586426486944367  0.2299896986436138  0.1349778319510122  1.0000
  H   H62       1.0  0.7700109360868198  0.7041363434639933  0.3650236152796679  1.0000
  H   H63       1.0  0.7041361266471214  0.7700116415581136  0.8650228163544398  1.0000
  H   H64       1.0  0.2299881041263134  0.2958650512954576  0.6349771767130434  1.0000
  H   H65       1.0  0.3424125179302564  0.3467772327038431  0.014881949979376051  1.0000
  H   H66       1.0  0.6532239083996957  0.6575878380126738  0.4851188640011869  1.0000
  H   H67       1.0  0.6575885501667926  0.6532234066550091  0.9851180735855108  1.0000
  H   H68       1.0  0.3467758068565913  0.34241285436682023  0.5148819310203834  1.0000
  H   H69       1.0  0.3807079213448787  0.3031960809923859  0.8682650359268891  1.0000
  H   H70       1.0  0.6968047521751616  0.6192913613883351  0.6317356285022342  1.0000
  H   H71       1.0  0.6192924714206498  0.6968032369802231  0.1317345814571809  1.0000
  H   H72       1.0  0.30319631531331487  0.38070860286942576  0.3682644699351413  1.0000
  H   H73       1.0  0.6276177140256892  0.11831885892318893  0.9152680745881767  1.0000
  H   H74       1.0  0.881681134882456  0.37238193555268145  0.5847312501225019  1.0000
  H   H75       1.0  0.3723820036966928  0.8816811614293841  0.08473153976703426  1.0000
  H   H76       1.0  0.1183185828399189  0.6276180847998913  0.4152683642327091  1.0000
  H   H77       1.0  0.5110129855866462  0.1015598003837397  0.9522584413762374  1.0000
  H   H78       1.0  0.8984406391691878  0.4889873432416394  0.5477414178371731  1.0000
  H   H79       1.0  0.48898740685868347  0.8984408662539777  0.04774165403227935  1.0000
  H   H80       1.0  0.1015590770158639  0.5110126755738448  0.45225882428746905  1.0000
  H   H81       1.0  0.5468815435375021  0.21085047109311006  0.9139253344971863  1.0000
  H   H82       1.0  0.789150359433883  0.45311915036503336  0.5860750917033926  1.0000
  H   H83       1.0  0.45311885044515793  0.7891501970816961  0.08607413314190643  1.0000
  H   H84       1.0  0.21085003147411638  0.5468815147355958  0.41392563147454803  1.0000
  H   H85       1.0  0.5657250911291031  0.0307471728909263  0.5628468957510719  1.0000
  H   H86       1.0  0.9692519823685045  0.43427344645422744  0.9371532643591323  1.0000
  H   H87       1.0  0.43427394818709086  0.9692515230012263  0.4371535679621772  1.0000
  H   H88       1.0  0.030748410397023907  0.5657258715183817  0.06284635302493773  1.0000
  H   H89       1.0  0.6752306482710893  0.0336226672536313  0.5986311216956537  1.0000
  H   H90       1.0  0.9663760776558804  0.32476744742684366  0.9013697263897313  1.0000
  H   H91       1.0  0.3247683925824347  0.9663760301756098  0.40136871424817133  1.0000
  H   H92       1.0  0.03362431142642211  0.6752311923704966  0.09863122140568244  1.0000
  H   H93       1.0  0.6242493140655371  0.1326723056228118  0.5503712000101968  1.0000
  H   H94       1.0  0.8673263029104347  0.3757504631910891  0.9496288971101734  1.0000
  H   H95       1.0  0.3757504024397065  0.8673263645275642  0.44962856408999846  1.0000
  H   H96       1.0  0.1326740889263291  0.6242495283455298  0.05037127317083901  1.0000
  C   C1        1.0  0.7558267519416046  0.2441724371047797  0.25000018408162117  1.0000
  C   C2        1.0  0.24417228737458876  0.7558262587873799  0.7500002796316281  1.0000
  C   C3        1.0  0.742064323893409  0.1474293178075641  0.2305879161400028  1.0000
  C   C4        1.0  0.8525705368291555  0.25793553266529307  0.2694122779369863  1.0000
  C   C5        1.0  0.25793539107450414  0.8525693508057302  0.7694124757296095  1.0000
  C   C6        1.0  0.14742918089321932  0.7420644876872801  0.7305873364182319  1.0000
  C   C7        1.0  0.7788475387567216  0.13397582286354756  0.1407676530565354  1.0000
  C   C8        1.0  0.8660245149443498  0.22115137012598046  0.3592325765252297  1.0000
  C   C9        1.0  0.22115150270536793  0.8660235496667924  0.8592321080148011  1.0000
  C   C10       1.0  0.13397520216946654  0.778847975125494  0.6407671127024699  1.0000
  C   C11       1.0  0.7409389379967378  0.1840598291476994  0.0724844604356463  1.0000
  C   C12       1.0  0.8159407312753049  0.25906064745093005  0.4275163249039267  1.0000
  C   C13       1.0  0.2590601025365942  0.8159402169466431  0.9275158535326257  1.0000
  C   C14       1.0  0.1840596584155634  0.7409386674475086  0.5724845480189913  1.0000
  C   C15       1.0  0.7759974979484668  0.17367768229585326  0.9895676267328993  1.0000
  C   C16       1.0  0.8263243379489681  0.22400159434012323  0.5104327604831339  1.0000
  C   C17       1.0  0.22400154287323198  0.8263243875646965  0.010433090387323332  1.0000
  C   C18       1.0  0.17367740304533189  0.775997666000592  0.48956796875252445  1.0000
  C   C19       1.0  0.8814555624230422  0.06563292964710848  0.03569882687398968  1.0000
  C   C20       1.0  0.9343679555138635  0.11854345943417136  0.46430064778382973  1.0000
  C   C21       1.0  0.11854348179351598  0.9343677946225099  0.9643001566829383  1.0000
  C   C22       1.0  0.06563311290337741  0.881455831259579  0.5356988977566175  1.0000
  C   C23       1.0  0.8515841323836284  0.074213571977225  0.1206194455878418  1.0000
  C   C24       1.0  0.9257868505055525  0.14841564901843185  0.3793800083953869  1.0000
  C   C25       1.0  0.148414909687034  0.9257864756542064  0.8793802406109991  1.0000
  C   C26       1.0  0.07421354347710012  0.8515850191563745  0.6206194592437058  1.0000
  C   C27       1.0  0.0626384764663541  0.11132291262789103  0.7250346468713219  1.0000
  C   C28       1.0  0.8886783843859476  0.937362274837362  0.7749639612528085  1.0000
  C   C29       1.0  0.9373619153704099  0.888677078908728  0.27496552340968344  1.0000
  C   C30       1.0  0.1113226852484246  0.0626383660585859  0.22503543454265434  1.0000
  C   C31       1.0  0.1610649877350241  0.1153220839633988  0.7269986758206741  1.0000
  C   C32       1.0  0.884678321965005  0.8389353442779777  0.7730019297788715  1.0000
  C   C33       1.0  0.8389347290585932  0.884678609953184  0.2730014914314793  1.0000
  C   C34       1.0  0.115321393611481  0.16106399943640778  0.22699838721825216  1.0000
  C   C35       1.0  0.23059670771132093  0.09051977378433658  0.6635446865644709  1.0000
  C   C36       1.0  0.9094819243346849  0.7694026973726764  0.8364552211541679  1.0000
  C   C37       1.0  0.769403686271339  0.9094808943904694  0.3364547810746217  1.0000
  C   C38       1.0  0.0905191431537986  0.2305972668850842  0.1635448772832078  1.0000
  C   C39       1.0  0.22293402315145275  0.058748532250255905  0.5799700135640505  1.0000
  C   C40       1.0  0.9412519551587409  0.7770660957137777  0.920029314127234  1.0000
  C   C41       1.0  0.7770656914962614  0.9412514850281467  0.4200308563300084  1.0000
  C   C42       1.0  0.058748439144118  0.2229332237959269  0.07996967548741908  1.0000
  C   C43       1.0  0.20271067749848026  0.1416320696840216  0.7946924745896382  1.0000
  C   C44       1.0  0.8583674710782816  0.7972898382168412  0.7053082016466874  1.0000
  C   C45       1.0  0.7972897143382839  0.8583679218525972  0.20530769569137416  1.0000
  C   C46       1.0  0.14163292229581262  0.2027101548568666  0.29469134086489385  1.0000
  C   C47       1.0  0.15593177070155662  0.17970608400012372  0.8714259658361526  1.0000
  C   C48       1.0  0.8202930609738105  0.8440692876800284  0.6285740936622659  1.0000
  C   C49       1.0  0.8440686232811032  0.8202945841746825  0.12857350180293992  1.0000
  C   C50       1.0  0.17970665581979967  0.15593140623654728  0.3714260735898804  1.0000
  C   C51       1.0  0.29754365721930043  0.1286499534776837  0.7720986743393182  1.0000
  C   C52       1.0  0.8713502427112942  0.7024573287259772  0.7279012154760096  1.0000
  C   C53       1.0  0.7024560617202127  0.8713514170770794  0.22790079027091534  1.0000
  C   C54       1.0  0.1286494734737573  0.29754269008950723  0.2720990266486325  1.0000
  C   C55       1.0  0.37090274206656915  0.13708476096562094  0.8179366920046005  1.0000
  C   C56       1.0  0.8629164737179736  0.6290965680361039  0.6820638752284935  1.0000
  C   C57       1.0  0.6290969747270408  0.862915932950962  0.18206347524754565  1.0000
  C   C58       1.0  0.13708459316193708  0.37090272112055805  0.3179362980813778  1.0000
  C   C59       1.0  0.45967750004076185  0.12010969022831121  0.7823338274438854  1.0000
  C   C60       1.0  0.8798910848710834  0.5403219369294234  0.7176654881922174  1.0000
  C   C61       1.0  0.5403228948706628  0.8798903043824851  0.2176650872982719  1.0000
  C   C62       1.0  0.1201093078944382  0.45967738104319267  0.2823341291918524  1.0000
  C   C63       1.0  0.3528911290528143  0.16272553992541108  0.905793456187034  1.0000
  C   C64       1.0  0.8372755038123855  0.6471077471711411  0.5942071941526521  1.0000
  C   C65       1.0  0.6471085871322303  0.8372744788900731  0.09420678593760105  1.0000
  C   C66       1.0  0.1627255630675251  0.352891541985521  0.4057929791572121  1.0000
  C   C67       1.0  0.32596360237885585  0.0973255264284774  0.973558473462333  1.0000
  C   C68       1.0  0.9026758201916182  0.6740358841952983  0.5264414360308506  1.0000
  C   C69       1.0  0.6740354403003721  0.9026751963040524  0.026441137864026104  1.0000
  C   C70       1.0  0.0973252494427541  0.3259647567006426  0.4735579597646121  1.0000
  C   C71       1.0  0.3067305476149116  0.12113186178109461  0.056045149861155594  1.0000
  C   C72       1.0  0.878869275145874  0.6932688681904935  0.44395508095706765  1.0000
  C   C73       1.0  0.6932691691786986  0.8788688321354882  0.9439550173909907  1.0000
  C   C74       1.0  0.1211304431850735  0.30673182726317094  0.5560444585256548  1.0000
  C   C75       1.0  0.3128713725393908  0.2108780481026571  0.07090208365652728  1.0000
  C   C76       1.0  0.789121979370151  0.6871281291699418  0.4290989145751923  1.0000
  C   C77       1.0  0.6871283436456536  0.7891219707128273  0.9290981584681078  1.0000
  C   C78       1.0  0.2108777374234663  0.312872564746641  0.570901252676954  1.0000
  C   C79       1.0  0.33937725392185314  0.2764602673577342  0.003516212746639293  1.0000
  C   C80       1.0  0.7235404792780783  0.6606227379660439  0.496483409043556  1.0000
  C   C81       1.0  0.6606224638005287  0.7235397529948385  0.9964834016085716  1.0000
  C   C82       1.0  0.2764599153131472  0.3393786053098609  0.5035159837230481  1.0000
  C   C83       1.0  0.36026987604729044  0.252346251306335  0.9212750191760362  1.0000
  C   C84       1.0  0.74765392303366  0.6397290338641068  0.5787263773300636  1.0000
  C   C85       1.0  0.6397298395291883  0.7476530924080581  0.07872529782109443  1.0000
  C   C86       1.0  0.2523464666572082  0.36027028103433173  0.4212744955928542  1.0000
  C   C87       1.0  0.5438497081297201  0.123106171426528  0.816352837799961  1.0000
  C   C88       1.0  0.8768957769457443  0.45614930760521577  0.6836463687086578  1.0000
  C   C89       1.0  0.4561500095926548  0.876893848926045  0.183646776555257  1.0000
  C   C90       1.0  0.1231066427749354  0.543849928530804  0.31635303314452307  1.0000
  C   C91       1.0  0.5582439554166072  0.1391312080444251  0.904318262384102  1.0000
  C   C92       1.0  0.8608698897951896  0.4417564370046066  0.5956815137709695  1.0000
  C   C93       1.0  0.4417564364201568  0.8608687834921939  0.09568190789690328  1.0000
  C   C94       1.0  0.13913117769329378  0.558243527253147  0.4043185846664059  1.0000
  C   C95       1.0  0.611506836865459  0.1075839208224636  0.7498076162659828  1.0000
  C   C96       1.0  0.8924164459374283  0.3884925411762198  0.7501923263441269  1.0000
  C   C97       1.0  0.3884935559000695  0.8924153971501455  0.25019200111808715  1.0000
  C   C98       1.0  0.10758529659420192  0.6115067207015841  0.24980777512210753  1.0000
  C   C99       1.0  0.7104255288954207  0.1111542640425114  0.7501088407243444  1.0000
  C   C100      1.0  0.8888456762764535  0.28957282679700563  0.7498906046903641  1.0000
  C   C101      1.0  0.2895735104207802  0.8888444318496411  0.24989162298890483  1.0000
  C   C102      1.0  0.11115606779250699  0.7104264366178796  0.25010886900644647  1.0000
  C   C103      1.0  0.5682459367380162  0.09207067151588431  0.6777604137621012  1.0000
  C   C104      1.0  0.9079300353930435  0.43175302081129985  0.8222395465684045  1.0000
  C   C105      1.0  0.43175377944702836  0.9079293472995998  0.3222398283625409  1.0000
  C   C106      1.0  0.09207103363276298  0.5682469449835492  0.17775992409954708  1.0000
  C   C107      1.0  0.6101398026635393  0.07000993628096099  0.5929536233649912  1.0000
  C   C108      1.0  0.9299900629306778  0.3898593717415864  0.9070469984582344  1.0000
  C   C109      1.0  0.38985991352150506  0.9299900825345234  0.407046618759651  1.0000
  C   C110      1.0  0.07000897728245552  0.6101420230178649  0.09295379353447691  1.0000
  N   N1        1.0  0.8451601607032019  0.11462713823404864  0.9709406069641416  1.0000
  N   N2        1.0  0.8853739221477283  0.15483875286219023  0.5290592382400874  1.0000
  N   N3        1.0  0.15483888258459189  0.8853742595995795  0.02905892948972172  1.0000
  N   N4        1.0  0.11462714473218938  0.8451605362944719  0.470940935069784  1.0000
  N   N5        1.0  0.31145773301447827  0.0986401501740843  0.6913959915702249  1.0000
  N   N6        1.0  0.9013601278478947  0.6885429452447839  0.8086032818834283  1.0000
  N   N7        1.0  0.6885426609681813  0.9013605180007149  0.3086034760688676  1.0000
  N   N8        1.0  0.0986389148313336  0.31145777748774606  0.1913963294429237  1.0000
  N   N9        1.0  0.4779959833944575  0.09857141897030174  0.6984890253931155  1.0000
  N   N10       1.0  0.9014292743636289  0.5220031313764083  0.8015115771959601  1.0000
  N   N11       1.0  0.52200373339916  0.9014292749462811  0.3015111418590308  1.0000
  N   N12       1.0  0.09857111686456929  0.4779961850591193  0.19848866795754114  1.0000
  O   O1        1.0  0.013582800518278806  0.1100118194391939  0.7967434423927385  1.0000
  O   O2        1.0  0.8899885383297955  0.986416429202876  0.7032560810070622  1.0000
  O   O3        1.0  0.9864169156667658  0.8899881993762905  0.20325679973189636  1.0000
  O   O4        1.0  0.1100118544357329  0.01358288876974  0.2967435363770079  1.0000
  O   O5        1.0  0.03274022498369081  0.1086248750067966  0.6535081527115238  1.0000
  O   O6        1.0  0.8913754527541826  0.9672588953319732  0.8464907521784895  1.0000
  O   O7        1.0  0.9672594921301184  0.8913744702446778  0.34649153651617587  1.0000
  O   O8        1.0  0.10862493940277318  0.03273974753953719  0.15350894007807628  1.0000
  O   O9        1.0  0.7435384959303449  0.09451044675447662  0.8207783282170522  1.0000
  O   O10       1.0  0.9054885778763478  0.25646087914464033  0.679221717324431  1.0000
  O   O11       1.0  0.2564612196461411  0.905488896959909  0.17922198878007833  1.0000
  O   O12       1.0  0.09451113923746142  0.7435384661068339  0.3207779719032686  1.0000
  O   O13       1.0  0.7564131784080176  0.1318898371698509  0.678130505031163  1.0000
  O   O14       1.0  0.8681082615360367  0.24358686164478638  0.8218689497837062  1.0000
  O   O15       1.0  0.2435872131403798  0.8681081306005679  0.3218692620978914  1.0000
  O   O16       1.0  0.1318921324466231  0.7564138065300198  0.1781305178553865  1.0000
  F   F1        1.0  0.41287505963293825  0.988809800169001  0.6243331780018337  1.0000
  F   F2        1.0  0.011190916160508402  0.5871241448530854  0.8756664608469009  1.0000
  F   F3        1.0  0.5871246580894438  0.011190220183571901  0.3756664363533845  1.0000
  F   F4        1.0  0.9888088000245431  0.412875873962399  0.12433378127773413  1.0000
  F   F5        1.0  0.4154276418467262  0.13815313857309525  0.5643733261880186  1.0000
  F   F6        1.0  0.861847038491682  0.5845732276057377  0.9356265442118286  1.0000
  F   F7        1.0  0.5845741037595644  0.8618461263788789  0.4356255197393679  1.0000
  F   F8        1.0  0.1381526798392585  0.41542746784793383  0.06437299527089381  1.0000
