data_image0
_chemical_formula_structural       Zn8H22C52O32F6
_chemical_formula_sum              "Zn8 H22 C52 O32 F6"
_cell_length_a       18.665392850767393
_cell_length_b       18.66628405880983
_cell_length_c       22.332168075488234
_cell_angle_alpha    114.54668927197501
_cell_angle_beta     114.35363434193472
_cell_angle_gamma    90.09535418386585

_space_group_name_H-M_alt    "P 1"
_space_group_IT_number       1

loop_
  _space_group_symop_operation_xyz
  'x, y, z'

loop_
  _atom_site_type_symbol
  _atom_site_label
  _atom_site_symmetry_multiplicity
  _atom_site_fract_x
  _atom_site_fract_y
  _atom_site_fract_z
  _atom_site_occupancy
  Zn  Zn1       1.0  0.46619386755138936  0.8843875013830454  0.43724327249204004  1.0000
  Zn  Zn2       1.0  0.05688428856031178  0.46827564085140233  0.4381469137221359  1.0000
  Zn  Zn3       1.0  0.4661758633328715  0.05460781601276205  0.4358346523607253  1.0000
  Zn  Zn4       1.0  0.6192127926670281  0.030946672605089976  0.5574122639381471  1.0000
  Zn  Zn5       1.0  0.0300292076779272  0.6184155659808184  0.5593434455959071  1.0000
  Zn  Zn6       1.0  0.8844120695909223  0.4664218953515443  0.43709330593964063  1.0000
  Zn  Zn7       1.0  0.45069273845290775  0.0333336030134674  0.5660657850674512  1.0000
  Zn  Zn8       1.0  0.02917419406055899  0.44502244444214506  0.5622036921663707  1.0000
  H   H1        1.0  0.8306108898311846  0.305969871248088  0.5587259846981567  1.0000
  H   H2        1.0  0.2985339750767366  0.20455098961066653  0.41719895187932826  1.0000
  H   H3        1.0  0.2245950029753273  0.31684047386241326  0.43299943436039  1.0000
  H   H4        1.0  0.8272210768611784  0.7481879565418125  0.5493043550392187  1.0000
  H   H5        1.0  0.7524000081694879  0.8317213588572159  0.5194736264514219  1.0000
  H   H6        1.0  0.3364527003221482  0.667132613082849  0.952148366557694  1.0000
  H   H7        1.0  0.6722011673533216  0.33506857318963057  0.9519780381865106  1.0000
  H   H8        1.0  0.28856349780956236  0.8430721793050325  0.550543427047579  1.0000
  H   H9        1.0  0.22724997473776648  0.8525809733666065  0.9550124889408877  1.0000
  H   H10       1.0  0.8581935271756719  0.22590728506436614  0.9583142364554649  1.0000
  H   H11       1.0  0.16444033000779254  0.831441213047725  0.04428287204255805  1.0000
  H   H12       1.0  0.8344317569299092  0.1647025066345051  0.04764886723835822  1.0000
  H   H13       1.0  0.708159274299035  0.31156716804163415  0.41768043343825684  1.0000
  H   H14       1.0  0.31525960938567  0.7129384500801734  0.42531974045146376  1.0000
  H   H15       1.0  0.5883532643998136  0.2824062587317968  0.40207460922610494  1.0000
  H   H16       1.0  0.2796023547833996  0.5955061597405518  0.4050009197569437  1.0000
  H   H17       1.0  0.122347281729283  0.2654037352394596  0.5374153676119775  1.0000
  H   H18       1.0  0.34937104160244553  0.2058824294698524  0.6072433735293289  1.0000
  H   H19       1.0  0.25615280097733256  0.583333869272245  0.012670705373849983  1.0000
  H   H20       1.0  0.5859724339444269  0.2567409032692111  0.01180883424571992  1.0000
  H   H21       1.0  0.7501098806642545  0.1920391951907021  0.5203986276208712  1.0000
  H   H22       1.0  0.18795049532064206  0.7563767442930853  0.5236172551504197  1.0000
  C   C1        1.0  0.6077046084617591  0.09716010937780334  0.6984859595733256  1.0000
  C   C2        1.0  0.8623406365796242  0.3576069001873989  0.22144532046253582  1.0000
  C   C3        1.0  0.6887921416566268  0.8042935805172107  0.49143822959682365  1.0000
  C   C4        1.0  0.2982466580223644  0.703164981376325  0.9730365811516252  1.0000
  C   C5        1.0  0.7078081829513393  0.2971828432642951  0.9735427694491675  1.0000
  C   C6        1.0  0.35873147924382914  0.8588907191690679  0.22004571037044932  1.0000
  C   C7        1.0  0.14478709464736272  0.6390053432408606  0.7764559951001786  1.0000
  C   C8        1.0  0.6490134012165425  0.1380645832668748  0.7780900602650007  1.0000
  C   C9        1.0  0.2630975061744394  0.6913414195469869  0.022342922438412013  1.0000
  C   C10       1.0  0.6945778410019371  0.26310939480961076  0.02296767330917501  1.0000
  C   C11       1.0  0.10564667832369418  0.5987878790849449  0.6968045714022892  1.0000
  C   C12       1.0  0.2868841285702644  0.78540338816196  0.07484616151008787  1.0000
  C   C13       1.0  0.7882386616347359  0.2870996127205315  0.07633267155886603  1.0000
  C   C14       1.0  0.1789934502485551  0.7023826513380769  0.9727078734915864  1.0000
  C   C15       1.0  0.7062599807513336  0.17852580487848257  0.9743369986904825  1.0000
  C   C16       1.0  0.2134002487390489  0.7126905984153281  0.9217440736653587  1.0000
  C   C17       1.0  0.7181829791478336  0.2117838646177574  0.9233667243063693  1.0000
  C   C18       1.0  0.2020400252643312  0.7948382829997271  0.02302013836296616  1.0000
  C   C19       1.0  0.7983165442454235  0.20184183543047848  0.025484638057797302  1.0000
  C   C20       1.0  0.23719941344356943  0.806852477800973  0.9744022558265116  1.0000
  C   C21       1.0  0.8118401930632543  0.2361545231202911  0.9770025169236265  1.0000
  C   C22       1.0  0.32484711957479107  0.8244007266040897  0.15277329041320803  1.0000
  C   C23       1.0  0.8269466998039688  0.32497800802623533  0.1542138595376628  1.0000
  C   C24       1.0  0.3986017442151423  0.899274204375047  0.2995997213942019  1.0000
  C   C25       1.0  0.9020187290123115  0.39676458502381706  0.3009571527548474  1.0000
  C   C26       1.0  0.17640375276690887  0.6734116585208909  0.8437195277357432  1.0000
  C   C27       1.0  0.32013797246746367  0.7956642270654227  0.02317766575953317  1.0000
  C   C28       1.0  0.6810014526804478  0.17283084599160495  0.8453603601871721  1.0000
  C   C29       1.0  0.727958186918336  0.29245250336868617  0.46126820739502256  1.0000
  C   C30       1.0  0.2891486976367403  0.7348540883888646  0.4639757119951042  1.0000
  C   C31       1.0  0.8056754393428347  0.31960856899185325  0.512096815034667  1.0000
  C   C32       1.0  0.3095837356146944  0.8145970267222254  0.5090522779534938  1.0000
  C   C33       1.0  0.7999066603439002  0.3195026348733521  0.024715965730337023  1.0000
  C   C34       1.0  0.6670643648094198  0.24081479945856185  0.45904798142086634  1.0000
  C   C35       1.0  0.23669240452328205  0.6740373629877041  0.4610532442588849  1.0000
  C   C36       1.0  0.6867142747479845  0.1920601674809319  0.49245260563318993  1.0000
  C   C37       1.0  0.18722745070884628  0.6929907386181212  0.4939197424136382  1.0000
  C   C38       1.0  0.2278129859993001  0.2813117164468438  0.4620409108272057  1.0000
  C   C39       1.0  0.28222666092865  0.2274650169019949  0.4623909635421698  1.0000
  C   C40       1.0  0.17489148895252526  0.29066907124195746  0.4911473937790661  1.0000
  C   C41       1.0  0.3204294062677278  0.2038425849419241  0.515851062573887  1.0000
  C   C42       1.0  0.36308464369476207  0.8690695486732877  0.5047888033554956  1.0000
  C   C43       1.0  0.8625468463161281  0.370078540459687  0.5074849695241568  1.0000
  C   C44       1.0  0.6320600239480498  0.13810711533601958  0.4945329446891691  1.0000
  C   C45       1.0  0.13305320541870458  0.6370308291454023  0.4945508644095326  1.0000
  C   C46       1.0  0.3705414320795055  0.1421865821978159  0.5069818817171807  1.0000
  C   C47       1.0  0.12580722204866387  0.35335170032736574  0.4925128132897925  1.0000
  C   C48       1.0  0.6334340364979028  0.8606518861348109  0.4946489459493082  1.0000
  C   C49       1.0  0.8598632819207237  0.632657201755819  0.5022725479308718  1.0000
  C   C50       1.0  0.7237852565352367  0.6678490108756774  0.45669520095093225  1.0000
  C   C51       1.0  0.667822453817848  0.7231948509839442  0.4576736130957355  1.0000
  C   C52       1.0  0.8025446375770995  0.6869745575811166  0.5048218021516035  1.0000
  O   O1        1.0  0.5009980433935651  0.0009564948740176882  0.49991676915529853  1.0000
  O   O2        1.0  0.1003297589407239  0.6699538500290314  0.5374215303351235  1.0000
  O   O3        1.0  0.6666485080736776  0.10073269885964455  0.5323792456057319  1.0000
  O   O4        1.0  0.5314468879266058  0.07576224143478777  0.6700508600603287  1.0000
  O   O5        1.0  0.09718149744877988  0.5221492053219805  0.6662687017486634  1.0000
  O   O6        1.0  0.41878685121810105  0.9758986708483164  0.3303673302250658  1.0000
  O   O7        1.0  0.9785829523241883  0.4080499392336065  0.33249524178187057  1.0000
  O   O8        1.0  0.0007310486370783997  0.5002645385979178  0.5002461532995497  1.0000
  O   O9        1.0  0.6507486440099084  0.08650124324061884  0.6647610133492421  1.0000
  O   O10       1.0  0.08336753587364139  0.6437033506862875  0.6652206133948227  1.0000
  O   O11       1.0  0.40972513153471357  0.8540716169642265  0.3313293639034002  1.0000
  O   O12       1.0  0.8558056472211603  0.41621411265788316  0.33176888138488186  1.0000
  O   O13       1.0  0.37488554311180167  0.9442413024397706  0.547371063172406  1.0000
  O   O14       1.0  0.9352134494065111  0.3907978902610977  0.5580714934084199  1.0000
  O   O15       1.0  0.5561608237577218  0.1315929414945458  0.45989332450189835  1.0000
  O   O16       1.0  0.1216871044818717  0.5615920624153717  0.4535415140592535  1.0000
  O   O17       1.0  0.3991315921848795  0.1242851587501335  0.5612201713902963  1.0000
  O   O18       1.0  0.0828729879348202  0.3574707153812967  0.5262958648584117  1.0000
  O   O19       1.0  0.6677505560009321  0.9347927670764732  0.5384089347493343  1.0000
  O   O20       1.0  0.9338909003053358  0.6670076159737661  0.545944577870614  1.0000
  O   O21       1.0  0.38115529936985126  0.1118526074567612  0.4494150694504243  1.0000
  O   O22       1.0  0.12921382494918987  0.39712606418057556  0.46237290975273754  1.0000
  O   O23       1.0  0.5582105635134695  0.8317696827251168  0.45440960930139346  1.0000
  O   O24       1.0  0.3926363343482464  0.8370788445764533  0.45983164265751963  1.0000
  O   O25       1.0  0.8315862686573253  0.5578820509808794  0.4581821888862265  1.0000
  O   O26       1.0  0.5893332013236117  0.24298176084886333  0.4203364977690711  1.0000
  O   O27       1.0  0.23957003195465626  0.5962651313049745  0.42262207351562603  1.0000
  O   O28       1.0  0.16144757978972987  0.24334071762125828  0.5194043163104638  1.0000
  O   O29       1.0  0.31776638628068093  0.23542463595569527  0.5813847137518664  1.0000
  O   O30       1.0  0.8350615239812454  0.3883799718770504  0.4542017280647458  1.0000
  O   O31       1.0  0.2782271485412976  0.6384308793732741  0.0522150520322383  1.0000
  O   O32       1.0  0.6406655151001458  0.2789795604903489  0.05184075848050176  1.0000
  F   F1        1.0  0.6874446224192851  0.5931431500342725  0.400800432314078  1.0000
  F   F2        1.0  0.6582079785272796  0.1065665408319489  0.9481354686466477  1.0000
  F   F3        1.0  0.106843052473387  0.6547269833180634  0.9465108353920756  1.0000
  F   F4        1.0  0.590477361838303  0.6836527613216887  0.4200278858512192  1.0000
  F   F5        1.0  0.3922408385120234  0.843474970371112  0.049498468430804965  1.0000
  F   F6        1.0  0.8477685956656485  0.3915872517235783  0.051001431313544315  1.0000
