data_image0
_chemical_formula_structural       Mn2H18C24N16Cl2
_chemical_formula_sum              "Mn2 H18 C24 N16 Cl2"
_cell_length_a       7.9370931855268445
_cell_length_b       9.62603582344373
_cell_length_c       9.736148003616089
_cell_angle_alpha    72.98459928257725
_cell_angle_beta     78.65897628158864
_cell_angle_gamma    81.07154417335335

_space_group_name_H-M_alt    "P 1"
_space_group_IT_number       1

loop_
  _space_group_symop_operation_xyz
  'x, y, z'

loop_
  _atom_site_type_symbol
  _atom_site_label
  _atom_site_symmetry_multiplicity
  _atom_site_fract_x
  _atom_site_fract_y
  _atom_site_fract_z
  _atom_site_occupancy
  Mn  Mn1       1.0  0.1537989367593369  0.5726609801272247  0.5481814286588218  1.0000
  Mn  Mn2       1.0  0.8462047412438523  0.4273364777527746  0.4518164469280918  1.0000
  H   H1        1.0  0.8539554951653869  0.4424001317399372  0.8109328988237439  1.0000
  H   H2        1.0  0.1460428720722859  0.5575995701130694  0.18906734099934402  1.0000
  H   H3        1.0  0.701550049164787  0.49848192095458205  0.04346009190240344  1.0000
  H   H4        1.0  0.2984468195500726  0.5015199890553886  0.9565398019894218  1.0000
  H   H5        1.0  0.7524563656716196  0.726949840791477  0.09360612675256864  1.0000
  H   H6        1.0  0.24754423483265953  0.27305310674913835  0.9063918031696547  1.0000
  H   H7        1.0  0.9478414287107383  0.8970392598153937  0.9054808646707644  1.0000
  H   H8        1.0  0.052159543758186495  0.1029593571947984  0.0945161367472167  1.0000
  H   H9        1.0  0.1309602823763569  0.9525953308420726  0.6772227330613916  1.0000
  H   H10       1.0  0.8690395833841223  0.04740216285397029  0.3227778526929513  1.0000
  H   H11       1.0  0.2401453185710878  0.10379117338590757  0.5199562167271311  1.0000
  H   H12       1.0  0.759865650385727  0.896200461867899  0.4800553446532733  1.0000
  H   H13       1.0  0.4265471026800469  0.26094475430809894  0.3262038430213252  1.0000
  H   H14       1.0  0.573455724598233  0.7390503769081391  0.6738040677087298  1.0000
  H   H15       1.0  0.5616858979438532  0.9231603910257176  0.10300673931014606  1.0000
  H   H16       1.0  0.4383040914814628  0.0768450091986281  0.8969882578277011  1.0000
  H   H17       1.0  0.36419016840383733  0.7655515836607735  0.2962176883942361  1.0000
  H   H18       1.0  0.6358026320847758  0.2344515655148455  0.703778464858246  1.0000
  C   C1        1.0  0.871125213464886  0.54169899623804  0.8362648070391144  1.0000
  C   C2        1.0  0.12887192168558675  0.4582996751600417  0.16373387640277318  1.0000
  C   C3        1.0  0.785444478403754  0.5739761834621433  0.964649806007593  1.0000
  C   C4        1.0  0.21455373315338022  0.42602464745308305  0.03534809558276921  1.0000
  C   C5        1.0  0.8132337826967773  0.7019894783261122  0.9920247500468238  1.0000
  C   C6        1.0  0.1867656358718008  0.2980124016158854  0.007973679781230179  1.0000
  C   C7        1.0  0.9224456842713806  0.7954351981134592  0.8890599446056414  1.0000
  C   C8        1.0  0.0775564952089951  0.20456446792351102  0.1109375850500243  1.0000
  C   C9        1.0  0.0018039865570286817  0.7560424147371734  0.7620309257351751  1.0000
  C   C10       1.0  0.998197141592435  0.24395507321080598  0.23796841391552465  1.0000
  C   C11       1.0  0.11402419701455814  0.8526315783963412  0.6512274625369585  1.0000
  C   C12       1.0  0.885978349204436  0.14736477474134801  0.34877296924281614  1.0000
  C   C13       1.0  0.2911849412171322  0.92012736853539  0.42383571384228697  1.0000
  C   C14       1.0  0.708815160677176  0.0798679227517525  0.5761664639469546  1.0000
  C   C15       1.0  0.3094148952843625  0.06149281715440218  0.4300952197574617  1.0000
  C   C16       1.0  0.6905926900384997  0.9385055482533105  0.5699078888644493  1.0000
  C   C17       1.0  0.41594943516865623  0.15136891175278316  0.3208770069136975  1.0000
  C   C18       1.0  0.5840526837081441  0.8486328266901638  0.6791261277116547  1.0000
  C   C19       1.0  0.506809656861421  0.10033393649480622  0.20376422193006505  1.0000
  C   C20       1.0  0.49318618559827615  0.8996657768543269  0.7962385101003167  1.0000
  C   C21       1.0  0.4903064154353914  0.9612962378434846  0.19473021581799085  1.0000
  C   C22       1.0  0.5096891459650195  0.0387046974271072  0.8052650372621033  1.0000
  C   C23       1.0  0.38122439061038454  0.873081108384106  0.3035168663462287  1.0000
  C   C24       1.0  0.6187697527204962  0.12692096169676859  0.6964772946047901  1.0000
  N   N1        1.0  0.9778617116447922  0.6297150570338131  0.7371796329667788  1.0000
  N   N2        1.0  0.022138154115694402  0.37028243666222244  0.262820952787564  1.0000
  N   N3        1.0  0.18674626690135201  0.8216168972209912  0.5308971709064141  1.0000
  N   N4        1.0  0.8132547807948215  0.1783816640736617  0.46910291494209844  1.0000
  N   N5        1.0  0.042366155049172995  0.3651336657332537  0.5963965245710342  1.0000
  N   N6        1.0  0.9576369148555345  0.6348703250860622  0.4036006874852376  1.0000
  N   N7        1.0  0.06305486297760152  0.25213955246703523  0.6893236876616344  1.0000
  N   N8        1.0  0.9369466331770442  0.7478667022247906  0.3106700940328365  1.0000
  N   N9        1.0  0.08294897584161731  0.14204643526265667  0.7786911289494259  1.0000
  N   N10       1.0  0.9170502619706725  0.8579565923134068  0.22130393450239436  1.0000
  N   N11       1.0  0.3492302175704509  0.5027373189648259  0.6884003778755244  1.0000
  N   N12       1.0  0.6507726663519335  0.4972688371197052  0.31159729843286504  1.0000
  N   N13       1.0  0.5015978022779777  0.4901810521994179  0.6561462991053518  1.0000
  N   N14       1.0  0.4984056343653479  0.5098196257206242  0.34385381507502183  1.0000
  N   N15       1.0  0.6544964979090437  0.47670957925021173  0.6294647220848334  1.0000
  N   N16       1.0  0.34550620399048887  0.5232856448252575  0.37053804792765993  1.0000
  Cl  Cl1       1.0  0.6392272749118533  0.21124564679117694  0.0660745705054708  1.0000
  Cl  Cl2       1.0  0.3607722439597225  0.7887561588634354  0.9339279718966298  1.0000
