data_image0
_chemical_formula_structural       Cu4H16C24S6N8
_chemical_formula_sum              "Cu4 H16 C24 S6 N8"
_cell_length_a       5.670549587034529
_cell_length_b       8.950488678548442
_cell_length_c       14.605165640472093
_cell_angle_alpha    106.44405330543212
_cell_angle_beta     90.00029052624845
_cell_angle_gamma    89.99961377455197

_space_group_name_H-M_alt    "P 1"
_space_group_IT_number       1

loop_
  _space_group_symop_operation_xyz
  'x, y, z'

loop_
  _atom_site_type_symbol
  _atom_site_label
  _atom_site_symmetry_multiplicity
  _atom_site_fract_x
  _atom_site_fract_y
  _atom_site_fract_z
  _atom_site_occupancy
  Cu  Cu1       1.0  0.6055231768269705  0.3725345326018115  0.5143485308344964  1.0000
  Cu  Cu2       1.0  0.6055465840277208  0.6274709193103052  0.9856500619568037  1.0000
  Cu  Cu3       1.0  0.3944464565410755  0.6274725411130575  0.48564387362616657  1.0000
  Cu  Cu4       1.0  0.39446890037276455  0.3725306546277877  0.014354446304338403  1.0000
  H   H1        1.0  0.1776776038359316  0.4434335554584052  0.6346151445353384  1.0000
  H   H2        1.0  0.17770261141102844  0.5565576235731909  0.8653827815488667  1.0000
  H   H3        1.0  0.8222761581755973  0.5565536999311008  0.36537330769885296  1.0000
  H   H4        1.0  0.8223181635284147  0.44343336496014985  0.1346158729284994  1.0000
  H   H5        1.0  0.9226561819949951  0.3050842667351716  0.7227640145691436  1.0000
  H   H6        1.0  0.9226642710239332  0.6949101937214904  0.7772369700728063  1.0000
  H   H7        1.0  0.07732755951163028  0.6949043922706578  0.27723425579382166  1.0000
  H   H8        1.0  0.07735297692108388  0.3050844085900764  0.22276707354222938  1.0000
  H   H9        1.0  0.4349121208157953  0.9294149688324752  0.6552305231714257  1.0000
  H   H10       1.0  0.4349067665250672  0.0705885412154501  0.8447700687405229  1.0000
  H   H11       1.0  0.5651051270109091  0.07059585510604903  0.3447727710872002  1.0000
  H   H12       1.0  0.565108717902305  0.9294071576321984  0.15523141660725057  1.0000
  H   H13       1.0  0.6701047669471618  0.0860805279275638  0.573499554070487  1.0000
  H   H14       1.0  0.6701182600867951  0.9139201610190567  0.9264990970865695  1.0000
  H   H15       1.0  0.3298825013876581  0.9139289094563027  0.4264946096350215  1.0000
  H   H16       1.0  0.3299025148339467  0.086074338919218  0.07350082107829078  1.0000
  C   C1        1.0  0.22905794072364222  0.3296827122629722  0.6414548147365692  1.0000
  C   C2        1.0  0.2290795100712728  0.6703188194821482  0.8585435750749681  1.0000
  C   C3        1.0  0.77090463874584  0.6703140149219848  0.35854136198628334  1.0000
  C   C4        1.0  0.7709447918938253  0.32966992479402524  0.14145813320993736  1.0000
  C   C5        1.0  0.0864552668289775  0.2517058814501354  0.6902313634608885  1.0000
  C   C6        1.0  0.0864646799177535  0.7482925253191439  0.8097702688643551  1.0000
  C   C7        1.0  0.9135372920792476  0.7482943571116962  0.3097660769817097  1.0000
  C   C8        1.0  0.9135490409805769  0.25170661668843763  0.190229729866374  1.0000
  C   C9        1.0  0.1574670895311527  0.10494148761755889  0.6967179600213811  1.0000
  C   C10       1.0  0.1574690740804243  0.8950590816465293  0.8032828340038805  1.0000
  C   C11       1.0  0.8425342869112741  0.8950565919904675  0.3032859721127537  1.0000
  C   C12       1.0  0.8425428833592578  0.1049354524233337  0.19671845930282214  1.0000
  C   C13       1.0  0.3716758290355528  0.0437424332771172  0.6539946085825576  1.0000
  C   C14       1.0  0.3716791258405507  0.956261195156067  0.8460058472832799  1.0000
  C   C15       1.0  0.6283290742990459  0.9562683394879701  0.3460066229358034  1.0000
  C   C16       1.0  0.6283381220989311  0.0437321741277543  0.1539952539918303  1.0000
  C   C17       1.0  0.5034100167029222  0.1306537142911139  0.6076956148026369  1.0000
  C   C18       1.0  0.5034238086668593  0.8693438777124314  0.8923055394707899  1.0000
  C   C19       1.0  0.49657901516327024  0.8693534958988992  0.39230229028417085  1.0000
  C   C20       1.0  0.49659520278793684  0.13064717906921433  0.1076958653073206  1.0000
  C   C21       1.0  0.09423924150895858  0.33430320725080526  0.42552669446814656  1.0000
  C   C22       1.0  0.09427752130177679  0.6657019541787932  0.0744807976681017  1.0000
  C   C23       1.0  0.9057286283863988  0.6657052018634386  0.574472777784507  1.0000
  C   C24       1.0  0.9057679425608143  0.334302051663407  0.925528220153815  1.0000
  S   S1        1.0  0.9656172698828415  0.9999973630287187  0.7500028571094646  1.0000
  S   S2        1.0  0.034399993774997  0.9999963693433073  0.2500035688945061  1.0000
  S   S3        1.0  0.35479030907493575  0.3618656085244254  0.3838079705826444  1.0000
  S   S4        1.0  0.35481174790959363  0.6381435365535282  0.11619328693836202  1.0000
  S   S5        1.0  0.6451846147546192  0.6381485221186836  0.616188336410019  1.0000
  S   S6        1.0  0.6452002094401124  0.3618637589233415  0.8838080560514143  1.0000
  N   N1        1.0  0.4349270858657944  0.2714277619142536  0.5999926831556904  1.0000
  N   N2        1.0  0.4349358889490063  0.7285699241869424  0.9000069486172889  1.0000
  N   N3        1.0  0.565054892045488  0.7285712095064056  0.4000004397842786  1.0000
  N   N4        1.0  0.5650760684591346  0.2714280530411984  0.09999285807425909  1.0000
  N   N5        1.0  0.9065558318078074  0.3180864938353308  0.4566580424507903  1.0000
  N   N6        1.0  0.9065565470826017  0.6819204705065118  0.04334489773187038  1.0000
  N   N7        1.0  0.0934296730414843  0.681924210701254  0.5433404387440673  1.0000
  N   N8        1.0  0.093427194293433  0.3180879556545406  0.9566552621135073  1.0000
