data_image0
_chemical_formula_structural       Hg4H32C48S4I8N16
_chemical_formula_sum              "Hg4 H32 C48 S4 I8 N16"
_cell_length_a       5.870552527001691
_cell_length_b       13.691409013222705
_cell_length_c       20.544408006570443
_cell_angle_alpha    104.59239309968426
_cell_angle_beta     90.0000797183521
_cell_angle_gamma    89.99987376323624

_space_group_name_H-M_alt    "P 1"
_space_group_IT_number       1

loop_
  _space_group_symop_operation_xyz
  'x, y, z'

loop_
  _atom_site_type_symbol
  _atom_site_label
  _atom_site_symmetry_multiplicity
  _atom_site_fract_x
  _atom_site_fract_y
  _atom_site_fract_z
  _atom_site_occupancy
  Hg  Hg1       1.0  0.7158671071228967  0.9587359751974134  0.6804115347857476  1.0000
  Hg  Hg2       1.0  0.2158820315189445  0.5412659206188337  0.8195848356744336  1.0000
  Hg  Hg3       1.0  0.2841429396140853  0.0412700495927751  0.3195892918343048  1.0000
  Hg  Hg4       1.0  0.7841212015929031  0.4587285652901017  0.18041714180697713  1.0000
  H   H1        1.0  0.5551826826425882  0.9358588994684996  0.828535914679499  1.0000
  H   H2        1.0  0.05518444104431099  0.5641446007401  0.6714607356986875  1.0000
  H   H3        1.0  0.4448392879874561  0.0641519106285244  0.1714619513653517  1.0000
  H   H4        1.0  0.9448085715193602  0.4358600139434259  0.32853835316832664  1.0000
  H   H5        1.0  0.2535536459623131  0.9858349073666304  0.9166675867416245  1.0000
  H   H6        1.0  0.7535563719402701  0.5141628366350518  0.5833333380005001  1.0000
  H   H7        1.0  0.7464632144493067  0.0141695767273688  0.0833334253812268  1.0000
  H   H8        1.0  0.2464502679714116  0.4858358437869513  0.41666312718133725  1.0000
  H   H9        1.0  0.9560622596873145  0.1682885393826083  0.7937399786587847  1.0000
  H   H10       1.0  0.45608118634077505  0.33171309791503484  0.7062646427417221  1.0000
  H   H11       1.0  0.04394267682625501  0.8317169957252231  0.2062680601661029  1.0000
  H   H12       1.0  0.543923750161234  0.6682854519251081  0.29373374569473043  1.0000
  H   H13       1.0  0.27720441027332043  0.11544482675258651  0.7137744546014062  1.0000
  H   H14       1.0  0.7772163187561106  0.384564095748658  0.7862257088016378  1.0000
  H   H15       1.0  0.7227886022556972  0.8845733277223289  0.2862277728801104  1.0000
  H   H16       1.0  0.22278010066127513  0.6154373069631802  0.2137756743251629  1.0000
  H   H17       1.0  0.24472460729211323  0.1184610509857649  0.04798604912720351  1.0000
  H   H18       1.0  0.7447343451334164  0.38154519305525986  0.4520208956682196  1.0000
  H   H19       1.0  0.7552820326626773  0.8815368785876032  0.9520214747691044  1.0000
  H   H20       1.0  0.25526548112643616  0.6184531935584519  0.5479798968363456  1.0000
  H   H21       1.0  0.9439091072838648  0.2261543802883352  0.11715935087571691  1.0000
  H   H22       1.0  0.4439109856207891  0.2738563664145559  0.3828470564925581  1.0000
  H   H23       1.0  0.05611116002721421  0.7738425014463388  0.882852352688694  1.0000
  H   H24       1.0  0.5560837303894176  0.7261419875550958  0.6171542168254336  1.0000
  H   H25       1.0  0.222115728391536  0.4880695385778893  0.0845324414702802  1.0000
  H   H26       1.0  0.7221447527085233  0.011928979720757099  0.41546470311622846  1.0000
  H   H27       1.0  0.7778721739334102  0.5119276664467733  0.9154632475857838  1.0000
  H   H28       1.0  0.2778789214101991  0.9880618992886314  0.5845341320197905  1.0000
  H   H29       1.0  0.5437925127067729  0.39382913731717656  0.018219710515971616  1.0000
  H   H30       1.0  0.0438286247596551  0.106173062142517  0.4817810401486612  1.0000
  H   H31       1.0  0.45617835547422203  0.6061603968874536  0.9817764252379534  1.0000
  H   H32       1.0  0.9561899390594634  0.8938330279363029  0.5182188248444534  1.0000
  C   C1        1.0  0.420489882390548  0.9885943226173666  0.8237320471460592  1.0000
  C   C2        1.0  0.9204830880776456  0.5114066312064338  0.6762651568864159  1.0000
  C   C3        1.0  0.5795150540544753  0.011417437382597503  0.1762630816715429  1.0000
  C   C4        1.0  0.0795116279135044  0.4885934919765162  0.3237325652333993  1.0000
  C   C5        1.0  0.2511549724273224  0.015665471920293307  0.8722050117565985  1.0000
  C   C6        1.0  0.7511343774050661  0.4843359259661142  0.6277936725934978  1.0000
  C   C7        1.0  0.7488635914005286  0.984334716546691  0.1277917487370104  1.0000
  C   C8        1.0  0.24884841465415516  0.5156665572300128  0.37220305005153165  1.0000
  C   C9        1.0  0.0800413444528516  0.08243452852997991  0.8626925596132153  1.0000
  C   C10       1.0  0.5800314949581421  0.4175670698827574  0.6373046659047646  1.0000
  C   C11       1.0  0.9199635920357283  0.9175656925866774  0.13730372006607186  1.0000
  C   C12       1.0  0.41995470393339934  0.5824361673366242  0.3626922043960334  1.0000
  C   C13       1.0  0.0876620968718456  0.11857933808321522  0.8046500596519622  1.0000
  C   C14       1.0  0.58765802966213  0.3814274359918529  0.6953496426265389  1.0000
  C   C15       1.0  0.9123309157016664  0.8814229492362884  0.19534954787559403  1.0000
  C   C16       1.0  0.4123383897287099  0.6185758665156483  0.3046462660473992  1.0000
  C   C17       1.0  0.2653727341712582  0.0882528964983251  0.759295963039321  1.0000
  C   C18       1.0  0.7653773098058422  0.4117508528657511  0.7407017231997415  1.0000
  C   C19       1.0  0.7346219817897649  0.911757094291403  0.2407027169759673  1.0000
  C   C20       1.0  0.23462081300638718  0.5882502202140074  0.25929326169380573  1.0000
  C   C21       1.0  0.8990563265735149  0.11227441114560581  0.9124177043121408  1.0000
  C   C22       1.0  0.39903482249089706  0.3877241104874758  0.587577037887833  1.0000
  C   C23       1.0  0.10094860993692122  0.8877196798400605  0.0875788365633525  1.0000
  C   C24       1.0  0.6009360456402888  0.6122799460519699  0.41241901844048817  1.0000
  C   C25       1.0  0.5998698544181593  0.18757234751046778  0.9870823424027577  1.0000
  C   C26       1.0  0.0999011222456048  0.3124386822156566  0.5129220934898484  1.0000
  C   C27       1.0  0.400121454782834  0.8124219751740753  0.012922039146438575  1.0000
  C   C28       1.0  0.9001072210678062  0.68757104740525  0.4870804330354731  1.0000
  C   C29       1.0  0.41873666990721153  0.24768038799122394  0.026623656276797216  1.0000
  C   C30       1.0  0.9187542591316599  0.25232496187138054  0.47337243197628004  1.0000
  C   C31       1.0  0.5812648597918298  0.7523111471123018  0.9733767689547791  1.0000
  C   C32       1.0  0.08125408419377322  0.7476809649825424  0.5266298370847053  1.0000
  C   C33       1.0  0.24741064413239403  0.20015627472049866  0.05521075988756513  1.0000
  C   C34       1.0  0.747417479226364  0.2998492789778667  0.4447950758820838  1.0000
  C   C35       1.0  0.7525925890130196  0.7998297210478358  0.9447924782642616  1.0000
  C   C36       1.0  0.25258064359961446  0.7001573039666199  0.5552087832750346  1.0000
  C   C37       1.0  0.0784367066493772  0.2596006277068171  0.09303673501911193  1.0000
  C   C38       1.0  0.578452186814829  0.24040079696354164  0.4069638713076316  1.0000
  C   C39       1.0  0.9215733401488106  0.7403899574963191  0.9069664274393006  1.0000
  C   C40       1.0  0.4215442326206614  0.7595945409084949  0.5930368113880391  1.0000
  C   C41       1.0  0.23403137742597124  0.40610410060785535  0.0753795603932232  1.0000
  C   C42       1.0  0.734054799670119  0.09390208137346427  0.42461713863579587  1.0000
  C   C43       1.0  0.7659854829828348  0.5938961205052282  0.9246167192866396  1.0000
  C   C44       1.0  0.26596887442268274  0.9060964358154706  0.5753817306152271  1.0000
  C   C45       1.0  0.4115871094088206  0.35297292851809914  0.03763468827977332  1.0000
  C   C46       1.0  0.911601929048615  0.1470349846907268  0.46236872130210577  1.0000
  C   C47       1.0  0.5884144202753845  0.6470181463714867  0.9623612619731503  1.0000
  C   C48       1.0  0.0884098211021112  0.8529696626327734  0.5376298867521285  1.0000
  S   S1        1.0  0.7499252215816126  0.22471062747362686  0.9247374869090946  1.0000
  S   S2        1.0  0.24994186906396726  0.2752808055953653  0.5752616818705221  1.0000
  S   S3        1.0  0.2500643842192289  0.775282680022407  0.0752705934937978  1.0000
  S   S4        1.0  0.7500477366806565  0.7247221051670678  0.4247399965671618  1.0000
  I   I1        1.0  0.9482070300496447  0.8209669001994442  0.7252127882829812  1.0000
  I   I2        1.0  0.44824283101856116  0.6790381725676938  0.7748022804744111  1.0000
  I   I3        1.0  0.051801313276719406  0.17903469838237376  0.2747857099623586  1.0000
  I   I4        1.0  0.5517808431253144  0.3209659229527875  0.22521570778290115  1.0000
  I   I5        1.0  0.7515086617603899  0.12201735999561691  0.627987050984288  1.0000
  I   I6        1.0  0.2515080472100024  0.37798108686682497  0.8720100811509043  1.0000
  I   I7        1.0  0.24848094396472223  0.8779894841161705  0.372012961663046  1.0000
  I   I8        1.0  0.7484049048098457  0.622006612850683  0.1279905674257691  1.0000
  N   N1        1.0  0.6651587603154496  0.0987785704877595  0.9951807058537768  1.0000
  N   N2        1.0  0.165177439403152  0.4012154692863136  0.5048145704495968  1.0000
  N   N3        1.0  0.3348393625726517  0.9011996206989539  0.004813695881104333  1.0000
  N   N4        1.0  0.8348257936596682  0.5987899320640155  0.4951841852598379  1.0000
  N   N5        1.0  0.8329777072286079  0.0561195419839606  0.9528546694089286  1.0000
  N   N6        1.0  0.3329929989326956  0.4438846270576491  0.5471474982854404  1.0000
  N   N7        1.0  0.16701019511023674  0.9438738276281243  0.04714124299647443  1.0000
  N   N8        1.0  0.6669966067928783  0.5561200529180823  0.45285062895406725  1.0000
  N   N9        1.0  0.42872387843124926  0.024789271876926505  0.7687049101733622  1.0000
  N   N10       1.0  0.9287279523368996  0.4752164783934631  0.7312956387488756  1.0000
  N   N11       1.0  0.5712657272626345  0.9752238655938116  0.2312924372094045  1.0000
  N   N12       1.0  0.07126506023255531  0.524787316974603  0.2687042640898838  1.0000
  N   N13       1.0  0.070701180340464  0.3603676506181799  0.10248434773298241  1.0000
  N   N14       1.0  0.5707036510048767  0.13963377869397683  0.397516257852125  1.0000
  N   N15       1.0  0.9293139766961288  0.63962316310257  0.8975154490299744  1.0000
  N   N16       1.0  0.4293029889459986  0.8603563136506481  0.6024829104411467  1.0000
