data_image0
_chemical_formula_structural       Mn8H32C48N8Cl8O16
_chemical_formula_sum              "Mn8 H32 C48 N8 Cl8 O16"
_cell_length_a       9.678225092
_cell_length_b       9.624197235
_cell_length_c       15.6894
_cell_angle_alpha    90.0
_cell_angle_beta     90.0
_cell_angle_gamma    90.0

_space_group_name_H-M_alt    "P 1"
_space_group_IT_number       1

loop_
  _space_group_symop_operation_xyz
  'x, y, z'

loop_
  _atom_site_type_symbol
  _atom_site_label
  _atom_site_symmetry_multiplicity
  _atom_site_fract_x
  _atom_site_fract_y
  _atom_site_fract_z
  _atom_site_occupancy
  Mn  Mn1       1.0  0.2605498400821844  0.9261510110770317  0.22154320751590015  1.0000
  Mn  Mn2       1.0  0.0698123874550589  0.7593589181051286  0.7216891659336895  1.0000
  Mn  Mn3       1.0  0.4300695592873254  0.7399744442165925  0.7214412278353564  1.0000
  Mn  Mn4       1.0  0.7601135466544306  0.4274070760978148  0.778491847999284  1.0000
  Mn  Mn5       1.0  0.7394248358529509  0.07385343241045918  0.7784536056190776  1.0000
  Mn  Mn6       1.0  0.9301963856411604  0.24065799395475548  0.2783044603362797  1.0000
  Mn  Mn7       1.0  0.5699175156154723  0.2600071402214964  0.2785530358076187  1.0000
  Mn  Mn8       1.0  0.239846663818426  0.5726565931085688  0.22152089946078496  1.0000
  H   H1        1.0  0.8757804162879239  0.3919423000062849  0.45858477698318734  1.0000
  H   H2        1.0  0.6078542236905449  0.3751471329857878  0.958581590118172  1.0000
  H   H3        1.0  0.8920158312019523  0.12499432114973527  0.9587441202340445  1.0000
  H   H4        1.0  0.3757352164712415  0.891814640787544  0.5415063673563056  1.0000
  H   H5        1.0  0.124233523044829  0.6080496749088056  0.5414158603898187  1.0000
  H   H6        1.0  0.3921772808464041  0.6248271781184016  0.04144581692097661  1.0000
  H   H7        1.0  0.1079753766900708  0.8749945366222532  0.04123548382984411  1.0000
  H   H8        1.0  0.624282855850737  0.1082012322246442  0.45850956696877904  1.0000
  H   H9        1.0  0.9420704636779504  0.3518350587917922  0.6108359784312969  1.0000
  H   H10       1.0  0.6479896820320832  0.4419724467544128  0.11072507552869842  1.0000
  H   H11       1.0  0.8520549916550735  0.0578676835481531  0.11089206725559823  1.0000
  H   H12       1.0  0.4421719849786713  0.8518341633924322  0.3892761992173065  1.0000
  H   H13       1.0  0.0579548413751638  0.6481434085032021  0.3891640215687034  1.0000
  H   H14       1.0  0.3520035923545564  0.5580538167347697  0.8893036062564548  1.0000
  H   H15       1.0  0.1479496484519274  0.9421565018456305  0.8890958226573389  1.0000
  H   H16       1.0  0.5578140566768326  0.14819625628754807  0.6107244381556995  1.0000
  H   H17       1.0  0.1151626449483274  0.16405108513967545  0.6442585439851103  1.0000
  H   H18       1.0  0.8356439246990774  0.6148980382985698  0.1441195966703646  1.0000
  H   H19       1.0  0.6644183141922753  0.8850223859735776  0.14424898339005673  1.0000
  H   H20       1.0  0.6152409086787927  0.6640023935461272  0.35585682052850853  1.0000
  H   H21       1.0  0.8848667930940053  0.8359336164415154  0.35573189541983663  1.0000
  H   H22       1.0  0.1643080197953282  0.3851656309078137  0.8558982497737306  1.0000
  H   H23       1.0  0.3355883924093348  0.115018424183404  0.8557599398319911  1.0000
  H   H24       1.0  0.3847420332347866  0.3360373775631587  0.6441246956543909  1.0000
  H   H25       1.0  0.21547442637222503  0.027495280233623  0.5223195278340782  1.0000
  H   H26       1.0  0.9719550754999134  0.7150705489464142  0.021979808023253607  1.0000
  H   H27       1.0  0.5282197873477585  0.784743892460348  0.02209326041786141  1.0000
  H   H28       1.0  0.7154441991355968  0.5273364495838919  0.47778500133848223  1.0000
  H   H29       1.0  0.7845488121862729  0.9724894213475679  0.47766581258684243  1.0000
  H   H30       1.0  0.028101226972374597  0.2848788250129815  0.9780609838489698  1.0000
  H   H31       1.0  0.4717838195119342  0.2152543167409462  0.9779360587402979  1.0000
  H   H32       1.0  0.2845304767995387  0.47265760342659746  0.5221773936543175  1.0000
  C   C1        1.0  0.9513314592786912  0.3130048072004215  0.47606345685622403  1.0000
  C   C2        1.0  0.6868687116499217  0.4506131674264253  0.975962751921678  1.0000
  C   C3        1.0  0.8130116757156358  0.0495127009936027  0.976123369918547  1.0000
  C   C4        1.0  0.4512552620428352  0.8128605232184823  0.5240251379912522  1.0000
  C   C5        1.0  0.0486866130432801  0.6869892458100678  0.5239333562787609  1.0000
  C   C6        1.0  0.3131410946936057  0.5493912760610655  0.0240595561334374  1.0000
  C   C7        1.0  0.1869939976386732  0.9504688834444933  0.023866432113401  1.0000
  C   C8        1.0  0.5487442118276391  0.18714392026900126  0.4759716751437254  1.0000
  C   C9        1.0  0.9892165049884767  0.2901270549449606  0.5606657998393845  1.0000
  C   C10       1.0  0.7097014106106698  0.4888646694489721  0.060534501000674416  1.0000
  C   C11       1.0  0.790326731119592  0.0110814437189788  0.06067918467245191  1.0000
  C   C12       1.0  0.48922606727899154  0.7900316062049199  0.4394336303491501  1.0000
  C   C13       1.0  0.0108098333119457  0.7098597247316292  0.439327826430585  1.0000
  C   C14       1.0  0.2902815313029095  0.5111574378494125  0.9394846201894256  1.0000
  C   C15       1.0  0.209686174965853  0.9889229997685118  0.9393125294784996  1.0000
  C   C16       1.0  0.5107641073657305  0.209987383950363  0.5605619080398228  1.0000
  C   C17       1.0  0.0850641509340946  0.1862139725776331  0.5787047305824304  1.0000
  C   C18       1.0  0.8135861612175859  0.5846908435683175  0.07856450852168002  1.0000
  C   C19       1.0  0.6864678116953229  0.9152399711808243  0.07869007100335072  1.0000
  C   C20       1.0  0.5850618213747154  0.6860831962157902  0.4214029854551456  1.0000
  C   C21       1.0  0.9149621873663278  0.8137780023374573  0.4212850714495105  1.0000
  C   C22       1.0  0.1863957474486924  0.41534996658867124  0.9214533379224223  1.0000
  C   C23       1.0  0.3135399281535953  0.08477174564055898  0.9213143906076697  1.0000
  C   C24       1.0  0.4149231870334731  0.3139357939394927  0.5785817175927692  1.0000
  C   C25       1.0  0.1407737459140321  0.1099104656909091  0.5114402080385505  1.0000
  C   C26       1.0  0.8897127229576115  0.6401822250268978  0.011274491057655203  1.0000
  C   C27       1.0  0.6103660478906363  0.859734043054452  0.011383481841242804  1.0000
  C   C28       1.0  0.6406990890432596  0.6097173464670789  0.4886560352849686  1.0000
  C   C29       1.0  0.8592525923863903  0.8900783920810795  0.4885489566203917  1.0000
  C   C30       1.0  0.1103032828697508  0.35981286703129456  0.9887401685214245  1.0000
  C   C31       1.0  0.3896427252055902  0.1402568928129426  0.9886254413808049  1.0000
  C   C32       1.0  0.3592807531284095  0.3902735894003087  0.5113222940329154  1.0000
  C   C33       1.0  0.09824218707063892  0.1395513794247378  0.4286594770991884  1.0000
  C   C34       1.0  0.8600998551770401  0.5972757893089876  0.928538376228538  1.0000
  C   C35       1.0  0.6398321945537973  0.9028098435474375  0.9286607518451933  1.0000
  C   C36       1.0  0.5981262003076395  0.639350986867008  0.571427843002283  1.0000
  C   C37       1.0  0.9017738187567232  0.8604447516811504  0.5713315996787642  1.0000
  C   C38       1.0  0.139907884671878  0.4027421617985993  0.0714769207235477  1.0000
  C   C39       1.0  0.360176578542422  0.09714888184126377  0.07134434713883313  1.0000
  C   C40       1.0  0.4018546751113306  0.3606202070940796  0.4285517610616054  1.0000
  C   C41       1.0  0.151286004001939  0.06195737529479568  0.3528031664690802  1.0000
  C   C42       1.0  0.9373805541574995  0.6506516696506566  0.8528771017374766  1.0000
  C   C43       1.0  0.5627075159164932  0.8494027917747643  0.8529032340306204  1.0000
  C   C44       1.0  0.6514345285491956  0.5620250570436269  0.6472777799023535  1.0000
  C   C45       1.0  0.848712436621227  0.9380366777157008  0.6471872729358665  1.0000
  C   C46       1.0  0.062596188272245  0.34934238335983275  0.14712544775453304  1.0000
  C   C47       1.0  0.4373219221258395  0.1505600898047277  0.1470954912233751  1.0000
  C   C48       1.0  0.3485318814074958  0.4379627616806657  0.3527126595025934  1.0000
  N   N1        1.0  0.0039697361483917  0.2393238567081397  0.4111540275600093  1.0000
  N   N2        1.0  0.7606260373180405  0.502783752436265  0.9110036075311998  1.0000
  N   N3        1.0  0.7391437925858071  0.9975211194848298  0.9111661376470723  1.0000
  N   N4        1.0  0.5038413504177228  0.7390922927194126  0.5889179955893766  1.0000
  N   N5        1.0  0.9960493694208877  0.7606743524931545  0.5888395987099599  1.0000
  N   N6        1.0  0.2393569045955388  0.49723835486212653  0.0890123267938847  1.0000
  N   N7        1.0  0.2608618807685019  0.0024428011423652  0.08882748862288993  1.0000
  N   N8        1.0  0.49614882422699225  0.2608851355278787  0.4110711690695653  1.0000
  Cl  Cl1       1.0  0.4318653431045902  0.7404326642522319  0.20942355985570066  1.0000
  Cl  Cl2       1.0  0.2584265168690294  0.9304848790331377  0.7096147717567265  1.0000
  Cl  Cl3       1.0  0.2416724118075493  0.5691009718796565  0.7093974275625572  1.0000
  Cl  Cl4       1.0  0.9314052849887987  0.24122427495117896  0.7908454115517503  1.0000
  Cl  Cl5       1.0  0.5681351640131922  0.2596060678093508  0.7905949239614003  1.0000
  Cl  Cl6       1.0  0.7416060209152278  0.0695299549313546  0.2903871403622845  1.0000
  Cl  Cl7       1.0  0.7582888319126084  0.43088788589233207  0.2906121330324964  1.0000
  Cl  Cl8       1.0  0.068545626258306  0.7588165352058027  0.2091418409881811  1.0000
  O   O1        1.0  0.2450056676156507  0.971208275533641  0.3607486583298254  1.0000
  O   O2        1.0  0.0274213502452412  0.7449691465098096  0.8610036075312026  1.0000
  O   O3        1.0  0.47283773176371824  0.7548380215630528  0.8609334965008204  1.0000
  O   O4        1.0  0.7454197367204642  0.471621672869844  0.6394055859370057  1.0000
  O   O5        1.0  0.7549442103841528  0.028727590805658596  0.6392462426861416  1.0000
  O   O6        1.0  0.9726184202701519  0.2550113988805833  0.1389919308577774  1.0000
  O   O7        1.0  0.5271720745798092  0.2451155085871406  0.13906522875316807  1.0000
  O   O8        1.0  0.2545859366338448  0.5283858877607486  0.3605925019439908  1.0000
  O   O9        1.0  0.098183291974216  0.09082627658762729  0.279859650464644  1.0000
  O   O10       1.0  0.9089569540257615  0.5974222950346686  0.7797009445867931  1.0000
  O   O11       1.0  0.5912530392303026  0.9027734768779396  0.7798915191148199  1.0000
  O   O12       1.0  0.598335949510691  0.5908149907112727  0.7203500452534828  1.0000
  O   O13       1.0  0.9018626780250117  0.9092155726170574  0.7201263273292824  1.0000
  O   O14       1.0  0.0909784585117634  0.4026143589315153  0.22030989075426535  1.0000
  O   O15       1.0  0.4087877645323914  0.0971675846998608  0.22011166775020297  1.0000
  O   O16       1.0  0.4016118619944962  0.4091613984883153  0.2796289214374071  1.0000
