data_image0
_chemical_formula_structural       Zn8H80C100N32
_chemical_formula_sum              "Zn8 H80 C100 N32"
_cell_length_a       14.875997878395497
_cell_length_b       15.229280737545519
_cell_length_c       23.64958835602504
_cell_angle_alpha    90.71613657066906
_cell_angle_beta     90.2317664728909
_cell_angle_gamma    80.25306514463763

_space_group_name_H-M_alt    "P 1"
_space_group_IT_number       1

loop_
  _space_group_symop_operation_xyz
  'x, y, z'

loop_
  _atom_site_type_symbol
  _atom_site_label
  _atom_site_symmetry_multiplicity
  _atom_site_fract_x
  _atom_site_fract_y
  _atom_site_fract_z
  _atom_site_occupancy
  Zn  Zn1       1.0  0.5563086809186686  0.5773300385845275  0.4137877653185953  1.0000
  Zn  Zn2       1.0  0.38822809380793893  0.46444503000946485  0.42033051898376783  1.0000
  Zn  Zn3       1.0  0.0757241668581941  0.07984422388733492  0.922014096467464  1.0000
  Zn  Zn4       1.0  0.9392646674124947  0.9300111206783584  0.9243548688982555  1.0000
  Zn  Zn5       1.0  0.4068423306891447  0.4362925213064912  0.5608347129100294  1.0000
  Zn  Zn6       1.0  0.551906014290033  0.5737823961328772  0.5559570699858156  1.0000
  Zn  Zn7       1.0  0.947889983936186  0.9317576301391313  0.06328862191929828  1.0000
  Zn  Zn8       1.0  0.0741297777714749  0.0855283628427728  0.059906921928373394  1.0000
  H   H1        1.0  0.4543632287425154  0.7559589059525038  0.3619064404702144  1.0000
  H   H2        1.0  0.48194792658901525  0.31466508897729284  0.3234037490070563  1.0000
  H   H3        1.0  0.0298434257758302  0.15754896152993333  0.7925685416275172  1.0000
  H   H4        1.0  0.07557777239756541  0.7695653106726398  0.8729511748814787  1.0000
  H   H5        1.0  0.5674740271582762  0.08167381021150526  0.5066793282604464  1.0000
  H   H6        1.0  0.6064182943826993  0.9446764874868095  0.44565505436298736  1.0000
  H   H7        1.0  0.9035587856288528  0.5633287598878312  0.03447075811980941  1.0000
  H   H8        1.0  0.8767176639157555  0.42507403062730015  0.04281677132835429  1.0000
  H   H9        1.0  0.34268885531192683  0.8362584748334714  0.6893654961928275  1.0000
  H   H10       1.0  0.6675920014222073  0.1776167863383478  0.6485415335649448  1.0000
  H   H11       1.0  0.7916544370644018  0.27930146599111083  0.1457360282148699  1.0000
  H   H12       1.0  0.22937494165616806  0.6769608333355849  0.15509469064260634  1.0000
  H   H13       1.0  0.6620621623439431  0.22176838702785764  0.3310948344127382  1.0000
  H   H14       1.0  0.31099819723560523  0.8685451361638384  0.3110901677657552  1.0000
  H   H15       1.0  0.20802323572278417  0.6698860501150037  0.8355526714109871  1.0000
  H   H16       1.0  0.8914111728833589  0.2744358370867417  0.7796008281707927  1.0000
  H   H17       1.0  0.2631406733134227  0.5938575911285183  0.7468287053429208  1.0000
  H   H18       1.0  0.7758380477115807  0.38700396475566384  0.7354038415101982  1.0000
  H   H19       1.0  0.7822960759658744  0.10788058054801297  0.28786437695095657  1.0000
  H   H20       1.0  0.2579745371040758  0.9359503994283289  0.21985909876720203  1.0000
  H   H21       1.0  0.8749208277102625  0.3392760182537273  0.5676480350283198  1.0000
  H   H22       1.0  0.03894370124780269  0.34271129125832533  0.5743822753264141  1.0000
  H   H23       1.0  0.43563833494328463  0.12228870202103082  0.08484068378714228  1.0000
  H   H24       1.0  0.6019114823533869  0.1026154425179584  0.086261635870045  1.0000
  H   H25       1.0  0.04372554767383712  0.4022568789581627  0.3968365005387682  1.0000
  H   H26       1.0  0.8791139186000265  0.4042322863550538  0.3909441777505833  1.0000
  H   H27       1.0  0.6033563755598693  0.14278097395158806  0.906171313682215  1.0000
  H   H28       1.0  0.4365250593528245  0.16402107505957278  0.904952152538584  1.0000
  H   H29       1.0  0.25984523836122964  0.5523344689000284  0.6421374307728412  1.0000
  H   H30       1.0  0.6927436735783488  0.4855544534140535  0.6620506487599725  1.0000
  H   H31       1.0  0.8251892858882852  0.9919020130795316  0.17756070788677653  1.0000
  H   H32       1.0  0.25237935352235036  0.9782109844366929  0.11503353554003581  1.0000
  H   H33       1.0  0.16634274705216262  0.46780361726378317  0.41078262548548133  1.0000
  H   H34       1.0  0.7114053188232035  0.41006703353612295  0.3893979720503253  1.0000
  H   H35       1.0  0.75991782852779  0.07562619715044859  0.9038557306881286  1.0000
  H   H36       1.0  0.28675442467585543  0.12671886560480772  0.9008112451258937  1.0000
  H   H37       1.0  0.5293969256757904  0.7932543359893813  0.5605292220077233  1.0000
  H   H38       1.0  0.5576555727439612  0.25355022610252587  0.5573492523890167  1.0000
  H   H39       1.0  0.9158531688370672  0.2508825701570315  0.08365746260449208  1.0000
  H   H40       1.0  0.9045342328111161  0.7276691625558699  0.08621644026305118  1.0000
  H   H41       1.0  0.20557790679376345  0.3519804064714335  0.5769962496196541  1.0000
  H   H42       1.0  0.7326912915271038  0.436929275266408  0.570974532894894  1.0000
  H   H43       1.0  0.7582571890581137  0.06507274168255611  0.0868723536980553  1.0000
  H   H44       1.0  0.2752098134351045  0.14840106153778274  0.0832573564974766  1.0000
  H   H45       1.0  0.4484677876183696  0.7378071592408378  0.6271448643049311  1.0000
  H   H46       1.0  0.5189785764654643  0.28591953155276434  0.647946585925311  1.0000
  H   H47       1.0  0.9773907634979438  0.20858812684192432  0.16710822303520698  1.0000
  H   H48       1.0  0.08756165867067263  0.7699479652646206  0.10606829289289982  1.0000
  H   H49       1.0  0.3791234542954952  0.08243456829183059  0.4530188421761778  1.0000
  H   H50       1.0  0.41463039241302363  0.9230816595289257  0.48432677197060764  1.0000
  H   H51       1.0  0.7940696206552925  0.5851423499149534  0.9236573290462927  1.0000
  H   H52       1.0  0.8199558778742073  0.4263170098677093  0.9177872936372607  1.0000
  H   H53       1.0  0.6745479748415731  0.40537269308190105  0.1327888473653545  1.0000
  H   H54       1.0  0.5882596108946316  0.4377838255211941  0.184704061230903  1.0000
  H   H55       1.0  0.6954856387883838  0.4716859111209147  0.1918638520618785  1.0000
  H   H56       1.0  0.2877298880681138  0.5492068883878787  0.2038076767615991  1.0000
  H   H57       1.0  0.34386540688169015  0.5517362280980578  0.2704011628246477  1.0000
  H   H58       1.0  0.2237318905732408  0.5613063617897255  0.2671702162384832  1.0000
  H   H59       1.0  0.3183151884540791  0.9645278745272563  0.7397639013367153  1.0000
  H   H60       1.0  0.23120787461466114  0.9809666545365872  0.7923389849187643  1.0000
  H   H61       1.0  0.3466961388016968  0.9469173773283189  0.8120967721320154  1.0000
  H   H62       1.0  0.7604450608948597  0.0300415387704689  0.6448267451140168  1.0000
  H   H63       1.0  0.8532132801848391  0.9996668978128938  0.6924715498470774  1.0000
  H   H64       1.0  0.7395865693618617  0.004893750724519881  0.7159311248471595  1.0000
  H   H65       1.0  0.5975643079446157  0.8032397402929876  0.3502491339904382  1.0000
  H   H66       1.0  0.7114057914093337  0.7874542278577934  0.3752146673092867  1.0000
  H   H67       1.0  0.662939082205284  0.6938560614207677  0.3533841419717163  1.0000
  H   H68       1.0  0.41771308155213666  0.1816434482786066  0.36677698204970005  1.0000
  H   H69       1.0  0.3170913046490327  0.21996039476085372  0.4060911593894402  1.0000
  H   H70       1.0  0.3625609253190519  0.2953055820943149  0.36304672108894925  1.0000
  H   H71       1.0  0.8698107833270824  0.2889325746213843  0.8675788460066369  1.0000
  H   H72       1.0  0.9511321688217792  0.35655805577108174  0.8869363352145072  1.0000
  H   H73       1.0  0.9878086683783138  0.24602232157332074  0.8605947899563589  1.0000
  H   H74       1.0  0.8991556464531383  0.6628215603847352  0.8755944022886412  1.0000
  H   H75       1.0  0.7916167525107553  0.7337737782833003  0.8766786136193899  1.0000
  H   H76       1.0  0.8914406224319648  0.7785212524983791  0.8612286542521659  1.0000
  H   H77       1.0  0.24100143003698787  0.5957226911089891  0.363297382164987  1.0000
  H   H78       1.0  0.6568437917602807  0.5082423208650441  0.29416020815660454  1.0000
  H   H79       1.0  0.8194711360616295  0.9955761180200114  0.8072025951545998  1.0000
  H   H80       1.0  0.25952629425094637  0.9595946297360599  0.8921405067275643  1.0000
  C   C1        1.0  0.40928832534631704  0.7084675853356187  0.3700372359555785  1.0000
  C   C2        1.0  0.5146732467823298  0.3730089230190217  0.32237566453015626  1.0000
  C   C3        1.0  0.9855164087496034  0.1109927163792435  0.8042788182401353  1.0000
  C   C4        1.0  0.11099119493997729  0.8240900487805546  0.8842818047702607  1.0000
  C   C5        1.0  0.338015523154553  0.6654555663848996  0.657060624275175  1.0000
  C   C6        1.0  0.6372352685332459  0.3568060613622066  0.6661908146987655  1.0000
  C   C7        1.0  0.8711357297336662  0.12488548285509887  0.1867493746398736  1.0000
  C   C8        1.0  0.19371700800679992  0.8532865395930146  0.13021728505203362  1.0000
  C   C9        1.0  0.14667209715069865  0.396827562512371  0.4917593374666183  1.0000
  C   C10       1.0  0.7635073809632047  0.4030688895456436  0.4795519148956586  1.0000
  C   C11       1.0  0.7160321620281636  0.08851867363536312  0.9955866387910746  1.0000
  C   C12       1.0  0.3238890173896039  0.14120609516638893  0.9927458236628651  1.0000
  C   C13       1.0  0.5766633509816687  0.815385702259299  0.4727299896935335  1.0000
  C   C14       1.0  0.4871741956723312  0.20691841398037522  0.4810685950963459  1.0000
  C   C15       1.0  0.9040351391573294  0.3028661824775157  0.9948035251199981  1.0000
  C   C16       1.0  0.8771865235873332  0.6916185400387819  0.9958207175893888  1.0000
  C   C17       1.0  0.44734082089495075  0.05483034095456671  0.46850466695547516  1.0000
  C   C18       1.0  0.46995283339310123  0.9588468676278411  0.47318953079646764  1.0000
  C   C19       1.0  0.829520659877197  0.5503593773723239  0.9595979796126244  1.0000
  C   C20       1.0  0.8370325991386239  0.45417739385888467  0.9583905040647309  1.0000
  C   C21       1.0  0.5041865540011585  0.11096595126699779  0.485349385221916  1.0000
  C   C22       1.0  0.5538851977348145  0.9107567239308237  0.463455475482121  1.0000
  C   C23       1.0  0.8690371098810914  0.5985661770419242  0.9982802618751451  1.0000
  C   C24       1.0  0.8686298010340253  0.3969266759395609  0.0005985332117007002  1.0000
  C   C25       1.0  0.3138162578102239  0.7987447561408986  0.7217297455765035  1.0000
  C   C26       1.0  0.7150861449482094  0.1991913397670757  0.6789844276997171  1.0000
  C   C27       1.0  0.764629082137688  0.26774165241571524  0.1873458666445629  1.0000
  C   C28       1.0  0.2457875111801328  0.7196171604362291  0.18978608385602772  1.0000
  C   C29       1.0  0.696214807886555  0.3322042134138884  0.21045366373618887  1.0000
  C   C30       1.0  0.2745269515608726  0.6801569384859574  0.24125566117344016  1.0000
  C   C31       1.0  0.28457904730611  0.8429658056889552  0.7723071231862234  1.0000
  C   C32       1.0  0.7802970598870189  0.1339816062934602  0.7039713548040039  1.0000
  C   C33       1.0  0.6595248831576228  0.31573313499283273  0.2635311859776266  1.0000
  C   C34       1.0  0.29690915793337774  0.7348340488358359  0.2864408782247807  1.0000
  C   C35       1.0  0.2424379213259583  0.7973289198669139  0.8139758996158832  1.0000
  C   C36       1.0  0.8429714577325526  0.160890192467015  0.7429092259638138  1.0000
  C   C37       1.0  0.6901496560959187  0.23371025547739077  0.28986995214316386  1.0000
  C   C38       1.0  0.29320255650031146  0.8262058171752714  0.2766691373585175  1.0000
  C   C39       1.0  0.23698355887592726  0.7071417883240231  0.8031769274389404  1.0000
  C   C40       1.0  0.8420584604167162  0.25285665337393237  0.7507853165781029  1.0000
  C   C41       1.0  0.2672895211062425  0.6641891956829795  0.7528619042136098  1.0000
  C   C42       1.0  0.7767625852472692  0.31660307145501326  0.7258396440165527  1.0000
  C   C43       1.0  0.757886444342347  0.16992702086618286  0.2658779521300332  1.0000
  C   C44       1.0  0.2642555262576849  0.8641292399176521  0.22514402914767126  1.0000
  C   C45       1.0  0.31323619244525247  0.5894851409613083  0.630817980121975  1.0000
  C   C46       1.0  0.63913091268563  0.4466391241754836  0.6537805488972451  1.0000
  C   C47       1.0  0.8735946803411636  0.03618312585689407  0.16919104177575406  1.0000
  C   C48       1.0  0.20214056159223753  0.9355990994858844  0.10647612224932601  1.0000
  C   C49       1.0  0.30504448683517166  0.7099375466467635  0.710137312678576  1.0000
  C   C50       1.0  0.7090937247352188  0.2908118714393453  0.6907827461758488  1.0000
  C   C51       1.0  0.7978883122966707  0.18706316648148658  0.21447196156148607  1.0000
  C   C52       1.0  0.2377904180492151  0.8114632362091286  0.1808484418769609  1.0000
  C   C53       1.0  0.9115040078957933  0.3539657965793168  0.5299485691308945  1.0000
  C   C54       1.0  0.004650368833786404  0.35537624000959056  0.5336876514816283  1.0000
  C   C55       1.0  0.4716816956096181  0.12799953390432253  0.04531895295642129  1.0000
  C   C56       1.0  0.5663787334991568  0.11655444593748139  0.0461020565572454  1.0000
  C   C57       1.0  0.05384805101048328  0.37792754265586853  0.48691599129069374  1.0000
  C   C58       1.0  0.8628228060198283  0.37648735001964445  0.47949097924684037  1.0000
  C   C59       1.0  0.6170520690247017  0.11773812162508081  0.995995390310391  1.0000
  C   C60       1.0  0.4220773661229842  0.141921043874234  0.9944603328497763  1.0000
  C   C61       1.0  0.00712182267086087  0.389133544973788  0.4348527583856877  1.0000
  C   C62       1.0  0.9139637189615045  0.3889722717996237  0.43121994606842406  1.0000
  C   C63       1.0  0.5671556965296034  0.13820802182202388  0.9457784794861438  1.0000
  C   C64       1.0  0.4723287256917104  0.15000021267847788  0.9450490425241111  1.0000
  C   C65       1.0  0.19089922603107817  0.4417790923264633  0.4515982506746851  1.0000
  C   C66       1.0  0.7023766448525562  0.4242137020333416  0.43431780815267007  1.0000
  C   C67       1.0  0.7737679560511098  0.06636145151963291  0.9486735569935474  1.0000
  C   C68       1.0  0.268792215033038  0.13115746385929583  0.9453660574693287  1.0000
  C   C69       1.0  0.5579620096829387  0.7672773985493038  0.5203046520988649  1.0000
  C   C70       1.0  0.516845469990109  0.2671797294627964  0.5193862388033353  1.0000
  C   C71       1.0  0.9291558543085615  0.24224662731582217  0.0387379380132273  1.0000
  C   C72       1.0  0.8978769550634593  0.7445343033737402  0.0416971345255988  1.0000
  C   C73       1.0  0.21039493869727008  0.38336125967089885  0.5363859696978395  1.0000
  C   C74       1.0  0.7122209627188099  0.4374923443491028  0.5270015877343822  1.0000
  C   C75       1.0  0.7728800231802779  0.06030528002741418  0.04194669741502819  1.0000
  C   C76       1.0  0.263138432399721  0.14143287708456856  0.0382212763673806  1.0000
  C   C77       1.0  0.61567925909263  0.7489689147943324  0.43397894749003285  1.0000
  C   C78       1.0  0.43654815486713244  0.2621492192068687  0.4401236162191964  1.0000
  C   C79       1.0  0.9396105538034618  0.2549232455294614  0.9457173913581655  1.0000
  C   C80       1.0  0.8775687463106436  0.7481862661727448  0.9486658351723917  1.0000
  C   C81       1.0  0.40817701625553576  0.6850342034023102  0.6223608417076533  1.0000
  C   C82       1.0  0.5515772759419592  0.3443888685464884  0.6455243272034322  1.0000
  C   C83       1.0  0.950356270353538  0.14691158008501054  0.162677319719343  1.0000
  C   C84       1.0  0.11913246571898378  0.8286848802760572  0.1010918400418959  1.0000
  C   C85       1.0  0.3013952620188716  0.6258300220868098  0.3699548495900444  1.0000
  C   C86       1.0  0.6034579477640847  0.4716635020044179  0.30638633399287574  1.0000
  C   C87       1.0  0.8789035879666613  0.02795196826576066  0.8111373670280103  1.0000
  C   C88       1.0  0.2041496580126604  0.9215984687508441  0.8927194576431176  1.0000
  C   C89       1.0  0.3304625429045629  0.6954375955273163  0.3404755757102862  1.0000
  C   C90       1.0  0.5942141753602499  0.3835250313728337  0.2933524979712558  1.0000
  C   C91       1.0  0.901954721985227  0.09929117359520487  0.7800748853379459  1.0000
  C   C92       1.0  0.19379363461793275  0.8431925018284403  0.8628850892472711  1.0000
  C   C93       1.0  0.6617648441969591  0.41593260025880613  0.17824683034037744  1.0000
  C   C94       1.0  0.2831928132734872  0.5804609629961632  0.24600072274400017  1.0000
  C   C95       1.0  0.29562522249381107  0.9388911093363037  0.7794531697160281  1.0000
  C   C96       1.0  0.7836667943600802  0.03718677380313549  0.6885104348866449  1.0000
  C   C97       1.0  0.6482620507666326  0.7588245363481506  0.37519867354569664  1.0000
  C   C98       1.0  0.3813546476924401  0.23842434780988953  0.3912848803036865  1.0000
  C   C99       1.0  0.9372776208251636  0.28790420775444403  0.8870110858875576  1.0000
  C   C100      1.0  0.864214078868862  0.7299713572666563  0.8874517622295102  1.0000
  N   N1        1.0  0.4282276580282129  0.6481873672919606  0.4118346764445207  1.0000
  N   N2        1.0  0.47965100034917896  0.4483303888224057  0.35065822570457766  1.0000
  N   N3        1.0  0.008565023537990194  0.05438827316660881  0.8473505123815387  1.0000
  N   N4        1.0  0.07422891070621766  0.8875248560696106  0.9215879669347871  1.0000
  N   N5        1.0  0.36595454928256993  0.5655214663564722  0.5849360386235388  1.0000
  N   N6        1.0  0.5628109884364108  0.4835130813639239  0.6262496419953222  1.0000
  N   N7        1.0  0.9466582528266515  0.0089014120701947  0.135698854837166  1.0000
  N   N8        1.0  0.13585764243740067  0.9588230687649926  0.06767338599611608  1.0000
  N   N9        1.0  0.27343009408271957  0.45330166622628815  0.47029731704235894  1.0000
  N   N10       1.0  0.6220718432915078  0.4698063922681968  0.45382133714971934  1.0000
  N   N11       1.0  0.8570115948987153  0.0264430075125688  0.9662327533598968  1.0000
  N   N12       1.0  0.1831882183942994  0.1255781586844051  0.9614795601227187  1.0000
  N   N13       1.0  0.583140152821109  0.6792221890653352  0.5110835968688789  1.0000
  N   N14       1.0  0.4858515384708681  0.3519967727927451  0.5035585512032553  1.0000
  N   N15       1.0  0.9760462122266274  0.16538182248356748  0.0179442214215513  1.0000
  N   N16       1.0  0.9084683543109618  0.8255833338325829  0.0240841009537505  1.0000
  N   N17       1.0  0.286128002382199  0.4165852574352229  0.5229673503961435  1.0000
  N   N18       1.0  0.6287988277325736  0.47792238685303096  0.5109677476210094  1.0000
  N   N19       1.0  0.8562799730366849  0.02276662934104222  0.023570781445329203  1.0000
  N   N20       1.0  0.17958820321533864  0.13215182879356044  0.019462380457106597  1.0000
  N   N21       1.0  0.6178041869539399  0.6675296132198484  0.4568206912879588  1.0000
  N   N22       1.0  0.44010112223617176  0.34729678207712317  0.4538164983983535  1.0000
  N   N23       1.0  0.9824948896221103  0.17314875958768283  0.9606177998999639  1.0000
  N   N24       1.0  0.8967762070715465  0.8275560652520326  0.966357946672879  1.0000
  N   N25       1.0  0.4248732927141035  0.6245310469334414  0.5797713409360837  1.0000
  N   N26       1.0  0.5078835653739375  0.41951303773316084  0.6214709786904322  1.0000
  N   N27       1.0  0.9949410375492745  0.07823283316369607  0.13187522978962818  1.0000
  N   N28       1.0  0.08404015639295172  0.8930857438231214  0.06450825098782081  1.0000
  N   N29       1.0  0.36084034156095873  0.5972417055872442  0.41189215879747104  1.0000
  N   N30       1.0  0.5357974617965481  0.5098402835611395  0.34107081073535267  1.0000
  N   N31       1.0  0.9418647505478219  0.002103095406731397  0.8512962587083877  1.0000
  N   N32       1.0  0.13164386026358693  0.9481804610893007  0.9270656555309171  1.0000
