data_image0
_chemical_formula_structural       Zn4H40C36N8O16
_chemical_formula_sum              "Zn4 H40 C36 N8 O16"
_cell_length_a       6.551877348
_cell_length_b       8.03980025523619
_cell_length_c       19.831
_cell_angle_alpha    98.80506557550358
_cell_angle_beta     90.0
_cell_angle_gamma    90.0

_space_group_name_H-M_alt    "P 1"
_space_group_IT_number       1

loop_
  _space_group_symop_operation_xyz
  'x, y, z'

loop_
  _atom_site_type_symbol
  _atom_site_label
  _atom_site_symmetry_multiplicity
  _atom_site_fract_x
  _atom_site_fract_y
  _atom_site_fract_z
  _atom_site_occupancy
  Zn  Zn1       1.0  0.8836200210260685  0.9999987389632565  0.7499998208900109  1.0000
  Zn  Zn2       1.0  0.11637885746331018  0.9999987389632565  0.24999982089001097  1.0000
  Zn  Zn3       1.0  0.0  0.9999987389632565  0.9999998208900108  1.0000
  Zn  Zn4       1.0  1.5262801014e-06  1.2586453195e-06  0.4999995738483705  1.0000
  H   H1        1.0  0.1042281416040964  0.6191225968668164  0.99180881242836  1.0000
  H   H2        1.0  0.10422508904390068  0.3808786593870792  0.5081916689414143  1.0000
  H   H3        1.0  0.8957722631653908  0.3808748834511277  0.008190930352270703  1.0000
  H   H4        1.0  0.8957753157255864  0.6191213382214968  0.49180873431897965  1.0000
  H   H5        1.0  0.3838853913783637  0.4291804320735011  0.9337599170885652  1.0000
  H   H6        1.0  0.3838808125380666  0.570819565535075  0.5662414946938412  1.0000
  H   H7        1.0  0.6161165396712178  0.5708183068897557  0.06623990380144561  1.0000
  H   H8        1.0  0.6161165396712178  0.42918169071882073  0.4337594909369429  1.0000
  H   H9        1.0  0.6656000667245721  0.563046172057085  0.8767706387441336  1.0000
  H   H10       1.0  0.6655954878842749  0.4369550841968106  0.6232298426256478  1.0000
  H   H11       1.0  0.3344003380449152  0.4369538255514912  0.1232287559942549  1.0000
  H   H12       1.0  0.3344018643250095  0.5630474307023974  0.3767717253755194  1.0000
  H   H13       1.0  0.9965739059497452  0.5657686218778226  0.6395713275193061  1.0000
  H   H14       1.0  0.9965723796696436  0.4342288584401147  0.8604274067393192  1.0000
  H   H15       1.0  0.0034280250998363995  0.4342288584401147  0.3604279110003219  1.0000
  H   H16       1.0  0.0034264988197421  0.5657698805231419  0.1395724141506989  1.0000
  H   H17       1.0  0.7971547272010966  0.7189017043745309  0.6364947058512556  1.0000
  H   H18       1.0  0.7971547272010966  0.2810970345887256  0.8635046107777526  1.0000
  H   H19       1.0  0.2028456775683836  0.2810970345887256  0.3635046107777526  1.0000
  H   H20       1.0  0.2028456775683836  0.7189017043745309  0.1364952101122583  1.0000
  H   H21       1.0  0.8310778286565679  0.6247525173698991  0.711487024283784  1.0000
  H   H22       1.0  0.8310763023764736  0.3752462215933577  0.7885117880842145  1.0000
  H   H23       1.0  0.16892410239301367  0.3752474802386773  0.2885118661935948  1.0000
  H   H24       1.0  0.16892410239301367  0.6247525173698991  0.21148803280579642  1.0000
  H   H25       1.0  0.1477713865164958  0.7144888938930194  0.7859314085501694  1.0000
  H   H26       1.0  0.1477713865164958  0.2855098450702371  0.7140684123398415  1.0000
  H   H27       1.0  0.8522274919728828  0.2855098450702371  0.21406891660084432  1.0000
  H   H28       1.0  0.8522259656927884  0.7144901525383318  0.285930982398547  1.0000
  H   H29       1.0  0.3296230813385463  0.8464062509258314  0.7525648505913409  1.0000
  H   H30       1.0  0.3296230813385463  0.15359374668274486  0.7474350484080503  1.0000
  H   H31       1.0  0.6703757971508324  0.15359248803742537  0.24743547455967274  1.0000
  H   H32       1.0  0.6703757971508324  0.8464087682164632  0.252563998288089  1.0000
  H   H33       1.0  0.2918186495941697  0.6370217919203258  0.7108122991698309  1.0000
  H   H34       1.0  0.2918186495941697  0.3629782056882505  0.7891870955685576  1.0000
  H   H35       1.0  0.7081802288952161  0.362976947042931  0.2891880259811828  1.0000
  H   H36       1.0  0.7081802288952161  0.6370243092109578  0.2108119511275817  1.0000
  H   H37       1.0  0.1147686319600467  0.8506592134520832  0.655987977383532  1.0000
  H   H38       1.0  0.1147686319600467  0.14934078415649316  0.8440114173548564  1.0000
  H   H39       1.0  0.8852317728094332  0.14934078415649316  0.3440119216158593  1.0000
  H   H40       1.0  0.8852317728094332  0.8506592134520832  0.15598797738353204  1.0000
  C   C1        1.0  0.2309887562931863  0.6681619357090158  0.9651163428326582  1.0000
  C   C2        1.0  0.2309872300130849  0.3318380618995604  0.5348835561667329  1.0000
  C   C3        1.0  0.7690131747563953  0.33183680325424103  0.03488448657936521  1.0000
  C   C4        1.0  0.769011648476301  0.6681619357090158  0.46511684709366813  1.0000
  C   C5        1.0  0.3854757752403515  0.564945467840481  0.9337545236483749  1.0000
  C   C6        1.0  0.3854727226801558  0.4350532711227758  0.5662452972416361  1.0000
  C   C7        1.0  0.6145261558092301  0.4350532711227758  0.0662458015026388  1.0000
  C   C8        1.0  0.6145261558092301  0.5649467264858004  0.4337546017577552  1.0000
  C   C9        1.0  0.5420507453614221  0.6396271877265818  0.9016184311500695  1.0000
  C   C10       1.0  0.5420476928012263  0.36037280988199444  0.5983819721103316  1.0000
  C   C11       1.0  0.4579511856881595  0.36037280988199444  0.0983819721103316  1.0000
  C   C12       1.0  0.4579496594080652  0.639629705017214  0.4016180831078202  1.0000
  C   C13       1.0  0.5411212407818127  0.8131389965513591  0.9004428558316704  1.0000
  C   C14       1.0  0.541118188221617  0.1868622597025364  0.5995581297991137  1.0000
  C   C15       1.0  0.4588806902677688  0.1868622597025364  0.0995586340601164  1.0000
  C   C16       1.0  0.4588822165478702  0.8131389965513591  0.4004408387876452  1.0000
  C   C17       1.0  0.3779405303971187  0.9072164407729206  0.9317831332205914  1.0000
  C   C18       1.0  0.3779390041170245  0.0927860741262876  0.5682164177365507  1.0000
  C   C19       1.0  0.6220598743723613  0.0927835568356556  0.06821676577879998  1.0000
  C   C20       1.0  0.6220583480922669  0.9072164407729206  0.4317841417426039  1.0000
  C   C21       1.0  0.3531445839269693  0.0940258397635674  0.9288949388547465  1.0000
  C   C22       1.0  0.3531445839269693  0.9059766751356406  0.5711036035803829  1.0000
  C   C23       1.0  0.6468558208425107  0.9059754164903282  0.0711040297320125  1.0000
  C   C24       1.0  0.6468573471226122  0.0940245811182479  0.4288963735283886  1.0000
  C   C25       1.0  0.7097660339169067  0.888159292027737  0.8633890424685617  1.0000
  C   C26       1.0  0.7097599287965152  0.11184196422615143  0.6366129516842278  1.0000
  C   C27       1.0  0.2902389496928635  0.11184196422615143  0.1366129516842278  1.0000
  C   C28       1.0  0.2902374234127691  0.8881580333824177  0.3633874515761661  1.0000
  C   C29       1.0  0.9107328606848029  0.6702261140289494  0.6691519607463547  1.0000
  C   C30       1.0  0.910729808124607  0.3297726249343072  0.8308468516216507  1.0000
  C   C31       1.0  0.0892690703647787  0.3297726249343072  0.3308468516216507  1.0000
  C   C32       1.0  0.0892690703647787  0.6702273726742689  0.16915304737774053  1.0000
  C   C33       1.0  0.21469876880851757  0.7479801871339262  0.7390158217307032  1.0000
  C   C34       1.0  0.21469876880851757  0.2520172931840179  0.7609839210499274  1.0000
  C   C35       1.0  0.7853001096808683  0.2520185518293304  0.26098399915930776  1.0000
  C   C36       1.0  0.785298583400774  0.7479814457792389  0.23901589984008353  1.0000
  N   N1        1.0  0.2288672269571279  0.8339406277059498  0.963601552308198  1.0000
  N   N2        1.0  0.2288672269571279  0.1660593699026265  0.5363978424301834  1.0000
  N   N3        1.0  0.7711331778123522  0.16605811125731415  0.0363982685818129  1.0000
  N   N4        1.0  0.7711285989720551  0.8339418863512622  0.46360314320059354  1.0000
  N   N5        1.0  0.0507900228171394  0.8077759088554828  0.6972907084846156  1.0000
  N   N6        1.0  0.0507900228171394  0.19222283010777375  0.8027086081443855  1.0000
  N   N7        1.0  0.9492103819523479  0.19222157146245425  0.3027085300350123  1.0000
  N   N8        1.0  0.9492103819523479  0.8077771675008025  0.1972907865939959  1.0000
  O   O1        1.0  0.4859477415235673  0.16400274345459565  0.8975903670167542  1.0000
  O   O2        1.0  0.4859477415235673  0.8360022887352445  0.6024093401591486  1.0000
  O   O3        1.0  0.5140526632459199  0.835998512799293  0.10240910583101481  1.0000
  O   O4        1.0  0.5140526632459199  0.16399770887333184  0.3975905588402426  1.0000
  O   O5        1.0  0.19171299053444807  0.1652223707667986  0.9570236264843217  1.0000
  O   O6        1.0  0.19171299053444807  0.834776368196458  0.5429761944056892  1.0000
  O   O7        1.0  0.808287414235032  0.834776368196458  0.04297619440568919  1.0000
  O   O8        1.0  0.8082889405151333  0.1652248880574376  0.4570237827030752  1.0000
  O   O9        1.0  0.8716723004198741  0.9404836951473927  0.8933322874780173  1.0000
  O   O10       1.0  0.8716692478596784  0.05951756110649602  0.6066692024137694  1.0000
  O   O11       1.0  0.1283296306297075  0.0595163024611765  0.1066696285653919  1.0000
  O   O12       1.0  0.1283296306297075  0.9404836951473927  0.3933312789560119  1.0000
  O   O13       1.0  0.6807193973741619  0.8778283312655406  0.7988212402332309  1.0000
  O   O14       1.0  0.6807163448139659  0.12217292498835523  0.701180249658556  1.0000
  O   O15       1.0  0.3192855862356083  0.12217166634303572  0.2011801715491757  1.0000
  O   O16       1.0  0.31928100739531823  0.8778258139749013  0.2988200754924648  1.0000
