data_image0
_chemical_formula_structural       Cu4H16C12I4N4
_chemical_formula_sum              "Cu4 H16 C12 I4 N4"
_cell_length_a       7.299582278563454
_cell_length_b       7.3842477107957905
_cell_length_c       9.812508588495618
_cell_angle_alpha    96.16728945274951
_cell_angle_beta     108.15691371220313
_cell_angle_gamma    97.41692013333613

_space_group_name_H-M_alt    "P 1"
_space_group_IT_number       1

loop_
  _space_group_symop_operation_xyz
  'x, y, z'

loop_
  _atom_site_type_symbol
  _atom_site_label
  _atom_site_symmetry_multiplicity
  _atom_site_fract_x
  _atom_site_fract_y
  _atom_site_fract_z
  _atom_site_occupancy
  Cu  Cu1       1.0  0.9899004390995289  0.40758367880518165  0.3773630366244447  1.0000
  Cu  Cu2       1.0  0.010104252968147858  0.5924159681171512  0.6226346434564505  1.0000
  Cu  Cu3       1.0  0.8381361416620833  0.05261531368097388  0.43132314462094  1.0000
  Cu  Cu4       1.0  0.16186799701227267  0.947374607032124  0.5686776728875458  1.0000
  H   H1        1.0  0.6037272777758672  0.5056538122438211  0.769408138483307  1.0000
  H   H2        1.0  0.39625970279898576  0.4943585660261434  0.2305904385536337  1.0000
  H   H3        1.0  0.8433049256767972  0.7644814811906071  0.9444672668982934  1.0000
  H   H4        1.0  0.15667869480883917  0.23552947517181616  0.055543637815013404  1.0000
  H   H5        1.0  0.9999439802107377  0.7204303295929787  0.2017912767417087  1.0000
  H   H6        1.0  3.6584300232803605e-05  0.2795723669084182  0.7982161734800145  1.0000
  H   H7        1.0  0.6899076569498489  0.18937898898996508  0.12383002984105224  1.0000
  H   H8        1.0  0.31010470732703516  0.8106220124776513  0.8761563482828977  1.0000
  H   H9        1.0  0.572161146653869  0.04194442034291508  0.8260941455574838  1.0000
  H   H10       1.0  0.42783653361362173  0.9580497213869774  0.17391159255624436  1.0000
  H   H11       1.0  0.3869697916534065  0.10498097901243847  0.8933965809740131  1.0000
  H   H12       1.0  0.6130413167754655  0.8950296220269961  0.10660965750315651  1.0000
  H   H13       1.0  0.4614486086886629  0.2068478740886164  0.6306279256636317  1.0000
  H   H14       1.0  0.5385520756708786  0.7931462745910166  0.3693703781109435  1.0000
  H   H15       1.0  0.2979203537034961  0.28378432762695377  0.693206557167784  1.0000
  H   H16       1.0  0.7020817487804367  0.7162028310003236  0.3067966017255728  1.0000
  C   C1        1.0  0.671282525615858  0.48863202324269384  0.8823298075573336  1.0000
  C   C2        1.0  0.32870463280890055  0.5113804263318967  0.11765760702046182  1.0000
  C   C3        1.0  0.8044090056212241  0.6343378394461965  0.9801194855280287  1.0000
  C   C4        1.0  0.1955857413884274  0.36567024349497496  0.01988263096223619  1.0000
  C   C5        1.0  0.8926758591965509  0.6109706918177976  0.12306074036644085  1.0000
  C   C6        1.0  0.1073191468012098  0.38903876718773484  0.876942571400683  1.0000
  C   C7        1.0  0.7201707208014129  0.3138825173875617  0.0783224515028991  1.0000
  C   C8        1.0  0.27982637960061396  0.6861145350521552  0.921664025108811  1.0000
  C   C9        1.0  0.6280436466160352  0.3230781481429189  0.931815665804301  1.0000
  C   C10       1.0  0.3719753221759206  0.6769212353451335  0.06819152195539857  1.0000
  C   C11       1.0  0.48871562553558334  0.1538009801411491  0.8373535421957856  1.0000
  C   C12       1.0  0.5112868652818534  0.8461876064083923  0.1626426938223275  1.0000
  I   I1        1.0  0.6961562545909673  0.34878221165598683  0.48108820366010724  1.0000
  I   I2        1.0  0.30385215077962613  0.6512145833641724  0.5189131854315505  1.0000
  I   I3        1.0  0.115734622838211  0.09269123415165839  0.3164495435053355  1.0000
  I   I4        1.0  0.8842765926063479  0.9073054900313765  0.6835565884753195  1.0000
  N   N1        1.0  0.8506831016248596  0.4525121096151706  0.17255678408626093  1.0000
  N   N2        1.0  0.14931531989251573  0.547477913878751  0.8274406362583023  1.0000
  N   N3        1.0  0.37196863996199875  0.17519863175921552  0.6905398625404474  1.0000
  N   N4        1.0  0.6280400698204575  0.8247925976559924  0.30946317596431777  1.0000
