data_image0
_chemical_formula_structural       AlH18C24NO6
_chemical_formula_sum              "Al1 H18 C24 N1 O6"
_cell_length_a       4.119431315760551
_cell_length_b       13.478360595225363
_cell_length_c       13.478529859975056
_cell_angle_alpha    119.99986440633543
_cell_angle_beta     90.00207898014276
_cell_angle_gamma    89.99941693432541

_space_group_name_H-M_alt    "P 1"
_space_group_IT_number       1

loop_
  _space_group_symop_operation_xyz
  'x, y, z'

loop_
  _atom_site_type_symbol
  _atom_site_label
  _atom_site_symmetry_multiplicity
  _atom_site_fract_x
  _atom_site_fract_y
  _atom_site_fract_z
  _atom_site_occupancy
  Al  Al1       1.0  0.0251697515750422  0.49999401046525804  0.4999933728101169  1.0000
  H   H1        1.0  0.23028484069414656  0.8148182177616548  0.7894859281626695  1.0000
  H   H2        1.0  0.21553024185046613  0.02615837206410302  0.8968613729498928  1.0000
  H   H3        1.0  0.781051599259044  0.03216045977512756  0.6317578785582826  1.0000
  H   H4        1.0  0.7810699314225502  0.09959710217800222  0.9678383550289098  1.0000
  H   H5        1.0  0.23025307654747001  0.4746647986571945  0.18515435777848688  1.0000
  H   H6        1.0  0.215526557627868  0.37069471523885505  0.973815309358237  1.0000
  H   H7        1.0  0.7810445838416699  0.36824012413615054  0.9004048403452317  1.0000
  H   H8        1.0  0.23028199631002624  0.21048463014343338  0.5253207098493604  1.0000
  H   H9        1.0  0.215511054110884  0.1031191012912416  0.6292958388341461  1.0000
  H   H10       1.0  0.7472576249925142  0.8386413072656181  0.4350557599801093  1.0000
  H   H11       1.0  0.8089046976238521  0.7131250317065039  0.4447535705242986  1.0000
  H   H12       1.0  0.10243238444100912  0.823412056947859  0.5007918187699049  1.0000
  H   H13       1.0  0.747232239797505  0.09641668420709242  0.16137008974162373  1.0000
  H   H14       1.0  0.8088719831110609  0.23163790262636746  0.2868763685861566  1.0000
  H   H15       1.0  0.1023976269107365  0.1773816408275977  0.17659848459975086  1.0000
  H   H16       1.0  0.7472722833297212  0.5649426900659336  0.9035816697430407  1.0000
  H   H17       1.0  0.8088677822420608  0.5552392945751593  0.7683671703367738  1.0000
  H   H18       1.0  0.1024199694925656  0.4992074760548776  0.8226126468928713  1.0000
  C   C1        1.0  0.5254728139252691  0.41238096526858936  0.3243251439023569  1.0000
  C   C2        1.0  0.5255244709449728  0.41193725016386656  0.5876083814620828  1.0000
  C   C3        1.0  0.5255079877975107  0.6756572755802707  0.5880447334527616  1.0000
  C   C4        1.0  0.35794779428599105  0.8629092130584155  0.7561479371512194  1.0000
  C   C5        1.0  0.34627292332665155  0.9818172215570583  0.8160857601233289  1.0000
  C   C6        1.0  0.5018559544396054  0.04502053815260615  0.7726783749528963  1.0000
  C   C7        1.0  0.662290893933772  0.984655600723464  0.6672531547524232  1.0000
  C   C8        1.0  0.6727518702932543  0.8650290884759358  0.6047797704869569  1.0000
  C   C9        1.0  0.521843962795444  0.8038884482504612  0.6511965636387488  1.0000
  C   C10       1.0  0.6622834517645373  0.1825926836970311  0.015339376380012495  1.0000
  C   C11       1.0  0.6727083413973532  0.23974863763488943  0.13496536287980385  1.0000
  C   C12       1.0  0.5217912069413301  0.34730549503196073  0.1960960945121216  1.0000
  C   C13       1.0  0.3578954754519828  0.39323015361576813  0.13706457669538719  1.0000
  C   C14       1.0  0.3462617528344865  0.3342603190534348  0.018158833328314587  1.0000
  C   C15       1.0  0.5018343467892167  0.22764780338528823  0.954964858455078  1.0000
  C   C16       1.0  0.6622812580293812  0.33274368612529776  0.8174067594411272  1.0000
  C   C17       1.0  0.6727201037792981  0.3952159273195619  0.7602482811092913  1.0000
  C   C18       1.0  0.521837026594163  0.3487854681084315  0.6526860409201944  1.0000
  C   C19       1.0  0.3579324164927442  0.24382921620409806  0.6067581217722734  1.0000
  C   C20       1.0  0.3462580260031133  0.18389215285096586  0.6657261270514213  1.0000
  C   C21       1.0  0.5018407762747898  0.22731101876318863  0.772344035540165  1.0000
  C   C22       1.0  0.840397987775326  0.8063183193790735  0.49009019051694497  1.0000
  C   C23       1.0  0.8403668766899417  0.1837739818560635  0.19368507861942422  1.0000
  C   C24       1.0  0.8403853618759671  0.5099082607398272  0.8162257701090496  1.0000
  N   N1        1.0  0.49394616230209454  0.1666593449330307  0.8333294663673385  1.0000
  O   O1        1.0  0.7618046576838893  0.626101911436102  0.606996827909356  1.0000
  O   O2        1.0  0.7617741532062114  0.4808920829730781  0.37388151665025765  1.0000
  O   O3        1.0  0.7618204271923547  0.39297634259457226  0.5190990414205388  1.0000
  O   O4        1.0  0.290979775448875  0.6248479170361207  0.519542128215548  1.0000
  O   O5        1.0  0.29098955889276823  0.48044018193255056  0.6052919601655021  1.0000
  O   O6        1.0  0.2909461028473147  0.3946959819565025  0.37514165118172843  1.0000
