data_image0
_chemical_formula_structural       K4H32C32N4O8
_chemical_formula_sum              "K4 H32 C32 N4 O8"
_cell_length_a       6.984019695034538
_cell_length_b       8.658002927332697
_cell_length_c       14.438066315864154
_cell_angle_alpha    103.17292710040056
_cell_angle_beta     90.00033875977805
_cell_angle_gamma    89.99980249517033

_space_group_name_H-M_alt    "P 1"
_space_group_IT_number       1

loop_
  _space_group_symop_operation_xyz
  'x, y, z'

loop_
  _atom_site_type_symbol
  _atom_site_label
  _atom_site_symmetry_multiplicity
  _atom_site_fract_x
  _atom_site_fract_y
  _atom_site_fract_z
  _atom_site_occupancy
  K   K1        1.0  0.36256442980913317  0.7958118025466662  0.44388372192744197  1.0000
  K   K2        1.0  0.8625667655665551  0.7041883295746558  0.5561154512689157  1.0000
  K   K3        1.0  0.6374367368668814  0.20418517292387156  0.5561172893901373  1.0000
  K   K4        1.0  0.137432969270499  0.2958110117181435  0.4438865836313327  1.0000
  H   H1        1.0  0.5267706817437485  0.42725880246336356  0.7763925154495084  1.0000
  H   H2        1.0  0.026769465240953097  0.07274591037630533  0.2236094633453973  1.0000
  H   H3        1.0  0.47322905308602964  0.5727429177915795  0.22360915962533312  1.0000
  H   H4        1.0  0.9732288377498647  0.9272581757009067  0.7763932353121136  1.0000
  H   H5        1.0  0.6176704283294328  0.5566202975632635  0.7189849926391645  1.0000
  H   H6        1.0  0.1176740611976683  0.9433826331742738  0.2810152563429611  1.0000
  H   H7        1.0  0.3823264428157458  0.44338142926482493  0.28101599072695654  1.0000
  H   H8        1.0  0.8823299691453669  0.05662146603895481  0.7189860589120798  1.0000
  H   H9        1.0  0.2549394468731663  0.4000969601151  0.6569906497340839  1.0000
  H   H10       1.0  0.7549381875672195  0.09989907284698772  0.3430073047872995  1.0000
  H   H11       1.0  0.7450574242777749  0.5999035739466265  0.3430108593972321  1.0000
  H   H12       1.0  0.24505868357552174  0.9000979223391355  0.6569916314097456  1.0000
  H   H13       1.0  0.4582223601149095  0.7593833895183199  0.8259397659357008  1.0000
  H   H14       1.0  0.958224160565578  0.7406177834606498  0.17405705617674985  1.0000
  H   H15       1.0  0.5417759428704514  0.24061833730848298  0.17406121743229622  1.0000
  H   H16       1.0  0.0417827334365839  0.2593863486029022  0.8259408005571487  1.0000
  H   H17       1.0  0.2717771836928975  0.9222950209768186  0.9579598910091249  1.0000
  H   H18       1.0  0.7717880861117409  0.5777017482847526  0.04203508877635899  1.0000
  H   H19       1.0  0.7282096645610353  0.07770790519720092  0.04203987487374411  1.0000
  H   H20       1.0  0.22822596711161944  0.4222964330817405  0.9579640133828988  1.0000
  H   H21       1.0  0.9278380403817721  0.8567162394441823  0.9806046245402484  1.0000
  H   H22       1.0  0.42784404684293526  0.6432790702061126  0.019389905124548107  1.0000
  H   H23       1.0  0.0721502397011093  0.14328552024450406  0.019392900289780406  1.0000
  H   H24       1.0  0.5721642790257633  0.3567143663823984  0.9806085332680967  1.0000
  H   H25       1.0  0.773453942866908  0.6341226198377896  0.8661224749271668  1.0000
  H   H26       1.0  0.273460401104522  0.865874159560633  0.1338711258211731  1.0000
  H   H27       1.0  0.22653576905189962  0.36587914642019115  0.13387435819975482  1.0000
  H   H28       1.0  0.7265493566070945  0.13412045665179312  0.8661281702181044  1.0000
  H   H29       1.0  0.9626238907453768  0.4719943003645212  0.7310410997929608  1.0000
  H   H30       1.0  0.4626291473307447  0.028002592172647698  0.26895272107991275  1.0000
  H   H31       1.0  0.0373715485441508  0.5280062665513868  0.26895695081160653  1.0000
  H   H32       1.0  0.5373763148573046  0.971994396435193  0.7310469068333206  1.0000
  C   C1        1.0  0.35714491083290056  0.6045030562050828  0.6105883138682487  1.0000
  C   C2        1.0  0.8571443907129179  0.8954947263916181  0.3894091298825657  1.0000
  C   C3        1.0  0.642853392162465  0.39549747128478435  0.389413886969912  1.0000
  C   C4        1.0  0.1428582077975165  0.10450344184399542  0.6105913556716944  1.0000
  C   C5        1.0  0.33844146377756357  0.5068300487817226  0.6878792857466892  1.0000
  C   C6        1.0  0.8384424449826825  0.9931677476579495  0.3121201842796495  1.0000
  C   C7        1.0  0.6615554073876312  0.493169279372488  0.3121241325597738  1.0000
  C   C8        1.0  0.16156158537065576  0.006831600201579102  0.6878811589212361  1.0000
  C   C9        1.0  0.2226574298422435  0.6052956568877903  0.7696146852354532  1.0000
  C   C10       1.0  0.7226606943566268  0.8947011742246006  0.2303829330907874  1.0000
  C   C11       1.0  0.7773365776171134  0.3947037106924611  0.2303845828374094  1.0000
  C   C12       1.0  0.27734619967433366  0.10529699400716203  0.7696175524690718  1.0000
  C   C13       1.0  0.30784202445450864  0.7317454558523552  0.83442131699303  1.0000
  C   C14       1.0  0.8078421714299325  0.768251222432227  0.16557652377645132  1.0000
  C   C15       1.0  0.6921577103770813  0.268251526190042  0.16557900261769734  1.0000
  C   C16       1.0  0.19216472259253686  0.2317469589406826  0.8344225783734631  1.0000
  C   C17       1.0  0.20231423248884536  0.8235532924029132  0.9090610045333066  1.0000
  C   C18       1.0  0.7023224485857894  0.676440023186224  0.090935371151744  1.0000
  C   C19       1.0  0.7976783431218449  0.17644608831978556  0.0909368801277353  1.0000
  C   C20       1.0  0.2976844454381933  0.32355697199091077  0.9090635650583823  1.0000
  C   C21       1.0  0.009783422099523898  0.7884232630977693  0.9208835672114901  1.0000
  C   C22       1.0  0.5097884800012055  0.7115704373392832  0.0791081554730795  1.0000
  C   C23       1.0  0.9902091534884221  0.2115773366735993  0.07911102486446  1.0000
  C   C24       1.0  0.4902198458559752  0.2884253847819451  0.9208892313891824  1.0000
  C   C25       1.0  0.9233016248620344  0.6624139451840564  0.8563782474289141  1.0000
  C   C26       1.0  0.42330832298619475  0.8375837581371641  0.1436152188602051  1.0000
  C   C27       1.0  0.07668808706102229  0.3375878145033512  0.14361927740298341  1.0000
  C   C28       1.0  0.5767014347196592  0.162412050841624  0.8563835514138773  1.0000
  C   C29       1.0  0.0284814275209797  0.5720277020212947  0.7808492710508476  1.0000
  C   C30       1.0  0.5284858444937796  0.9279683372615966  0.2191428323395996  1.0000
  C   C31       1.0  0.9715140117643061  0.42797287146519386  0.21914808784874404  1.0000
  C   C32       1.0  0.4715224813661293  0.0720286644848329  0.7808554121674194  1.0000
  N   N1        1.0  0.5299102477569376  0.4602475507398013  0.7127922280466025  1.0000
  N   N2        1.0  0.0299128139283695  0.039755970267961516  0.2872095930119799  1.0000
  N   N3        1.0  0.4700851915565564  0.5397541629484123  0.2872101387276018  1.0000
  N   N4        1.0  0.9700897845829887  0.9602481158053923  0.7127931056511443  1.0000
  O   O1        1.0  0.21929416096163837  0.5942725247816653  0.5519835898086924  1.0000
  O   O2        1.0  0.7192971780813052  0.9057290505775628  0.4480153751986436  1.0000
  O   O3        1.0  0.7807055738778602  0.40573154815309925  0.44802049226063906  1.0000
  O   O4        1.0  0.28070542042336644  0.09427031042440602  0.5519845845904143  1.0000
  O   O5        1.0  0.5039513163746534  0.6911531832923502  0.6133487108285252  1.0000
  O   O6        1.0  0.0039525201544137  0.8088428408679535  0.38664955384565763  1.0000
  O   O7        1.0  0.4960455547817517  0.3088497100197856  0.3866545135923118  1.0000
  O   O8        1.0  0.9960515101989315  0.1911565069915753  0.6133517893552209  1.0000
