data_image0
_chemical_formula_structural       K8Be4H24C32O36
_chemical_formula_sum              "K8 Be4 H24 C32 O36"
_cell_length_a       8.062761596001028
_cell_length_b       12.614986459011488
_cell_length_c       12.855147619010035
_cell_angle_alpha    89.99985666298815
_cell_angle_beta     89.99999764573305
_cell_angle_gamma    89.99994225488905

_space_group_name_H-M_alt    "P 1"
_space_group_IT_number       1

loop_
  _space_group_symop_operation_xyz
  'x, y, z'

loop_
  _atom_site_type_symbol
  _atom_site_label
  _atom_site_symmetry_multiplicity
  _atom_site_fract_x
  _atom_site_fract_y
  _atom_site_fract_z
  _atom_site_occupancy
  K   K1        1.0  0.9477874601606048  0.856127037982432  0.9433517736679277  1.0000
  K   K2        1.0  0.5522151190872793  0.14387432020706828  0.9433580997084476  1.0000
  K   K3        1.0  0.552211243018263  0.3561263285369163  0.5566473826872738  1.0000
  K   K4        1.0  0.9477876390192536  0.6438728435109905  0.5566462457235488  1.0000
  K   K5        1.0  0.05221152430567601  0.14387402504158328  0.05664639095707  1.0000
  K   K6        1.0  0.44778510564871976  0.8561267428115965  0.05664395440901159  1.0000
  K   K7        1.0  0.44778774144854344  0.6438739417751904  0.44335389353268073  1.0000
  K   K8        1.0  0.052210105179632614  0.3561250486796652  0.4433534747023486  1.0000
  Be  Be1       1.0  0.24999992741482663  5.409097880999995e-07  0.7570469234719326  1.0000
  Be  Be2       1.0  0.250000774577238  0.5000003028482637  0.7429531219562974  1.0000
  Be  Be3       1.0  0.7500002973218685  0.9999997294039031  0.2429527969510161  1.0000
  Be  Be4       1.0  0.7499994501594074  0.4999999674634451  0.2570481542636429  1.0000
  H   H1        1.0  0.9574001145832797  0.15581128626069327  0.5502175143114911  1.0000
  H   H2        1.0  0.5426012483862194  0.8441879021576564  0.5502174519586944  1.0000
  H   H3        1.0  0.5426001441906294  0.6558130334953062  0.9497813564878541  1.0000
  H   H4        1.0  0.9573999541260535  0.3441875156227425  0.9497817337406502  1.0000
  H   H5        1.0  0.042600110154055  0.8441881913460416  0.4497814282139315  1.0000
  H   H6        1.0  0.4573952555422807  0.155810782744318  0.4497799347707597  1.0000
  H   H7        1.0  0.4573951194647989  0.34418961494183953  0.0502199197292228  1.0000
  H   H8        1.0  0.0426052316911765  0.655811169271473  0.050219542481166  1.0000
  H   H9        1.0  0.784593350915202  0.10908103170962136  0.6891696929851392  1.0000
  H   H10       1.0  0.7154080035748932  0.8909185955968365  0.6891702889157472  1.0000
  H   H11       1.0  0.7154082216906518  0.6090806431318112  0.8108300705711855  1.0000
  H   H12       1.0  0.7845931253758281  0.3909186743868175  0.8108303377230754  1.0000
  H   H13       1.0  0.21540811409132493  0.8909192386036718  0.3108300274377882  1.0000
  H   H14       1.0  0.28458974062343867  0.10908008930473297  0.3108270978136929  1.0000
  H   H15       1.0  0.28459076277483325  0.39092121259322704  0.18917353934231326  1.0000
  H   H16       1.0  0.21540957990231396  0.6090792177982747  0.18917249429674138  1.0000
  H   H17       1.0  0.0393593921876132  0.6953766755282588  0.7779163105596894  1.0000
  H   H18       1.0  0.4606409145642303  0.30462304843307203  0.7779160070671763  1.0000
  H   H19       1.0  0.46064100225328997  0.19537607399023926  0.7220840325626199  1.0000
  H   H20       1.0  0.03935930790539291  0.8046237921384218  0.7220840675424967  1.0000
  H   H21       1.0  0.9606408325496716  0.30462280207650133  0.2220841877627251  1.0000
  H   H22       1.0  0.5393605504429219  0.6953764291722775  0.22208371335672436  1.0000
  H   H23       1.0  0.5393592224840235  0.8046234036155083  0.2779156878612952  1.0000
  H   H24       1.0  0.9606409168318992  0.19537568546633816  0.2779164307799178  1.0000
  C   C1        1.0  0.19993383738574275  0.15454627518389685  0.6237180435982738  1.0000
  C   C2        1.0  0.3000652385052974  0.8454538414172107  0.6237187489436523  1.0000
  C   C3        1.0  0.3000666213271543  0.6545472507337705  0.8762808440800356  1.0000
  C   C4        1.0  0.19993367942253573  0.3454522227574869  0.8762812253130576  1.0000
  C   C5        1.0  0.8000676276208056  0.8454539951303844  0.37628089892616146  1.0000
  C   C6        1.0  0.6999300251532931  0.15454484348219208  0.3762809714813073  1.0000
  C   C7        1.0  0.699931122867966  0.34545539770356726  0.1237196542385206  1.0000
  C   C8        1.0  0.8000690258569421  0.6545440840156758  0.12371849511472989  1.0000
  C   C9        1.0  0.017873404644440403  0.13334060455441224  0.6230226309096665  1.0000
  C   C10       1.0  0.4821256712859423  0.8666634773582439  0.6230225012178536  1.0000
  C   C11       1.0  0.48212708744947014  0.6333414608563571  0.8769763088890983  1.0000
  C   C12       1.0  0.0178732132571611  0.3666588035720152  0.8769766430140463  1.0000
  C   C13       1.0  0.9821280603621076  0.8666596657598687  0.3769763116147615  1.0000
  C   C14       1.0  0.5178708326418828  0.13333600024969167  0.3769764413076189  1.0000
  C   C15       1.0  0.5178731372828267  0.36666435841195966  0.12302418942552151  1.0000
  C   C16       1.0  0.9821282517537071  0.6333359177846629  0.12302385531419448  1.0000
  C   C17       1.0  0.9182758378180083  0.10518719031668407  0.7023916366679828  1.0000
  C   C18       1.0  0.5817217950558629  0.8948124033264333  0.7023898930140219  1.0000
  C   C19       1.0  0.581723260376947  0.6051877143756526  0.7976081364577184  1.0000
  C   C20       1.0  0.9182768472258617  0.39481242951882206  0.7976083903590236  1.0000
  C   C21       1.0  0.0817243869186868  0.8948130799970072  0.2976080837549588  1.0000
  C   C22       1.0  0.41827718941101477  0.10518786698865058  0.2976090495104415  1.0000
  C   C23       1.0  0.41827820462897597  0.3948133486465719  0.2023908060657362  1.0000
  C   C24       1.0  0.08172089697180242  0.6051870480887087  0.2023905521664346  1.0000
  C   C25       1.0  0.9610887303240362  0.07800745958285657  0.8120310172165474  1.0000
  C   C26       1.0  0.5389113763968683  0.9219950257115951  0.812029985832808  1.0000
  C   C27       1.0  0.5389104106562854  0.578007497738163  0.6879688227134011  1.0000
  C   C28       1.0  0.9610884633674247  0.42199213262744434  0.6879690086315478  1.0000
  C   C29       1.0  0.038911494412055  0.9219936034397731  0.1879679253069284  1.0000
  C   C30       1.0  0.4610900886096303  0.07800524460071047  0.18797051248861152  1.0000
  C   C31       1.0  0.46109229461760043  0.4219959434075021  0.3120301198071189  1.0000
  C   C32       1.0  0.0389105211025225  0.5780041741459314  0.3120314896947817  1.0000
  O   O1        1.0  0.2984671138753114  0.10211249799115046  0.6852490998219523  1.0000
  O   O2        1.0  0.20153319853032062  0.8978882546369105  0.6852512348026423  1.0000
  O   O3        1.0  0.20153342737731356  0.6021121083837142  0.8147499167322891  1.0000
  O   O4        1.0  0.29846687712692704  0.3978875217851651  0.8147509442726317  1.0000
  O   O5        1.0  0.7015331108608011  0.8978885650324668  0.3147490648030242  1.0000
  O   O6        1.0  0.7984657859358819  0.10211280838413467  0.3147492635178466  1.0000
  O   O7        1.0  0.798465557090111  0.3978873692204487  0.185251359488646  1.0000
  O   O8        1.0  0.7015345878801755  0.602111955818202  0.1852503319482679  1.0000
  O   O9        1.0  0.09818219296844431  0.028370717005088895  0.8336683367666211  1.0000
  O   O10       1.0  0.4018193506500439  0.971630450408419  0.8336679512898327  1.0000
  O   O11       1.0  0.40181846436522056  0.5283697833760711  0.6663324168313663  1.0000
  O   O12       1.0  0.09818184919603111  0.4716294320079583  0.6663317128431672  1.0000
  O   O13       1.0  0.9018205123054203  0.9716327241395888  0.16633138365239117  1.0000
  O   O14       1.0  0.598182114356483  0.028369819904874288  0.1663317691330946  1.0000
  O   O15       1.0  0.5981805200997173  0.4716328650598809  0.33366885938566077  1.0000
  O   O16       1.0  0.9018196158135938  0.5283668747646145  0.3336687854831268  1.0000
  O   O17       1.0  0.25178698418895357  0.22607316458712748  0.5644241979147537  1.0000
  O   O18       1.0  0.24821457585917978  0.7739278957019875  0.5644258583875796  1.0000
  O   O19       1.0  0.24821336193060967  0.7260732299072075  0.9355737360639436  1.0000
  O   O20       1.0  0.2517869352010464  0.2739260926031902  0.935575069567726  1.0000
  O   O21       1.0  0.7482144808176229  0.773927105728141  0.435573966711182  1.0000
  O   O22       1.0  0.751780687798167  0.22607237461330235  0.4355738620354329  1.0000
  O   O23       1.0  0.7517806614562802  0.2739278331164313  0.0644259843581096  1.0000
  O   O24       1.0  0.7482194908853971  0.726073384998578  0.0644262066531027  1.0000
  O   O25       1.0  0.8588284622777423  0.10083660006296206  0.8816513501734775  1.0000
  O   O26       1.0  0.6411728804641472  0.8991665006601931  0.8816519278805187  1.0000
  O   O27       1.0  0.6411718830358526  0.6008367495108331  0.6183476557472574  1.0000
  O   O28       1.0  0.8588294757751173  0.39916385083976264  0.6183486784895463  1.0000
  O   O29       1.0  0.1411717624595994  0.8991628775437802  0.1183475923519453  1.0000
  O   O30       1.0  0.3588273442725693  0.10083376965448561  0.11834701464393049  1.0000
  O   O31       1.0  0.35882958196813064  0.3991666916322598  0.38165362046876794  1.0000
  O   O32       1.0  0.14116950869289016  0.6008348340544739  0.3816541535293467  1.0000
  O   O33       1.0  0.9633827025037505  0.7500003320681966  0.7499997873790247  1.0000
  O   O34       1.0  0.5366174080040979  0.24999993305367946  0.7499996298190936  1.0000
  O   O35       1.0  0.036617522232937516  0.2499999382454944  0.24999993304391668  1.0000
  O   O36       1.0  0.4633828167326116  0.7500003372609994  0.2499993127053557  1.0000
