data_image0
_chemical_formula_structural       Zn2H34C34N8O14
_chemical_formula_sum              "Zn2 H34 C34 N8 O14"
_cell_length_a       9.560464371230703
_cell_length_b       10.870515051163265
_cell_length_c       18.97559025157435
_cell_angle_alpha    89.59816420675212
_cell_angle_beta     90.4750658683146
_cell_angle_gamma    89.2398035130735

_space_group_name_H-M_alt    "P 1"
_space_group_IT_number       1

loop_
  _space_group_symop_operation_xyz
  'x, y, z'

loop_
  _atom_site_type_symbol
  _atom_site_label
  _atom_site_symmetry_multiplicity
  _atom_site_fract_x
  _atom_site_fract_y
  _atom_site_fract_z
  _atom_site_occupancy
  Zn  Zn1       1.0  0.3536884433904319  0.4951845649585209  0.499202779105552  1.0000
  Zn  Zn2       1.0  0.6499315264872296  0.49094953020230747  0.5000060595818143  1.0000
  H   H1        1.0  0.27622736758023336  0.540980365448121  0.7197295389314818  1.0000
  H   H2        1.0  0.7247677294728021  0.541851392765146  0.7226318890187429  1.0000
  H   H3        1.0  0.2734711529747785  0.6000552798688048  0.847423087222488  1.0000
  H   H4        1.0  0.7234796531650788  0.5996267082044753  0.8504462296993509  1.0000
  H   H5        1.0  0.27646075558124744  0.5913749965188373  0.14854863360925924  1.0000
  H   H6        1.0  0.7268674352341266  0.595100453556938  0.15032255600190336  1.0000
  H   H7        1.0  0.27893379332873985  0.5354124582775555  0.2768655801703447  1.0000
  H   H8        1.0  0.7277208718243742  0.5365135387128176  0.2783745381085865  1.0000
  H   H9        1.0  0.2939123837286317  0.8746436035881757  0.44495624631722563  1.0000
  H   H10       1.0  0.7185464463903627  0.8958891140707905  0.5204446984504046  1.0000
  H   H11       1.0  0.4372193132268833  0.9055212389126411  0.3881353735670814  1.0000
  H   H12       1.0  0.6813585707473635  0.8711563283326456  0.4305588558044208  1.0000
  H   H13       1.0  0.28178267687790287  0.08184609723237202  0.4837752289208836  1.0000
  H   H14       1.0  0.7248022315656826  0.10531701677022197  0.49304136623066347  1.0000
  H   H15       1.0  0.40720559988575633  0.1252260227273538  0.5906505400443153  1.0000
  H   H16       1.0  0.5872264963706613  0.0866857507926113  0.5933706844379999  1.0000
  H   H17       1.0  0.8764509374683199  0.5775059628880257  0.5994463178182485  1.0000
  H   H18       1.0  0.1253802365221901  0.5740930238059363  0.6004391756661535  1.0000
  H   H19       1.0  0.8756916412775126  0.6793476249007355  0.5264347332179042  1.0000
  H   H20       1.0  0.12513511625930113  0.6792345541311774  0.529154030601866  1.0000
  H   H21       1.0  0.8812476008615137  0.357840866413447  0.5801148955939156  1.0000
  H   H22       1.0  0.1298192843891144  0.3579613910878549  0.5801771853177016  1.0000
  H   H23       1.0  0.8776241640477168  0.4407527395378922  0.3943529759728364  1.0000
  H   H24       1.0  0.125139759216907  0.4404818287566954  0.3948423065253124  1.0000
  H   H25       1.0  0.8751366932024567  0.6011465151173495  0.4089749977087821  1.0000
  H   H26       1.0  0.12329761151214312  0.6010449894303207  0.40896576386089123  1.0000
  H   H27       1.0  0.8815648850273591  0.30068349136061556  0.49297434753449215  1.0000
  H   H28       1.0  0.1285743084721602  0.3008956241525169  0.4926555938087702  1.0000
  H   H29       1.0  0.1900208222967237  0.06559853671912211  0.585824789694442  1.0000
  H   H30       1.0  0.2713307054216402  0.019923699011428698  0.6675180459490307  1.0000
  H   H31       1.0  0.1314528470008582  0.932323909989378  0.631793006743152  1.0000
  H   H32       1.0  0.41204392850069377  0.8559208536760822  0.7071571349879877  1.0000
  H   H33       1.0  0.5201537290303689  0.9903937455502073  0.7041300602479625  1.0000
  H   H34       1.0  0.595812374662124  0.8419098341454968  0.7224456365711092  1.0000
  C   C1        1.0  0.49671307989641633  0.7327513868680599  0.49969091692004514  1.0000
  C   C2        1.0  0.5034896337826495  0.5055442319122179  0.6370537119744739  1.0000
  C   C3        1.0  0.5043746184828706  0.25519443504693834  0.4928502915019521  1.0000
  C   C4        1.0  0.5022625037117122  0.5083320935389465  0.3627618516949909  1.0000
  C   C5        1.0  0.3734452852020809  0.5540486000136511  0.7489563261462706  1.0000
  C   C6        1.0  0.6267351594691418  0.5545487409565409  0.7506766472415407  1.0000
  C   C7        1.0  0.37178887064965943  0.5869191049604794  0.8196503813812086  1.0000
  C   C8        1.0  0.6260867882015972  0.5868273432865647  0.8213496218739281  1.0000
  C   C9        1.0  0.49833997305302097  0.6036118992285113  0.8564884285732006  1.0000
  C   C10       1.0  0.500715358792128  0.5375830104839423  0.7137967084028248  1.0000
  C   C11       1.0  0.4999009964600135  0.6310430499766754  0.06716181370300231  1.0000
  C   C12       1.0  0.49793976123663697  0.6339752450978793  0.9315828560786272  1.0000
  C   C13       1.0  0.3747488922964878  0.5796340631985826  0.17739481404574062  1.0000
  C   C14       1.0  0.6293006402292747  0.5813642618574022  0.17836557648997342  1.0000
  C   C15       1.0  0.37611950063578803  0.5486078046647477  0.2484451627436073  1.0000
  C   C16       1.0  0.629727975571342  0.5493244439790104  0.2493994138101741  1.0000
  C   C17       1.0  0.5032931528196656  0.5342808460838882  0.2851696348061239  1.0000
  C   C18       1.0  0.5015462428449027  0.5978168061541993  0.1419497939049634  1.0000
  C   C19       1.0  0.39348255954136846  0.9225678140668733  0.4406287299960923  1.0000
  C   C20       1.0  0.6449849980597121  0.9192085813261103  0.4776443759036225  1.0000
  C   C21       1.0  0.3722346538615042  0.061696119058297  0.450768347616318  1.0000
  C   C22       1.0  0.6428122478185473  0.05759556060604611  0.46345470753578166  1.0000
  C   C23       1.0  0.4567140041730013  0.9297122459034453  0.5692344395378512  1.0000
  C   C24       1.0  0.49814966565221397  0.8739703870764827  0.4966073236717605  1.0000
  C   C25       1.0  0.5031834305626646  0.1146263996077721  0.4874934934130978  1.0000
  C   C26       1.0  0.48854589810946447  0.06915737079399518  0.5655016249747434  1.0000
  C   C27       1.0  0.9200651447466014  0.5924933513630463  0.5468422716108138  1.0000
  C   C28       1.0  0.081914547046182  0.5919284870704827  0.5475862591588766  1.0000
  C   C29       1.0  0.9237675368051941  0.3723100742873201  0.5271834501449248  1.0000
  C   C30       1.0  0.0855235191338153  0.37227768901768604  0.5271201554912467  1.0000
  C   C31       1.0  0.9200285480656236  0.5133822259581748  0.4277601110554841  1.0000
  C   C32       1.0  0.08148468838138002  0.5135359317454372  0.4279518164099586  1.0000
  C   C33       1.0  0.22425039975500738  0.9858537506117245  0.6183929294758954  1.0000
  C   C34       1.0  0.5148561131179507  0.8913506340235315  0.6919077150329898  1.0000
  N   N1        1.0  0.6211984103628226  0.6546839338306256  0.9647964950088979  1.0000
  N   N2        1.0  0.3743593267891612  0.6513749202886743  0.9645729979479684  1.0000
  N   N3        1.0  0.6222777413747737  0.6533704074733889  0.0341489856075725  1.0000
  N   N4        1.0  0.375292249672647  0.650293082625474  0.03391669422433101  1.0000
  N   N5        1.0  0.8679063026574811  0.492519765235528  0.5006119752463222  1.0000
  N   N6        1.0  0.136195316660654  0.4929364382432053  0.5008951915834317  1.0000
  N   N7        1.0  0.3292998894452452  0.12120940179553939  0.38080131255613753  1.0000
  N   N8        1.0  0.6836347389548721  0.0913676403287553  0.3868372528615822  1.0000
  O   O1        1.0  0.3788466482281407  0.682213070065032  0.5065893875235687  1.0000
  O   O2        1.0  0.6140289032746438  0.6779697516538404  0.49371715611808753  1.0000
  O   O3        1.0  0.3871978506857445  0.481086487560475  0.6070578209223287  1.0000
  O   O4        1.0  0.622403946401299  0.5066121702463349  0.6074517385648761  1.0000
  O   O5        1.0  0.3871169112966015  0.3090953918031403  0.4841752241348943  1.0000
  O   O6        1.0  0.6185491988352255  0.3036626881941373  0.5111865727686721  1.0000
  O   O7        1.0  0.3839981118446332  0.5156059387330032  0.39289627339565675  1.0000
  O   O8        1.0  0.618756716260144  0.48419298379402403  0.3931691443056096  1.0000
  O   O9        1.0  0.2115736146029477  0.17010167751247  0.3779575292426927  1.0000
  O   O10       1.0  0.41122996408468987  0.1128067065044576  0.33112270602660493  1.0000
  O   O11       1.0  0.6772520358345133  0.20175794695740729  0.3715314086863658  1.0000
  O   O12       1.0  0.7277271194466977  0.0091210484530535  0.3480831560824029  1.0000
  O   O13       1.0  0.31262791904603665  0.9031279863403442  0.5806727665040796  1.0000
  O   O14       1.0  0.5434645524496845  0.8672723154798517  0.6195798363273042  1.0000
