data_image0
_chemical_formula_structural       La2H40C50N10Cl6
_chemical_formula_sum              "La2 H40 C50 N10 Cl6"
_cell_length_a       13.313031409230675
_cell_length_b       13.34990700673862
_cell_length_c       13.721690171832075
_cell_angle_alpha    78.89454771492622
_cell_angle_beta     65.70443050166185
_cell_angle_gamma    65.14512260352626

_space_group_name_H-M_alt    "P 1"
_space_group_IT_number       1

loop_
  _space_group_symop_operation_xyz
  'x, y, z'

loop_
  _atom_site_type_symbol
  _atom_site_label
  _atom_site_symmetry_multiplicity
  _atom_site_fract_x
  _atom_site_fract_y
  _atom_site_fract_z
  _atom_site_occupancy
  La  La1       1.0  0.4799731673017647  0.0812752951102809  0.3389097759593013  1.0000
  La  La2       1.0  0.5200351591355669  0.918714273312375  0.6610958507279179  1.0000
  H   H1        1.0  0.1399550816157884  0.4722760091505336  0.5786632002441152  1.0000
  H   H2        1.0  0.3301357284702675  0.3163569936591841  0.50012540567662  1.0000
  H   H3        1.0  0.645924851400558  0.17590197900198487  0.09680595604712022  1.0000
  H   H4        1.0  0.8434582458982263  0.16595167230716615  0.9737871068003939  1.0000
  H   H5        1.0  0.5951469018098834  0.6581562061438647  0.9638617504972516  1.0000
  H   H6        1.0  0.5696049542943412  0.9512373552649932  0.099391279182008  1.0000
  H   H7        1.0  0.9890388666603089  0.8493910569328091  0.12335346321773955  1.0000
  H   H8        1.0  0.2798315974980595  0.9739183777098932  0.5624376089806447  1.0000
  H   H9        1.0  0.5122005424455124  0.6381679555052742  0.33615978961123727  1.0000
  H   H10       1.0  0.7824774952224445  0.8759587377577347  0.2434398174711136  1.0000
  H   H11       1.0  0.48061760691788896  0.8105972732291349  0.4043411703249974  1.0000
  H   H12       1.0  0.5979782213579342  0.4841097059536494  0.26518875800584146  1.0000
  H   H13       1.0  0.6109710511106669  0.7827762169055958  0.0166285776520568  1.0000
  H   H14       1.0  0.0883383271779791  0.9531457764519473  0.6309897883621219  1.0000
  H   H15       1.0  0.6500035919731746  0.31497573258542383  0.1803322542735231  1.0000
  H   H16       1.0  0.018676902540356383  0.40692228022236065  0.35782554438588937  1.0000
  H   H17       1.0  0.6517407833422341  0.4793579377523898  0.8906841230061175  1.0000
  H   H18       1.0  0.2153354045690108  0.2560967597414674  0.2880787763971142  1.0000
  H   H19       1.0  0.2690329170779365  0.065946066332522  0.2598332617689394  1.0000
  H   H20       1.0  0.0748979957370395  0.049692135659000804  0.31488141707146877  1.0000
  H   H21       1.0  0.8600771133068504  0.5277334892438788  0.42132983857398204  1.0000
  H   H22       1.0  0.6699076568949779  0.6836574401245841  0.49986801955067517  1.0000
  H   H23       1.0  0.35407381742582805  0.824096753572583  0.9031931900292705  1.0000
  H   H24       1.0  0.156541086264326  0.8340553501692229  0.026208809301770924  1.0000
  H   H25       1.0  0.4048300943256038  0.34185667624284843  0.036129065571877624  1.0000
  H   H26       1.0  0.4304069420998218  0.0487613755718144  0.9006068622794673  1.0000
  H   H27       1.0  0.010965504423623408  0.1506135898232372  0.8766335464368424  1.0000
  H   H28       1.0  0.7201522415371643  0.0260943148886241  0.4375686803078621  1.0000
  H   H29       1.0  0.48779254872220446  0.3618364501817198  0.6638486131101544  1.0000
  H   H30       1.0  0.21752986077654413  0.12404087193591098  0.7565541799845334  1.0000
  H   H31       1.0  0.5194011248543191  0.18940480876594992  0.595652126966037  1.0000
  H   H32       1.0  0.40198300441014834  0.5159014627670757  0.7348087804664232  1.0000
  H   H33       1.0  0.3890176849924956  0.21722660455031934  0.9833745944896891  1.0000
  H   H34       1.0  0.9116410306821195  0.046875901461547194  0.3690247114114057  1.0000
  H   H35       1.0  0.349956563160532  0.6850379476350598  0.8196623489092404  1.0000
  H   H36       1.0  0.9813581681332977  0.5930764261052843  0.6421726544002838  1.0000
  H   H37       1.0  0.34824002554638156  0.5206557515603195  0.10930791199542966  1.0000
  H   H38       1.0  0.7846985369316856  0.7438968939657471  0.7119280856828709  1.0000
  H   H39       1.0  0.7309531617330335  0.9340312111597201  0.7401668747245155  1.0000
  H   H40       1.0  0.9250989514183063  0.9502669627454523  0.6851197822626175  1.0000
  C   C1        1.0  0.15046212504195472  0.4267980050855371  0.5149743290106131  1.0000
  C   C2        1.0  0.5673873887670523  0.6921842310912183  0.16848646117665575  1.0000
  C   C3        1.0  0.9385431158090398  0.0055580112340436  0.03608389089559698  1.0000
  C   C4        1.0  0.05841044942033593  0.45432959830687025  0.4773085616202835  1.0000
  C   C5        1.0  0.2580268022447568  0.33912667148057113  0.47143562589307214  1.0000
  C   C6        1.0  0.7242348087632422  0.10472293073529221  0.10131867330022708  1.0000
  C   C7        1.0  0.5939567094095536  0.588422570006955  0.12198551915958701  1.0000
  C   C8        1.0  0.8376187419046135  0.09751430218560841  0.030738088830524573  1.0000
  C   C9        1.0  0.6087632349607759  0.584155084684383  0.015132537560852359  1.0000
  C   C10       1.0  0.560156118158659  0.8788461616301505  0.1489151730521244  1.0000
  C   C11       1.0  0.9165695278883634  0.9240256931915951  0.11390542811292907  1.0000
  C   C12       1.0  0.23088478899746415  0.9921066830968643  0.5101084776863019  1.0000
  C   C13       1.0  0.5283934555111927  0.7040820227775627  0.2792532995401587  1.0000
  C   C14       1.0  0.8003452128478726  0.9378132932466201  0.18150821375221687  1.0000
  C   C15       1.0  0.059164587812908606  0.0035926289354434996  0.4806390756534356  1.0000
  C   C16       1.0  0.5090631063482859  0.8018286215235836  0.3184744245047994  1.0000
  C   C17       1.0  0.6084816342598885  0.4887358111956956  0.18156359053191545  1.0000
  C   C18       1.0  0.5826543056811176  0.7836143974957538  0.10317272897039241  1.0000
  C   C19       1.0  0.12215291379021663  0.980287147649719  0.548117360739397  1.0000
  C   C20       1.0  0.6395186567940384  0.3919204601349123  0.13290693117303942  1.0000
  C   C21       1.0  0.08352899565644387  0.390770508799477  0.3936217073117732  1.0000
  C   C22       1.0  0.6402076053034379  0.48306371390406616  0.973751260043123  1.0000
  C   C23       1.0  0.1936017823247198  0.30480103496084615  0.3543887206507392  1.0000
  C   C24       1.0  0.2243270970881568  0.0427109060788808  0.3422283523906842  1.0000
  C   C25       1.0  0.1151526278768387  0.0331971889296909  0.3740497310227724  1.0000
  C   C26       1.0  0.8495659403578486  0.5732056454613002  0.4850250929100141  1.0000
  C   C27       1.0  0.43259948512721275  0.3078210729911249  0.8315162892550775  1.0000
  C   C28       1.0  0.06146153790886183  0.9944481698460806  0.9639129294726061  1.0000
  C   C29       1.0  0.9416241209727262  0.5456566060259007  0.5227001238604245  1.0000
  C   C30       1.0  0.7420073554562167  0.660876183717818  0.5285607343934943  1.0000
  C   C31       1.0  0.27576193894224593  0.8952824106863275  0.8986800559489224  1.0000
  C   C32       1.0  0.4060163407139683  0.411591925605471  0.8780087953524927  1.0000
  C   C33       1.0  0.1623781009764187  0.90249272813044  0.9692573802466669  1.0000
  C   C34       1.0  0.39121376474884784  0.4158618723995033  0.9848626403529223  1.0000
  C   C35       1.0  0.43984845763827707  0.12115423868387859  0.8510819979640161  1.0000
  C   C36       1.0  0.0834354375787782  0.07597968793332652  0.8860892239904317  1.0000
  C   C37       1.0  0.7691006662496493  0.0078961173253802  0.4898967610099518  1.0000
  C   C38       1.0  0.47160279693417095  0.29591665752597157  0.7207504826334202  1.0000
  C   C39       1.0  0.1996580222228772  0.062190384173412404  0.818491094880514  1.0000
  C   C40       1.0  0.9408294838994707  0.9963894942145544  0.5193693230862096  1.0000
  C   C41       1.0  0.4909494552017932  0.19816847505384766  0.6815222850682333  1.0000
  C   C42       1.0  0.3914813739763687  0.5112770182937113  0.818432922212537  1.0000
  C   C43       1.0  0.4173352532396493  0.21638842707176315  0.8968301080728126  1.0000
  C   C44       1.0  0.8778290752702136  0.019718094826771407  0.4518910310851751  1.0000
  C   C45       1.0  0.3604444674464772  0.6080940410744446  0.8670877737200656  1.0000
  C   C46       1.0  0.9164999259972006  0.6092115045952154  0.6063929497775433  1.0000
  C   C47       1.0  0.3597710677103266  0.5169491489441356  0.026241064309843437  1.0000
  C   C48       1.0  0.8064234357398451  0.6951859265122167  0.6456265453391552  1.0000
  C   C49       1.0  0.7756651365101205  0.9572655245414695  0.6577730794305694  1.0000
  C   C50       1.0  0.8848444751204386  0.9667734710069594  0.625950767015439  1.0000
  N   N1        1.0  0.7043193945030737  0.027093744724645298  0.17713196232949013  1.0000
  N   N2        1.0  0.52465139492584  0.8889606151977817  0.25490527868140583  1.0000
  N   N3        1.0  0.27997397216022074  0.27707843164072443  0.3930003182622031  1.0000
  N   N4        1.0  0.2810537187528439  0.025714205182801198  0.4093257803515656  1.0000
  N   N5        1.0  0.6571902168241978  0.3870181420404962  0.029875728129233843  1.0000
  N   N6        1.0  0.2956830073357181  0.9729099381710216  0.822866955241473  1.0000
  N   N7        1.0  0.4753631656661029  0.11103565329868557  0.7450914970709306  1.0000
  N   N8        1.0  0.7200550360089937  0.7229192780940252  0.6070129162537156  1.0000
  N   N9        1.0  0.7189341130376193  0.9742787576982367  0.5906737156920131  1.0000
  N   N10       1.0  0.3427855822583011  0.6129955887132682  0.9701132343414258  1.0000
  Cl  Cl1       1.0  0.627595092283727  0.8986640367328533  0.42926821123879927  1.0000
  Cl  Cl2       1.0  0.42934546027765924  0.15850991761834624  0.1553557221758837  1.0000
  Cl  Cl3       1.0  0.5763679400951957  0.21549428369704066  0.3666633199835942  1.0000
  Cl  Cl4       1.0  0.3724241437819914  0.10131900859386891  0.5707297892297589  1.0000
  Cl  Cl5       1.0  0.5706556253031677  0.8414771768864214  0.8446503815038324  1.0000
  Cl  Cl6       1.0  0.42365193345749935  0.784491227829207  0.6333354319602407  1.0000
