data_image0
_chemical_formula_structural       Cd4H32C36N8Cl8
_chemical_formula_sum              "Cd4 H32 C36 N8 Cl8"
_cell_length_a       7.352267712743681
_cell_length_b       12.376429256305393
_cell_length_c       12.376330624285904
_cell_angle_alpha    80.74399014967871
_cell_angle_beta     81.38662368025864
_cell_angle_gamma    81.38882188269815

_space_group_name_H-M_alt    "P 1"
_space_group_IT_number       1

loop_
  _space_group_symop_operation_xyz
  'x, y, z'

loop_
  _atom_site_type_symbol
  _atom_site_label
  _atom_site_symmetry_multiplicity
  _atom_site_fract_x
  _atom_site_fract_y
  _atom_site_fract_z
  _atom_site_occupancy
  Cd  Cd1       1.0  0.45137417830944354  0.7334903453279646  0.34607417036636423  1.0000
  Cd  Cd2       1.0  0.04864419244511005  0.6539333098143487  0.266523772115228  1.0000
  Cd  Cd3       1.0  0.5486300637522492  0.2665099065901231  0.6539375001048028  1.0000
  Cd  Cd4       1.0  0.9513629978792153  0.3460496901536274  0.7334821341111776  1.0000
  H   H1        1.0  0.5772330561561816  0.6147153086860938  0.5560034517860402  1.0000
  H   H2        1.0  0.9227599277235967  0.4440015388484184  0.38528285268571233  1.0000
  H   H3        1.0  0.4227458161534373  0.38529923084100653  0.4440223388051904  1.0000
  H   H4        1.0  0.07726342361263512  0.5559703656814322  0.6147061408510837  1.0000
  H   H5        1.0  0.7181101614767587  0.7043261498985558  0.4938193218246312  1.0000
  H   H6        1.0  0.7819048488008564  0.5061918851864319  0.29567247074813  1.0000
  H   H7        1.0  0.281865209737532  0.29569160081386764  0.506209566342825  1.0000
  H   H8        1.0  0.21812734831210887  0.4937777020493359  0.704315178214699  1.0000
  H   H9        1.0  0.6000844472681806  0.679798586233659  0.7333749762210428  1.0000
  H   H10       1.0  0.8999472458000569  0.2666326965880971  0.3201923128344858  1.0000
  H   H11       1.0  0.39987236962389977  0.320231339151114  0.2666482715387701  1.0000
  H   H12       1.0  0.10008692118266545  0.7333429493848058  0.6797772483683531  1.0000
  H   H13       1.0  0.4524012633219386  0.8160944841133857  0.8582649310872624  1.0000
  H   H14       1.0  0.04763425217412022  0.1417579099670903  0.18388516655273424  1.0000
  H   H15       1.0  0.5475160303638945  0.1839424001595377  0.141745063419492  1.0000
  H   H16       1.0  0.9524237088138391  0.8582314606731672  0.816077503770593  1.0000
  H   H17       1.0  0.2678143322621978  0.9908154400240647  0.7837227623253894  1.0000
  H   H18       1.0  0.2322024436906248  0.2163182968605284  0.009162542568382993  1.0000
  H   H19       1.0  0.7320824817529328  0.009208817830163694  0.21627746010937435  1.0000
  H   H20       1.0  0.7678684669210442  0.7836810669616909  0.990811862379999  1.0000
  H   H21       1.0  0.13927261785772063  0.1101717863679994  0.6219013305456541  1.0000
  H   H22       1.0  0.36074947797882834  0.3781493039432391  0.8898087140147763  1.0000
  H   H23       1.0  0.860629214845517  0.8898369987122906  0.3780861847714475  1.0000
  H   H24       1.0  0.6393335950671429  0.6218583284267255  0.11018180682101789  1.0000
  H   H25       1.0  0.10826101879504792  0.1380855716871068  0.4212891478715334  1.0000
  H   H26       1.0  0.39174920159904775  0.578761740589158  0.8619096408454251  1.0000
  H   H27       1.0  0.8916876198559223  0.8619124814337552  0.5786928729933293  1.0000
  H   H28       1.0  0.6083116579360067  0.42124859827825395  0.13809886254987444  1.0000
  H   H29       1.0  0.24233564360960716  0.98423321156627  0.30934236590358916  1.0000
  H   H30       1.0  0.2576732815589936  0.6906938689489052  0.015776729591358733  1.0000
  H   H31       1.0  0.7576474178308745  0.0157611488441702  0.6906496922777376  1.0000
  H   H32       1.0  0.7423695672287921  0.30930198896545147  0.9842406236787437  1.0000
  C   C1        1.0  0.49248123675565153  0.7711367342170944  0.5900851932372786  1.0000
  C   C2        1.0  0.007533275348265526  0.4099256484525283  0.22885840324804718  1.0000
  C   C3        1.0  0.5074729931644055  0.22887586045713698  0.4099312411083955  1.0000
  C   C4        1.0  0.9925156386501331  0.5900491303489588  0.7711332477802698  1.0000
  C   C5        1.0  0.5138118120652565  0.7539663460969165  0.7010545836098742  1.0000
  C   C6        1.0  0.9862179812550665  0.2989604125128054  0.2460239191852338  1.0000
  C   C7        1.0  0.48613466783551473  0.24606017120145654  0.2989629436502596  1.0000
  C   C8        1.0  0.01383298881818727  0.7010203951528099  0.7539520645712796  1.0000
  C   C9        1.0  0.43040693472449476  0.8317354849734788  0.7716023197666284  1.0000
  C   C10       1.0  0.06962680748324603  0.2284202942720626  0.1682485351391279  1.0000
  C   C11       1.0  0.5695218899089622  0.1682941561434816  0.2284068070229139  1.0000
  C   C12       1.0  0.9304287594427906  0.7715689075382954  0.8317240993816597  1.0000
  C   C13       1.0  0.32706491520465863  0.9281503097606321  0.7311851073266097  1.0000
  C   C14       1.0  0.1729566628958494  0.26884734144480404  0.07183294235804279  1.0000
  C   C15       1.0  0.6728430017734723  0.0718691005416972  0.2688203930365631  1.0000
  C   C16       1.0  0.827115110484563  0.7311444822932386  0.9281497921459019  1.0000
  C   C17       1.0  0.3012370622817785  0.9487890447833465  0.6180756908162975  1.0000
  C   C18       1.0  0.19877874632494758  0.38195909602965367  0.0512006670401064  1.0000
  C   C19       1.0  0.6986888449098956  0.051219135427118076  0.38192566500524794  1.0000
  C   C20       1.0  0.8012917075332666  0.6180341839360323  0.9487957186928991  1.0000
  C   C21       1.0  0.20135802100357844  0.0472922770712216  0.5702109146216897  1.0000
  C   C22       1.0  0.29865641135221926  0.4298321205192935  0.9526925233648879  1.0000
  C   C23       1.0  0.798564396402533  0.9527126183975554  0.42978401508841557  1.0000
  C   C24       1.0  0.7014136863758512  0.5701677748654177  0.04730370410302244  1.0000
  C   C25       1.0  0.1839623008956508  0.0627163826224759  0.45929640147236467  1.0000
  C   C26       1.0  0.31604320945318426  0.540749045470129  0.9372783985285904  1.0000
  C   C27       1.0  0.8159737859455659  0.9372837743782936  0.5406986829450631  1.0000
  C   C28       1.0  0.6840228480134628  0.4592515014195442  0.06272621760382438  1.0000
  C   C29       1.0  0.2605350858046194  0.9780358913541889  0.3961972358640152  1.0000
  C   C30       1.0  0.23947272967274102  0.6038388221050256  0.021965794820530984  1.0000
  C   C31       1.0  0.7394277644883901  0.0219622292180688  0.603797896706453  1.0000
  C   C32       1.0  0.7605849243524077  0.39615739678670536  0.9780427446391255  1.0000
  C   C33       1.0  0.38175949580011825  0.8688732361847613  0.5469728643375475  1.0000
  C   C34       1.0  0.11825262415900543  0.45305388362901056  0.13112254468340717  1.0000
  C   C35       1.0  0.6181838723469613  0.1311376304530114  0.45303522302722127  1.0000
  C   C36       1.0  0.8818071440950703  0.5469326134391181  0.868872707805316  1.0000
  N   N1        1.0  0.3549740318222378  0.884985953163124  0.4385180937891704  1.0000
  N   N2        1.0  0.14503447446300308  0.5615078071205987  0.1150145555034001  1.0000
  N   N3        1.0  0.6449841778145355  0.1150152742641737  0.5614867321150425  1.0000
  N   N4        1.0  0.8550183528291202  0.43848009728774423  0.884990878556813  1.0000
  N   N5        1.0  0.5796299410480119  0.6946573447537929  0.5163204206555604  1.0000
  N   N6        1.0  0.9203790444568937  0.4836874652051861  0.30534148864524  1.0000
  N   N7        1.0  0.4203433960269507  0.30535711601287835  0.4837043207662929  1.0000
  N   N8        1.0  0.07965140210839657  0.5162837276232395  0.694647709105702  1.0000
  Cl  Cl1       1.0  0.45244104689425774  0.534279153631779  0.31653092019080015  1.0000
  Cl  Cl2       1.0  0.04754291027035869  0.6834755410037657  0.4657371951227061  1.0000
  Cl  Cl3       1.0  0.5475927262365518  0.46571910123800825  0.6834813230180925  1.0000
  Cl  Cl4       1.0  0.9524338718316941  0.31651275636638593  0.5342677263799018  1.0000
  Cl  Cl5       1.0  0.7500102435072478  0.781279837717463  0.2187178321929295  1.0000
  Cl  Cl6       1.0  0.2499999942674124  0.21871309228423294  0.7812919213916414  1.0000
  Cl  Cl7       1.0  0.2500047334467439  0.8130669775596929  0.1869499119062752  1.0000
  Cl  Cl8       1.0  0.7499978918344825  0.18691835396318615  0.8130617565034083  1.0000
