data_image0
_chemical_formula_structural       Al6H44C90O28
_chemical_formula_sum              "Al6 H44 C90 O28"
_cell_length_a       12.17572017200954
_cell_length_b       12.202001103521992
_cell_length_c       26.943718722735927
_cell_angle_alpha    82.0198837994122
_cell_angle_beta     82.4830772286847
_cell_angle_gamma    65.2873842832001

_space_group_name_H-M_alt    "P 1"
_space_group_IT_number       1

loop_
  _space_group_symop_operation_xyz
  'x, y, z'

loop_
  _atom_site_type_symbol
  _atom_site_label
  _atom_site_symmetry_multiplicity
  _atom_site_fract_x
  _atom_site_fract_y
  _atom_site_fract_z
  _atom_site_occupancy
  Al  Al1       1.0  0.4099127810407168  0.39279131434031456  0.5132282221001532  1.0000
  Al  Al2       1.0  0.6601513503052132  0.4250557245268994  0.4941433049209678  1.0000
  Al  Al3       1.0  0.42790430240364674  0.6504810956708841  0.4984010323659405  1.0000
  Al  Al4       1.0  0.9207140774986229  0.9468595180418194  0.9773377543056939  1.0000
  Al  Al5       1.0  0.9158254258645541  0.6838266335456926  0.9968046874908012  1.0000
  Al  Al6       1.0  0.6772733584401037  0.9016388808478412  0.9933481350508944  1.0000
  H   H1        1.0  0.5062323431569666  0.3442149822877951  0.197071092346512  1.0000
  H   H2        1.0  0.37217780836263603  0.8102188830740715  0.20957934445952023  1.0000
  H   H3        1.0  0.3701083714181053  0.7281917685741636  0.16041232411412662  1.0000
  H   H4        1.0  0.2574952640432572  0.8766054311424443  0.1661680612656227  1.0000
  H   H5        1.0  0.9496716365339992  0.11415762546651818  0.22023950078505547  1.0000
  H   H6        1.0  0.9260382987707698  0.017498538413569707  0.18295336544529306  1.0000
  H   H7        1.0  0.8830823661054553  0.17285394700683557  0.16173970147874428  1.0000
  H   H8        1.0  0.3701007798405271  0.7827819592785233  0.7740545904504259  1.0000
  H   H9        1.0  0.42960566541277956  0.6796852408708746  0.8274095075419725  1.0000
  H   H10       1.0  0.43006374992435065  0.8262637339842415  0.8207874880455961  1.0000
  H   H11       1.0  0.5106550274067202  0.9629731950500117  0.7834336777065259  1.0000
  H   H12       1.0  0.7049127199580879  0.3380201481192063  0.24451735903023317  1.0000
  H   H13       1.0  0.39625547588119053  0.17811466449887084  0.7548404511470679  1.0000
  H   H14       1.0  0.367432455048096  0.24230620248608403  0.6635034873915799  1.0000
  H   H15       1.0  0.45136712081836816  0.0888817603981309  0.6017958683632898  1.0000
  H   H16       1.0  0.5634179395813845  0.8715586108414687  0.6305152249173246  1.0000
  H   H17       1.0  0.8571784949497355  0.353330906868834  0.7082464579533577  1.0000
  H   H18       1.0  0.9745274314933211  0.1370875688776892  0.7354660873443777  1.0000
  H   H19       1.0  0.9971864911399139  0.06853107358555387  0.8270511892382687  1.0000
  H   H20       1.0  0.9025831396158068  0.2162051767502078  0.8902372207436076  1.0000
  H   H21       1.0  0.7830152996085431  0.4343327531647673  0.8630389489977972  1.0000
  H   H22       1.0  0.8315768249984359  0.8345828916794178  0.7213811839131026  1.0000
  H   H23       1.0  0.5666292625034046  0.5333895013086972  0.736743700202652  1.0000
  H   H24       1.0  0.7542835195379353  0.8696374358868938  0.7816378801447215  1.0000
  H   H25       1.0  0.8924175029000666  0.7378310846868318  0.7759617915928204  1.0000
  H   H26       1.0  0.211876538483267  0.9791125233999483  0.23920026044267223  1.0000
  H   H27       1.0  0.1393447826815688  0.16986802232658255  0.2795883039954816  1.0000
  H   H28       1.0  0.9778102655899658  0.21191064453645964  0.35072010218248556  1.0000
  H   H29       1.0  0.8932947817575253  0.05927154351503118  0.38161061460905893  1.0000
  H   H30       1.0  0.9681188575753764  0.8668553185220845  0.34208808640099164  1.0000
  H   H31       1.0  0.47384182839775957  0.5223093989061668  0.22692585507899568  1.0000
  H   H32       1.0  0.44924124549837785  0.5973057975045037  0.281886537493186  1.0000
  H   H33       1.0  0.43203324598317744  0.45912386092449975  0.28624670140706604  1.0000
  H   H34       1.0  0.877848600159588  0.5716674293218421  0.7016652531440712  1.0000
  H   H35       1.0  0.26992677361173634  0.37586516484847016  0.2415176383269042  1.0000
  H   H36       1.0  0.1535202531232684  0.44492772707739914  0.19920787543099294  1.0000
  H   H37       1.0  0.30149677145290343  0.43620377160653595  0.1798545829544338  1.0000
  H   H38       1.0  0.0449777402716265  0.5800282441463054  0.2966129994353039  1.0000
  H   H39       1.0  0.9512743300605848  0.8057921551068219  0.2369147187123062  1.0000
  H   H40       1.0  0.5935358863973973  0.995470364313484  0.24356262680488064  1.0000
  H   H41       1.0  0.7926904552077616  0.9887023289019867  0.290594427822306  1.0000
  H   H42       1.0  0.44404953924478  0.21715839803932377  0.2850711901531255  1.0000
  H   H43       1.0  0.2739285608599645  0.31304973749291076  0.5542692639774316  1.0000
  H   H44       1.0  0.0442213210857503  0.0441430036619863  0.9890361012998596  1.0000
  C   C1        1.0  0.6124731014616386  0.2865295163839934  0.4339105429582731  1.0000
  C   C2        1.0  0.14625527046468534  0.6963564371104811  0.1980545477451372  1.0000
  C   C3        1.0  0.0985561231477377  0.6254659317431646  0.2745073469051178  1.0000
  C   C4        1.0  0.6125489511586081  0.623000937870181  0.4180555385607789  1.0000
  C   C5        1.0  0.18472992368343447  0.6675919052833027  0.29777958496212165  1.0000
  C   C6        1.0  0.1990840326446772  0.5703323349030713  0.23140521095564281  1.0000
  C   C7        1.0  0.2859327223650395  0.6142075672363206  0.2535525258909388  1.0000
  C   C8        1.0  0.1214633255852178  0.7118285287754278  0.1471642194942149  1.0000
  C   C9        1.0  0.20884894807651477  0.6514182798710381  0.3486174448278305  1.0000
  C   C10       1.0  0.728645376545181  0.06716706399117825  0.2693532166007984  1.0000
  C   C11       1.0  0.6181016007705084  0.07177490970703097  0.24423188693870665  1.0000
  C   C12       1.0  0.6605572794020773  0.6663835772925214  0.2688582888589721  1.0000
  C   C13       1.0  0.6742596999180107  0.09812170498106815  0.10127554667697318  1.0000
  C   C14       1.0  0.6327896232299182  0.2404906993811551  0.38581470224097103  1.0000
  C   C15       1.0  0.7641073273853323  0.1389289032789875  0.22172740791438633  1.0000
  C   C16       1.0  0.2833648135572631  0.6061623394108082  0.44001331679706374  1.0000
  C   C17       1.0  0.6525541580458095  0.14295685504123412  0.1954509447126398  1.0000
  C   C18       1.0  0.6800098388616646  0.2618875006560161  0.24378486055146448  1.0000
  C   C19       1.0  0.645267884982708  0.190842950725383  0.2927072458278985  1.0000
  C   C20       1.0  0.5696667263282151  0.2660774810986267  0.21863383748006274  1.0000
  C   C21       1.0  0.53498286037847  0.19453044268480116  0.2662346352021316  1.0000
  C   C22       1.0  0.6594450464715536  0.1196619905223386  0.1451032984081095  1.0000
  C   C23       1.0  0.649478818938654  0.6588279504507498  0.31918412483611297  1.0000
  C   C24       1.0  0.6404781405229372  0.2161012926769459  0.34275187412662683  1.0000
  C   C25       1.0  0.6131961553801162  0.7731156293254527  0.7275474354758629  1.0000
  C   C26       1.0  0.564582784520489  0.7010939342092897  0.7719768039868811  1.0000
  C   C27       1.0  0.7106408515563275  0.6725302211350268  0.8910620768299752  1.0000
  C   C28       1.0  0.6279501891658866  0.2759549532296292  0.5753787677995562  1.0000
  C   C29       1.0  0.6474547423099962  0.6356085449883367  0.6022114334131246  1.0000
  C   C30       1.0  0.7389635443831253  0.7222755126809306  0.7518911056188884  1.0000
  C   C31       1.0  0.688855244473018  0.6515982801740848  0.7974624143184174  1.0000
  C   C32       1.0  0.7880768508819928  0.6089674091963174  0.7219528865429014  1.0000
  C   C33       1.0  0.6650585650057294  0.6576720103316449  0.6963273358695332  1.0000
  C   C34       1.0  0.6378449005509381  0.6501934580150748  0.365295992490914  1.0000
  C   C35       1.0  0.7408884392111759  0.5369314424461822  0.7659506984571037  1.0000
  C   C36       1.0  0.6158309758413765  0.5878703836488057  0.7417042931957951  1.0000
  C   C37       1.0  0.7009734164315091  0.6591361126819778  0.8479279899576326  1.0000
  C   C38       1.0  0.6546660923987346  0.6490928471403096  0.6456097257475406  1.0000
  C   C39       1.0  0.10746409626028706  0.7031938333683029  0.8647944083367066  1.0000
  C   C40       1.0  0.6235217471202715  0.6104095754841127  0.5557134027004196  1.0000
  C   C41       1.0  0.13714708922622523  0.6851162092636545  0.8203751392058294  1.0000
  C   C42       1.0  0.16619064627715122  0.6672551307369549  0.7715781389545809  1.0000
  C   C43       1.0  0.18920097441989722  0.6531022807035357  0.7263386471596148  1.0000
  C   C44       1.0  0.2158673701325924  0.6378488274051293  0.6772491112166037  1.0000
  C   C45       1.0  0.13328985218166875  0.7947055305582751  0.2643458385684028  1.0000
  C   C46       1.0  0.24216840170976886  0.6238672001921586  0.6323485942366461  1.0000
  C   C47       1.0  0.6854868262360013  0.09896308700802352  0.8610377328393781  1.0000
  C   C48       1.0  0.6817411885336496  0.1248433321847813  0.8155042906805008  1.0000
  C   C49       1.0  0.6801094384734512  0.15062578584986847  0.7657214346376264  1.0000
  C   C50       1.0  0.680112693877234  0.17096350863543833  0.7196434968633908  1.0000
  C   C51       1.0  0.6744675297418398  0.19712632600893443  0.6700014765562301  1.0000
  C   C52       1.0  0.2914553277711178  0.5993107575923631  0.581592208916156  1.0000
  C   C53       1.0  0.6637011837975065  0.22398967520405935  0.6248024358874319  1.0000
  C   C54       1.0  0.0493120110429572  0.7424029523205818  0.05576691379782521  1.0000
  C   C55       1.0  0.7198532309169182  0.7151607756378486  0.07358643597124369  1.0000
  C   C56       1.0  0.23422230161277474  0.7391218050347136  0.22074289596273639  1.0000
  C   C57       1.0  0.7087470172887151  0.05179552435368613  0.052996872260259  1.0000
  C   C58       1.0  0.0530747344017541  0.7361273674537401  0.9142162623380444  1.0000
  C   C59       1.0  0.7338465379738607  0.7013453478076601  0.9368349970147207  1.0000
  C   C60       1.0  0.710447322806033  0.0492362990519624  0.9117186490638786  1.0000
  C   C61       1.0  0.6931583146996233  0.6871032695179125  0.12613126868964739  1.0000
  C   C62       1.0  0.6806845058947317  0.6784000648208066  0.17223193526050545  1.0000
  C   C63       1.0  0.6692219143434527  0.6710252880618912  0.22254226279510195  1.0000
  C   C64       1.0  0.3123110370504135  0.792089780580838  0.18778843048580998  1.0000
  C   C65       1.0  0.8874416963305833  0.10930282448141071  0.1954222346604197  1.0000
  C   C66       1.0  0.44219144809261474  0.7500457793384574  0.8000129120080784  1.0000
  C   C67       1.0  0.09768401618821089  0.7226219278626402  0.10362408484836291  1.0000
  C   C68       1.0  0.54515142281857  0.9012282781485441  0.7089879129605875  1.0000
  C   C69       1.0  0.49696457674978217  0.9895273659892327  0.7435772199550782  1.0000
  C   C70       1.0  0.43254223079928517  0.11111171480072811  0.727425971045399  1.0000
  C   C71       1.0  0.4159159737242104  0.14702492438182455  0.6764288162801223  1.0000
  C   C72       1.0  0.46367785644474685  0.060517364461979584  0.6416574921015298  1.0000
  C   C73       1.0  0.5274697350725788  0.9385278849651116  0.65786195397731  1.0000
  C   C74       1.0  0.8114072806212249  0.4087985368187862  0.7838900466310079  1.0000
  C   C75       1.0  0.8668573750288857  0.32384346764160205  0.7482273266913  1.0000
  C   C76       1.0  0.9331790075939279  0.20212761822357828  0.7635790794955711  1.0000
  C   C77       1.0  0.9459287805232252  0.16366047513368195  0.81468048637349  1.0000
  C   C78       1.0  0.23318946371525578  0.63739615797477  0.3921835690904416  1.0000
  C   C79       1.0  0.8918560966497963  0.24729687168213133  0.8504660161333674  1.0000
  C   C80       1.0  0.8246120292006935  0.3691489311727807  0.8350623500765267  1.0000
  C   C81       1.0  0.8079268087341019  0.7950416470882616  0.7582224740521613  1.0000
  C   C82       1.0  0.0937346411811859  0.9101942415805341  0.28700966827342  1.0000
  C   C83       1.0  0.14230049535112238  0.9959781885884453  0.2704385998120813  1.0000
  C   C84       1.0  0.10091593526637868  0.10388567597651391  0.2932356229187576  1.0000
  C   C85       1.0  0.010772539348586501  0.12763223349269742  0.33297679818121406  1.0000
  C   C86       1.0  0.9631835561418072  0.0417334301669569  0.3503997195240983  1.0000
  C   C87       1.0  0.004728484098784202  0.9340819292928872  0.3277760529145652  1.0000
  C   C88       1.0  0.41704879783444676  0.5441531683721624  0.2624260586784573  1.0000
  C   C89       1.0  0.046952303124768884  0.7499031981497383  0.2424409420184119  1.0000
  C   C90       1.0  0.23302967460576707  0.4504144450632312  0.2120738202095112  1.0000
  O   O1        1.0  0.3087860187847298  0.49948726872636934  0.46015177940182644  1.0000
  O   O2        1.0  0.642993345214208  0.8132679974305862  0.053144058378819574  1.0000
  O   O3        1.0  0.6307458746522626  0.026366510530856153  0.03408094058197968  1.0000
  O   O4        1.0  0.5164728158198458  0.29521219738540333  0.4607155068895352  1.0000
  O   O5        1.0  0.8071225852808582  0.042740301555056606  0.9266903600029224  1.0000
  O   O6        1.0  0.018767353661026196  0.8455878532403107  0.9219495713375778  1.0000
  O   O7        1.0  0.040291831271112195  0.6513308536939562  0.9454891844574149  1.0000
  O   O8        1.0  0.8367765678084422  0.6351885512902842  0.954585080712377  1.0000
  O   O9        1.0  0.6527047785508203  0.795008691988592  0.9565062609620297  1.0000
  O   O10       1.0  0.633628985989283  0.010880846803559087  0.9367889310493639  1.0000
  O   O11       1.0  0.8372530455651839  0.8427213829977025  0.9896155964939126  1.0000
  O   O12       1.0  0.6968907018711475  0.510530082138317  0.5380625461064666  1.0000
  O   O13       1.0  0.6936469835983489  0.3195624083861972  0.4451186370624853  1.0000
  O   O14       1.0  0.6917430981132284  0.5278885345705221  0.4392577345882387  1.0000
  O   O15       1.0  0.5104122879586442  0.6922952923224133  0.4380163862657086  1.0000
  O   O16       1.0  0.30306971146461587  0.6889447312132193  0.45788191812611245  1.0000
  O   O17       1.0  0.30684106297972846  0.4989874646509735  0.5675908897983177  1.0000
  O   O18       1.0  0.5194967426816389  0.3013447015531128  0.5677947730870727  1.0000
  O   O19       1.0  0.7076734761503899  0.2968911444300846  0.5436695270912608  1.0000
  O   O20       1.0  0.5271862368753801  0.6864541311455102  0.5354089326270141  1.0000
  O   O21       1.0  0.3198765527816718  0.6819194875464306  0.5556176063774387  1.0000
  O   O22       1.0  0.5000277861731347  0.49094965502931837  0.5017272938971331  1.0000
  O   O23       1.0  0.8141067477999613  0.034992267539856126  0.033455177129155786  1.0000
  O   O24       1.0  0.031339869309562104  0.8415087416088981  0.0292424321950122  1.0000
  O   O25       1.0  0.0234779198978146  0.6566358219360781  0.044440255474363304  1.0000
  O   O26       1.0  0.8203287222527462  0.6439418648148706  0.053126784115257  1.0000
  O   O27       1.0  0.3312407231863901  0.29919894971524025  0.5249433804296899  1.0000
  O   O28       1.0  0.9958434621796641  0.04370774887051008  0.9634068185595835  1.0000
