data_image0
_chemical_formula_structural       Cu4H64C56N4O16
_chemical_formula_sum              "Cu4 H64 C56 N4 O16"
_cell_length_a       11.126210650729082
_cell_length_b       12.009287814305976
_cell_length_c       12.0626
_cell_angle_alpha    71.3766872263201
_cell_angle_beta     63.085325536664755
_cell_angle_gamma    63.20760464328573

_space_group_name_H-M_alt    "P 1"
_space_group_IT_number       1

loop_
  _space_group_symop_operation_xyz
  'x, y, z'

loop_
  _atom_site_type_symbol
  _atom_site_label
  _atom_site_symmetry_multiplicity
  _atom_site_fract_x
  _atom_site_fract_y
  _atom_site_fract_z
  _atom_site_occupancy
  Cu  Cu1       1.0  0.7502038223558571  0.6156078320484752  0.38393083077140494  1.0000
  Cu  Cu2       1.0  0.2498033786059252  0.3844266908372731  0.6160328034371646  1.0000
  Cu  Cu3       1.0  0.7502773848693779  0.8012339955736464  0.1992039626046421  1.0000
  Cu  Cu4       1.0  0.24971564338728308  0.1987449034775963  0.8008147760600366  1.0000
  H   H1        1.0  0.6170330832037365  0.4106538001967053  0.5031360329880954  1.0000
  H   H2        1.0  0.8832486080519786  0.4977286706247313  0.5880359885792075  1.0000
  H   H3        1.0  0.3829492542302262  0.5893750660279053  0.49686713806845983  1.0000
  H   H4        1.0  0.1167804841728781  0.5022653128562098  0.41195626459786183  1.0000
  H   H5        1.0  0.608487170481787  0.23322225310462838  0.6808961727499395  1.0000
  H   H6        1.0  0.8911659685222021  0.3202697830038232  0.7656940618804172  1.0000
  H   H7        1.0  0.39150782208054113  0.7668028420125594  0.3191078875003299  1.0000
  H   H8        1.0  0.10883607653195065  0.6797213721465454  0.23429960624794435  1.0000
  H   H9        1.0  0.9697444177361446  0.9122695397990697  0.9854778818390816  1.0000
  H   H10       1.0  0.5300426377992693  0.0143179521133661  0.08854634640808004  1.0000
  H   H11       1.0  0.030239488887097796  0.0877725253015242  0.014527069747423103  1.0000
  H   H12       1.0  0.46995335950034445  0.9856732030370025  0.911397619256647  1.0000
  H   H13       1.0  0.979899317286453  0.089850405492335  0.8084339065856341  1.0000
  H   H14       1.0  0.520046096524311  0.1907529840685598  0.910458700060211  1.0000
  H   H15       1.0  0.020070645634241643  0.9101888312776936  0.1915711339830821  1.0000
  H   H16       1.0  0.47996653290572067  0.8092466560735119  0.08949800686166037  1.0000
  H   H17       1.0  0.3686459251642447  0.9551432601063964  0.5608034547945167  1.0000
  H   H18       1.0  0.1311453063275323  0.4386099623101956  0.04500698365806242  1.0000
  H   H19       1.0  0.6314057292224716  0.0447988706474547  0.4391618745035331  1.0000
  H   H20       1.0  0.8687924567366209  0.5614170183607001  0.9550535321473036  1.0000
  H   H21       1.0  0.2733977138194346  0.8920516901203258  0.5327135959194607  1.0000
  H   H22       1.0  0.22686335293033724  0.4670478833971501  0.1071172106230804  1.0000
  H   H23       1.0  0.7265856847970227  0.107947950021746  0.4672511705252589  1.0000
  H   H24       1.0  0.7731559983748183  0.5329743833894725  0.8928750914625567  1.0000
  H   H25       1.0  0.0690995609805043  0.22582522589178208  0.4723245229589851  1.0000
  H   H26       1.0  0.4308874048540048  0.5281124831426425  0.7743721152442619  1.0000
  H   H27       1.0  0.9309578702110243  0.7742121253245314  0.5276545450922399  1.0000
  H   H28       1.0  0.5690624521083193  0.4718975275448543  0.22560004246724932  1.0000
  H   H29       1.0  0.07890865521257949  0.0839561645880949  0.5813532546530881  1.0000
  H   H30       1.0  0.42081391231995013  0.4183327176895162  0.9155051476770596  1.0000
  H   H31       1.0  0.9210330300193235  0.9160953282810667  0.41858757215008063  1.0000
  H   H32       1.0  0.5792450316156631  0.5817131185185005  0.08444820786971269  1.0000
  H   H33       1.0  0.39341747342088246  0.1912300291577367  0.3956240910295675  1.0000
  H   H34       1.0  0.10623439557634379  0.6039334262395712  0.8098934169765145  1.0000
  H   H35       1.0  0.606568052393257  0.8087620687694822  0.6044118219104605  1.0000
  H   H36       1.0  0.8937858459648139  0.3960285028282584  0.19010691968543383  1.0000
  H   H37       1.0  0.4815416883998084  0.0865610570414574  0.28419251731268963  1.0000
  H   H38       1.0  0.018191735790530496  0.7159183467590751  0.9140149433640945  1.0000
  H   H39       1.0  0.5184690928367459  0.9134357547700489  0.715828865154471  1.0000
  H   H40       1.0  0.9817986588725559  0.2840426395318971  0.08599400978278039  1.0000
  H   H41       1.0  0.1315168235520332  0.0401302396561221  0.3628141278982612  1.0000
  H   H42       1.0  0.3683268235430646  0.6380826895206866  0.9591535377731901  1.0000
  H   H43       1.0  0.8684658493313222  0.959892969907358  0.637194017577052  1.0000
  H   H44       1.0  0.6316785243925551  0.3618980950842641  0.0408445354930222  1.0000
  H   H45       1.0  0.31644588475123914  0.9873447464028401  0.2650235655031637  1.0000
  H   H46       1.0  0.1834309407944658  0.7358882461246736  0.01202105117099714  1.0000
  H   H47       1.0  0.6835320273408741  0.0126680926152147  0.7349774297307904  1.0000
  H   H48       1.0  0.8165781035281157  0.2640981951414147  0.9879703642880173  1.0000
  H   H49       1.0  0.3810646581842576  0.2732629289594186  0.15971717571149213  1.0000
  H   H50       1.0  0.11905716421296828  0.8406665803562631  0.7272671659568815  1.0000
  H   H51       1.0  0.6189521143616332  0.7267291689678075  0.840313981054827  1.0000
  H   H52       1.0  0.8809180562294826  0.1593066620338419  0.2727682674178952  1.0000
  H   H53       1.0  0.2295956668003924  0.3362649351441647  0.29101000694201673  1.0000
  H   H54       1.0  0.27032664844487175  0.7087796404047992  0.6647966248397026  1.0000
  H   H55       1.0  0.7704185318189187  0.6637479038738974  0.7090131431861767  1.0000
  H   H56       1.0  0.7296487977783741  0.2912124575224269  0.3351954140684868  1.0000
  H   H57       1.0  0.24711145486638486  0.1803079592799932  0.13431115470545754  1.0000
  H   H58       1.0  0.25297519779123684  0.866928572459372  0.8192385792932271  1.0000
  H   H59       1.0  0.7528665717270188  0.8197312774900353  0.8657153893465195  1.0000
  H   H60       1.0  0.7470720909206251  0.13303618493903  0.18072635306189955  1.0000
  H   H61       1.0  0.09736148729942329  0.2545770916718126  0.2587805526314355  1.0000
  H   H62       1.0  0.4025925621452655  0.7419210752267631  0.745381387925491  1.0000
  H   H63       1.0  0.9026212984743367  0.7454555456602279  0.7412519055918382  1.0000
  H   H64       1.0  0.5974296937031768  0.2580238838576605  0.2545986327814092  1.0000
  C   C1        1.0  0.6757668311325274  0.3879404201799019  0.5640399907465509  1.0000
  C   C2        1.0  0.8244871076253587  0.43632090010362384  0.6112194761814254  1.0000
  C   C3        1.0  0.3242273776406036  0.6120865604910009  0.435953020161044  1.0000
  C   C4        1.0  0.17552361877689293  0.5636881678070154  0.3887715042780188  1.0000
  C   C5        1.0  0.6718361788081779  0.2887951776634239  0.6628792833479622  1.0000
  C   C6        1.0  0.8280591866336096  0.3376376182466245  0.7104891394088427  1.0000
  C   C7        1.0  0.328156573666071  0.7112280319000561  0.33711636356952823  1.0000
  C   C8        1.0  0.17194549201411038  0.6623714496640076  0.2895002210899094  1.0000
  C   C9        1.0  0.7499441362869987  0.2614037388867274  0.7384578629298489  1.0000
  C   C10       1.0  0.2500542156019918  0.7386156995693298  0.2615300129897307  1.0000
  C   C11       1.0  0.8723508345776027  0.9779160350651352  0.9664989117026224  1.0000
  C   C12       1.0  0.6274787589396311  0.0334044695648075  0.022597171692432153  1.0000
  C   C13       1.0  0.12763463801312716  0.0221052889446298  0.03350286124771882  1.0000
  C   C14       1.0  0.37251947844806205  0.9665885711392761  0.977367642435141  1.0000
  C   C15       1.0  0.8772411239710107  0.0766194750940414  0.8671934027633983  1.0000
  C   C16       1.0  0.6226599732031488  0.1323686989249211  0.9235929140790445  1.0000
  C   C17       1.0  0.12274076512315447  0.9234056200231463  0.1328094964299354  1.0000
  C   C18       1.0  0.37734016882322385  0.867631883994008  0.07638031301457458  1.0000
  C   C19       1.0  0.7499400303735583  0.1562096400616042  0.8436309676916595  1.0000
  C   C20       1.0  0.25005042556741597  0.8438069700638805  0.15635944617949352  1.0000
  C   C21       1.0  0.4914741231830106  0.8505544240228814  0.40961168527562125  1.0000
  C   C22       1.0  0.008853847054218973  0.5903970361399047  0.14922269146491368  1.0000
  C   C23       1.0  0.5085444411111624  0.1494357883506297  0.590345541101776  1.0000
  C   C24       1.0  0.9911385699706299  0.4096318300847059  0.8508086024587272  1.0000
  C   C25       1.0  0.34904442832927884  0.9427928832916875  0.4845434826965445  1.0000
  C   C26       1.0  0.15103406776562164  0.515220952412534  0.05697211169660224  1.0000
  C   C27       1.0  0.6509577280043715  0.0571907296438354  0.5154293246501425  1.0000
  C   C28       1.0  0.8489628278244794  0.4847947149360934  0.9430424414843516  1.0000
  C   C29       1.0  0.2775179282203624  0.0716331283022029  0.41731145854503643  1.0000
  C   C30       1.0  0.22235308310695256  0.5827869413575826  0.9283675377346442  1.0000
  C   C31       1.0  0.7224818219114153  0.9283683973935837  0.5826939637717958  1.0000
  C   C32       1.0  0.7776541130221447  0.4171966715779334  0.07163218067999812  1.0000
  C   C33       1.0  0.13846085022058216  0.1466140572203685  0.5187142082562346  1.0000
  C   C34       1.0  0.3613912417596054  0.4813432088659653  0.853240459617574  1.0000
  C   C35       1.0  0.8615396853112782  0.8534025529051164  0.4812860902912279  1.0000
  C   C36       1.0  0.638611362913842  0.5186441751769735  0.14674671273975562  1.0000
  C   C37       1.0  0.171078469923529  0.19978572912670964  0.5960461980346565  1.0000
  C   C38       1.0  0.32865888023014384  0.4039591417416446  0.8000521011098627  1.0000
  C   C39       1.0  0.8289143325523298  0.8001743143874052  0.4039985259145098  1.0000
  C   C40       1.0  0.6713601275711341  0.5959839317890641  0.19998127375306046  1.0000
  C   C41       1.0  0.3758029380920433  0.1493226551278966  0.33839293570419926  1.0000
  C   C42       1.0  0.12391700756158731  0.661593658757738  0.8513554404955459  1.0000
  C   C43       1.0  0.624197707108429  0.8506694427993224  0.661630861468467  1.0000
  C   C44       1.0  0.8760854277762675  0.33837958363236  0.14864956280781186  1.0000
  C   C45       1.0  0.2299210913667125  0.0633668608280473  0.3188973440732071  1.0000
  C   C46       1.0  0.26995271466867615  0.6818445056264508  0.9362242075733465  1.0000
  C   C47       1.0  0.7700683001699744  0.9366450354131501  0.6811124220962556  1.0000
  C   C48       1.0  0.7300543685700233  0.3181296795405117  0.06377358132745319  1.0000
  C   C49       1.0  0.30128529726070485  0.248918544981592  0.2495333046185878  1.0000
  C   C50       1.0  0.19862867539095658  0.7507143549634705  0.7516814946406215  1.0000
  C   C51       1.0  0.698713501357183  0.7510876945984748  0.7504925705017202  1.0000
  C   C52       1.0  0.801371184409426  0.2492626585340574  0.2483217270326037  1.0000
  C   C53       1.0  0.2113098144419823  0.1915420882971048  0.23253444093813866  1.0000
  C   C54       1.0  0.28862109784912343  0.7682754594617691  0.8083733549405708  1.0000
  C   C55       1.0  0.7886726342714779  0.8084792357126602  0.7674951228310222  1.0000
  C   C56       1.0  0.7113993678619366  0.2316883551597755  0.1916146825229178  1.0000
  N   N1        1.0  0.7502587801023705  0.4613044867898779  0.5383173428292951  1.0000
  N   N2        1.0  0.249743547177772  0.538710237781892  0.46168032007499693  1.0000
  N   N3        1.0  0.7498888232076196  0.9564490060520753  0.0440036823090537  1.0000
  N   N4        1.0  0.2501033115912392  0.043556290751134  0.9559796793790696  1.0000
  O   O1        1.0  0.5457651783015932  0.8821006804043492  0.2906351766576237  1.0000
  O   O2        1.0  0.9547679238822794  0.7097865260871004  0.11799173510121373  1.0000
  O   O3        1.0  0.4542636945860536  0.1179423274731093  0.7093308044858233  1.0000
  O   O4        1.0  0.04518562946699939  0.290229141261527  0.8819712777770833  1.0000
  O   O5        1.0  0.5475038642302792  0.7477332945445241  0.4714507779433816  1.0000
  O   O6        1.0  0.9528057778168773  0.5282454146793469  0.2518535414748728  1.0000
  O   O7        1.0  0.45250361090302255  0.2522399478455739  0.5284957485347661  1.0000
  O   O8        1.0  0.04723384717134849  0.47180324985924216  0.7482164101195963  1.0000
  O   O9        1.0  0.20372415977440986  0.1292377369858642  0.6900774507407164  1.0000
  O   O10       1.0  0.2958937594654217  0.3094617891256632  0.8702655163645973  1.0000
  O   O11       1.0  0.7963066629208412  0.8706987371068565  0.30993319309491346  1.0000
  O   O12       1.0  0.7040699266981534  0.6905246521404251  0.12979126169998514  1.0000
  O   O13       1.0  0.16640259666615262  0.3135638112264871  0.5568348168580499  1.0000
  O   O14       1.0  0.333296176380145  0.44361327908544007  0.6867686319854444  1.0000
  O   O15       1.0  0.8335432816832267  0.6864169733784635  0.4432635261767714  1.0000
  O   O16       1.0  0.6667867199056445  0.5562779417181858  0.3132388024576898  1.0000
