data_image0
_chemical_formula_structural       Zn4H26C50O15
_chemical_formula_sum              "Zn4 H26 C50 O15"
_cell_length_a       15.913515817436842
_cell_length_b       18.019638533379982
_cell_length_c       17.99885395024855
_cell_angle_alpha    63.473775450674125
_cell_angle_beta     76.29204195374756
_cell_angle_gamma    80.74639558232163

_space_group_name_H-M_alt    "P 1"
_space_group_IT_number       1

loop_
  _space_group_symop_operation_xyz
  'x, y, z'

loop_
  _atom_site_type_symbol
  _atom_site_label
  _atom_site_symmetry_multiplicity
  _atom_site_fract_x
  _atom_site_fract_y
  _atom_site_fract_z
  _atom_site_occupancy
  Zn  Zn1       1.0  0.5703638188292786  0.413639133501384  0.5809872725233234  1.0000
  Zn  Zn2       1.0  0.41881164310846936  0.5522647267571726  0.5627766095126888  1.0000
  Zn  Zn3       1.0  0.4560823559626924  0.4439185612604107  0.44842572106385603  1.0000
  Zn  Zn4       1.0  0.5709389677805349  0.589527357199252  0.40509319751384254  1.0000
  H   H1        1.0  0.5543519671307563  0.8369557881414308  0.5929787858364007  1.0000
  H   H2        1.0  0.550308450323193  0.6018583951356645  0.8291533915037592  1.0000
  H   H3        1.0  0.44970013580986995  0.39105804873411637  0.17010036196081305  1.0000
  H   H4        1.0  0.39731136821800556  0.26050399329037077  0.009737122279126788  1.0000
  H   H5        1.0  0.6130525352599747  0.8913090616722387  0.6714360226662563  1.0000
  H   H6        1.0  0.5015977143795708  0.7936419591753321  0.5355987296191173  1.0000
  H   H7        1.0  0.4093960910886948  0.8425715908665056  0.31251418339954995  1.0000
  H   H8        1.0  0.39914482761419373  0.11132632452844857  0.31284458155167993  1.0000
  H   H9        1.0  0.6417964322035131  0.007616976229577699  0.6947528515524014  1.0000
  H   H10       1.0  0.6274166937097334  0.15941555699257745  0.6587719295388653  1.0000
  H   H11       1.0  0.4858740632049532  0.20579008784630304  0.4661192475888498  1.0000
  H   H12       1.0  0.4478635736063978  0.16366808212148948  0.3969187336993301  1.0000
  H   H13       1.0  0.9754188277433613  0.6258105748810221  0.3665800582213804  1.0000
  H   H14       1.0  0.3933688804780573  0.9394198879523755  0.18282888630614744  1.0000
  H   H15       1.0  0.2912481611857629  0.9255056374826791  0.2522990954957294  1.0000
  H   H16       1.0  0.309347498303076  0.01912590268137389  0.15899137318152157  1.0000
  H   H17       1.0  0.31465907842520824  0.045299106458692485  0.2809201011573422  1.0000
  H   H18       1.0  0.4165009013849783  0.0576000799265799  0.2141298514807843  1.0000
  H   H19       1.0  0.6183031989319117  0.7108859272518229  0.8090348212997187  1.0000
  H   H20       1.0  0.4956529141268646  0.5366079191048526  0.7930879164680249  1.0000
  H   H21       1.0  0.4192221770839312  0.29491053736815326  0.8562460561432202  1.0000
  H   H22       1.0  0.40630540796935577  0.29716100923327826  0.12326963899941028  1.0000
  H   H23       1.0  0.6361510178207226  0.7165016795781725  0.9888548717360951  1.0000
  H   H24       1.0  0.6233231897121386  0.6779412483085635  0.14260906707952622  1.0000
  H   H25       1.0  0.4854359525437175  0.4661490924298306  0.20627010546986932  1.0000
  H   H26       1.0  0.9892224009236871  0.43460606795778023  0.5929665035752478  1.0000
  C   C1        1.0  0.469131858969547  0.7205280737849973  0.44703818315195326  1.0000
  C   C2        1.0  0.5289731406396497  0.0757251376942634  0.532215251011067  1.0000
  C   C3        1.0  0.5727243519017975  0.0198904295538114  0.5994104500087261  1.0000
  C   C4        1.0  0.5424977745241436  0.2802625055396959  0.5407356433696648  1.0000
  C   C5        1.0  0.4957098521149845  0.0435781710394565  0.4846434967703175  1.0000
  C   C6        1.0  0.5045365779726653  0.957025418358448  0.50666736611165  1.0000
  C   C7        1.0  0.5467615881628377  0.903445049549532  0.5756764139765524  1.0000
  C   C8        1.0  0.5799246693094063  0.9334458440183652  0.6197463404721049  1.0000
  C   C9        1.0  0.45566536058537815  0.09712974057701015  0.4144002279397938  1.0000
  C   C10       1.0  0.4280026408775939  0.06751483365949437  0.36675811384467494  1.0000
  C   C11       1.0  0.43685192415092183  0.9813041430944123  0.38545507635134163  1.0000
  C   C12       1.0  0.8886386361678619  0.5272703029292172  0.48409137226426685  1.0000
  C   C13       1.0  0.47344887994380247  0.9250563192015447  0.4577400578249851  1.0000
  C   C14       1.0  0.41125124845648736  0.9510182779082896  0.33331521781708073  1.0000
  C   C15       1.0  0.42523753391566277  0.8671809432164606  0.3525209091015143  1.0000
  C   C16       1.0  0.4685377956535531  0.44174919366342635  0.7247118471920971  1.0000
  C   C17       1.0  0.4789934238243631  0.8391957948233539  0.4786092504014904  1.0000
  C   C18       1.0  0.5526462208410478  0.5694194103985667  0.18227889187626548  1.0000
  C   C19       1.0  0.45831687913724284  0.4188172011925459  0.8167195092310707  1.0000
  C   C20       1.0  0.6035641424251778  0.661430562876383  0.036609198067182484  1.0000
  C   C21       1.0  0.5964821872712633  0.6404330649534486  0.12138461150946965  1.0000
  C   C22       1.0  0.5186611991532502  0.5199791371798455  0.1569688473137347  1.0000
  C   C23       1.0  0.1118764497311417  0.48793704193287357  0.5306993349085118  1.0000
  C   C24       1.0  0.5264770360781839  0.5384313022998909  0.07088804396025244  1.0000
  C   C25       1.0  0.5687754023366054  0.6117963430885708  0.009972787058963251  1.0000
  C   C26       1.0  0.494410912456189  0.4855524186270797  0.04362200127565067  1.0000
  C   C27       1.0  0.5027190881916397  0.5090047446962345  0.9558915027835582  1.0000
  C   C28       1.0  0.5415061612111387  0.5476269965519123  0.2741333793436311  1.0000
  C   C29       1.0  0.5428585879015773  0.5837212263867355  0.8967521874938527  1.0000
  C   C30       1.0  0.5753824913326966  0.6328244188899955  0.9222438242352738  1.0000
  C   C31       1.0  0.45721619490680604  0.40907994459188035  0.10263373922659018  1.0000
  C   C32       1.0  0.4326595887015258  0.3562517779321012  0.0768348435077115  1.0000
  C   C33       1.0  0.441659445885243  0.37659330056632706  0.9894089758887504  1.0000
  C   C34       1.0  0.8114498888153959  0.5243534670453373  0.4883983549015839  1.0000
  C   C35       1.0  0.473645433796186  0.45503032288002737  0.9280457022592402  1.0000
  C   C36       1.0  0.421100645013233  0.3202782220524227  0.9620661749566893  1.0000
  C   C37       1.0  0.4321729932169234  0.33931299289316996  0.8773163831733372  1.0000
  C   C38       1.0  0.47696208814739544  0.4757026028378845  0.8419832506126286  1.0000
  C   C39       1.0  0.28048169357141006  0.4942548066792296  0.519647189440896  1.0000
  C   C40       1.0  0.7211297354569197  0.5185821878730508  0.4927446520875023  1.0000
  C   C41       1.0  0.18877545192297876  0.49141964520205045  0.5272820392273873  1.0000
  C   C42       1.0  0.023826559140289298  0.48253440874063347  0.5363960980198855  1.0000
  C   C43       1.0  0.9777007260605188  0.534234235497294  0.4751141575623949  1.0000
  C   C44       1.0  0.3701981414168288  0.010447866753644097  0.25849532801625935  1.0000
  C   C45       1.0  0.5548215319641727  0.1901647650219331  0.5600937655724748  1.0000
  C   C46       1.0  0.3395613303455818  0.971131905597744  0.21075500886366424  1.0000
  C   C47       1.0  0.4573257427049385  0.8111225798979759  0.4259708588913965  1.0000
  C   C48       1.0  0.6080883732426088  0.05126229765404129  0.6441660611006483  1.0000
  C   C49       1.0  0.6002336493914625  0.13487050764584294  0.6247862235065044  1.0000
  C   C50       1.0  0.5202982243158871  0.1606949407925596  0.5150613894089702  1.0000
  O   O1        1.0  0.5043997818888356  0.4999356964352726  0.49906252489749664  1.0000
  O   O2        1.0  0.3030955164355261  0.5316149740799075  0.5570302065475021  1.0000
  O   O3        1.0  0.6873506892218018  0.5759542885479121  0.43244623356789447  1.0000
  O   O4        1.0  0.32907305976809204  0.4588521490435439  0.475914705557301  1.0000
  O   O5        1.0  0.6853098431334173  0.456788521385306  0.5562614452475074  1.0000
  O   O6        1.0  0.018032359599473597  0.5955483115968433  0.4025551225983506  1.0000
  O   O7        1.0  0.6163659885254019  0.7038258939159191  0.8662868736957706  1.0000
  O   O8        1.0  0.5096505217466643  0.38855055890262946  0.6981084356863931  1.0000
  O   O9        1.0  0.5826422303886433  0.588893307402749  0.29469773210363576  1.0000
  O   O10       1.0  0.4351115030779837  0.6711200567476537  0.521479574857146  1.0000
  O   O11       1.0  0.49056327967353747  0.3248957331887112  0.49061052463751775  1.0000
  O   O12       1.0  0.5128683636671028  0.6997108063039332  0.389097886895577  1.0000
  O   O13       1.0  0.5845330542001363  0.30596836886015655  0.5762230426800415  1.0000
  O   O14       1.0  0.436280926756595  0.5130657226052476  0.6794946792173988  1.0000
  O   O15       1.0  0.4914457563288933  0.48965024706671995  0.3252202904540341  1.0000
