data_image0
_chemical_formula_structural       Ag4H16C24N4O14
_chemical_formula_sum              "Ag4 H16 C24 N4 O14"
_cell_length_a       6.316552672571304
_cell_length_b       9.24651757830909
_cell_length_c       11.67917214521563
_cell_angle_alpha    90.27825298589369
_cell_angle_beta     99.04559037073058
_cell_angle_gamma    105.91783673453334

_space_group_name_H-M_alt    "P 1"
_space_group_IT_number       1

loop_
  _space_group_symop_operation_xyz
  'x, y, z'

loop_
  _atom_site_type_symbol
  _atom_site_label
  _atom_site_symmetry_multiplicity
  _atom_site_fract_x
  _atom_site_fract_y
  _atom_site_fract_z
  _atom_site_occupancy
  Ag  Ag1       1.0  0.7868004668661825  0.7113116655734828  0.19308818008078527  1.0000
  Ag  Ag2       1.0  0.21320255915251352  0.2886884538526219  0.8069129162223091  1.0000
  Ag  Ag3       1.0  0.9128041637335756  0.4997777341991709  0.3806845915289541  1.0000
  Ag  Ag4       1.0  0.08718994420327415  0.500220027595347  0.6193200231753337  1.0000
  H   H1        1.0  0.10311347867646249  0.39969780616157646  0.9991489568604164  1.0000
  H   H2        1.0  0.8968789816326891  0.6003000819031712  0.0008469618388459996  1.0000
  H   H3        1.0  0.7543029685659592  0.18048883209868188  0.9597549172283804  1.0000
  H   H4        1.0  0.245694353997834  0.819501186310376  0.04024299988789439  1.0000
  H   H5        1.0  0.7215275904046905  0.9608823215160811  0.08841161038132127  1.0000
  H   H6        1.0  0.27847729057044296  0.03911442217905401  0.9115904459489669  1.0000
  H   H7        1.0  0.7715857640133948  0.973472889264457  0.36109864069927505  1.0000
  H   H8        1.0  0.22841656353233475  0.026529474297035407  0.6389024303887537  1.0000
  H   H9        1.0  0.8739513009076848  0.131999549943501  0.5505885724832779  1.0000
  H   H10       1.0  0.12604898726725364  0.8680016129194642  0.44941659619436786  1.0000
  H   H11       1.0  0.6319268809463381  0.29597026188940856  0.5882222509939367  1.0000
  H   H12       1.0  0.3680635317085861  0.7040264522804381  0.41177605239598586  1.0000
  H   H13       1.0  0.2692204807795804  0.7925404734958762  0.22687616511469594  1.0000
  H   H14       1.0  0.7307887089103461  0.20746310060591366  0.7731220593638424  1.0000
  H   H15       1.0  0.2545361870140042  0.6234655423223857  0.19514096681422893  1.0000
  H   H16       1.0  0.7454734606864336  0.3765391443192173  0.8048581672613648  1.0000
  C   C1        1.0  0.4692109473988778  0.41711009821781175  0.16461456654789688  1.0000
  C   C2        1.0  0.5307872434212726  0.5828900515719511  0.8353827094266391  1.0000
  C   C3        1.0  0.2532158999288044  0.2936528838496032  0.14113280824000896  1.0000
  C   C4        1.0  0.7467779426953102  0.7063483150309795  0.858867552149384  1.0000
  C   C5        1.0  0.0831986530890276  0.30073028794177503  0.050983839589193294  1.0000
  C   C6        1.0  0.9167954341392531  0.6992675408617829  0.9490164928676845  1.0000
  C   C7        1.0  0.889217289011029  0.18102458763318205  0.030048074322614596  1.0000
  C   C8        1.0  0.1107790987590604  0.8189710181846552  0.9699515584100665  1.0000
  C   C9        1.0  0.8672700513347282  0.0580689317362157  0.0981304869144637  1.0000
  C   C10       1.0  0.13273046073580014  0.9419289280587861  0.9018703715832713  1.0000
  C   C11       1.0  0.22263461347737493  0.16999583293314663  0.21158844835125015  1.0000
  C   C12       1.0  0.7773729658602733  0.8300077468225949  0.7884087881675936  1.0000
  C   C13       1.0  0.3859999015806751  0.15825348735867104  0.3144380773412863  1.0000
  C   C14       1.0  0.6140014828879288  0.8417544904152267  0.6855629964641919  1.0000
  C   C15       1.0  0.6821205144117146  0.051772688204579316  0.3838773655776179  1.0000
  C   C16       1.0  0.3178797323460785  0.9482286086764802  0.616119238605222  1.0000
  C   C17       1.0  0.7347644343741141  0.14022076751118115  0.4854533712026593  1.0000
  C   C18       1.0  0.2652317212169564  0.8597781681782453  0.5145488588109685  1.0000
  C   C19       1.0  0.6022938038448801  0.23257039834575727  0.5058029864905009  1.0000
  C   C20       1.0  0.39770487397778004  0.7674307701711599  0.49420119422745756  1.0000
  C   C21       1.0  0.4249880127482656  0.24098028547874864  0.42016485901106637  1.0000
  C   C22       1.0  0.5750070029261849  0.7590197281990144  0.5798398619883685  1.0000
  C   C23       1.0  0.2755432516035512  0.33450468316969056  0.44708220202826243  1.0000
  C   C24       1.0  0.7244558988605762  0.6654897988004363  0.5529184970267522  1.0000
  N   N1        1.0  0.0304175528663109  0.05476379561558531  0.1886404206441057  1.0000
  N   N2        1.0  0.9695820202688026  0.9452396649900123  0.8113612970205535  1.0000
  N   N3        1.0  0.5078258919047799  0.05866594508359672  0.30086849252479897  1.0000
  N   N4        1.0  0.4921739051259308  0.9413342124540308  0.6991289149599494  1.0000
  O   O1        1.0  0.4550119866381693  0.550930898733654  0.14264076860737868  1.0000
  O   O2        1.0  0.5449930663261783  0.44907046159641356  0.8573536607576597  1.0000
  O   O3        1.0  0.6456911219704652  0.38266336992627004  0.20192353067347565  1.0000
  O   O4        1.0  0.3543024741135881  0.6173334535519501  0.7980690405904979  1.0000
  O   O5        1.0  0.006241369718054456  0.9404354428737206  0.25765344218042685  1.0000
  O   O6        1.0  0.9937616645840636  0.059564649748765  0.7423493670216386  1.0000
  O   O7        1.0  0.45657413107038985  0.9704093804236394  0.20673338187725673  1.0000
  O   O8        1.0  0.5434422192101708  0.029591859917907505  0.7932731019025351  1.0000
  O   O9        1.0  0.1583303246999393  0.37594233702810004  0.36219395861819953  1.0000
  O   O10       1.0  0.8416635386327443  0.6240587948434352  0.6378106840185964  1.0000
  O   O11       1.0  0.2803304786821458  0.36056218622552194  0.5548565038463166  1.0000
  O   O12       1.0  0.7196693307737049  0.6394379311066773  0.4451434729868779  1.0000
  O   O13       1.0  0.1738685169207557  0.6875235216036801  0.22803113039253728  1.0000
  O   O14       1.0  0.8261443473425207  0.3124811671318356  0.7719691231529635  1.0000
