data_image0
_chemical_formula_structural       CaH24C18N4O8
_chemical_formula_sum              "Ca1 H24 C18 N4 O8"
_cell_length_a       6.27007410508818
_cell_length_b       7.759756611146717
_cell_length_c       11.657006892610067
_cell_angle_alpha    80.07288456098446
_cell_angle_beta     79.13823919209231
_cell_angle_gamma    68.19453495332249

_space_group_name_H-M_alt    "P 1"
_space_group_IT_number       1

loop_
  _space_group_symop_operation_xyz
  'x, y, z'

loop_
  _atom_site_type_symbol
  _atom_site_label
  _atom_site_symmetry_multiplicity
  _atom_site_fract_x
  _atom_site_fract_y
  _atom_site_fract_z
  _atom_site_occupancy
  Ca  Ca1       1.0  9.092837345014749e-07  1.7739590773999067e-06  0.49999980985460707  1.0000
  H   H1        1.0  0.17098346584416654  0.3143340576509246  0.4823067341324786  1.0000
  H   H2        1.0  0.8290062845154439  0.6856638454417593  0.5176948309846239  1.0000
  H   H3        1.0  0.9344385835193594  0.3948874332975052  0.4290015446559464  1.0000
  H   H4        1.0  0.06554731836799024  0.6051118316197447  0.5709993839303421  1.0000
  H   H5        1.0  0.839568976472208  0.2626029026380934  0.7225884563871573  1.0000
  H   H6        1.0  0.16044088117779864  0.7374008282992648  0.2774113423548457  1.0000
  H   H7        1.0  0.11779394940111831  0.6064390769971201  0.9600581403052502  1.0000
  H   H8        1.0  0.8822124348452436  0.39357584859385497  0.039945875326431186  1.0000
  H   H9        1.0  0.09546014176606836  0.5179600828844144  0.7654555014309635  1.0000
  H   H10       1.0  0.9045402254803321  0.48203934064289905  0.234550001837313  1.0000
  H   H11       1.0  0.4995604960839587  0.16106555438040715  0.36171441002251464  1.0000
  H   H12       1.0  0.5004352225993999  0.8389408303702623  0.6382830368518952  1.0000
  H   H13       1.0  0.9281063142513805  0.9256051545033729  0.13261492859473376  1.0000
  H   H14       1.0  0.07188844412151241  0.07438157524121179  0.867388272492505  1.0000
  H   H15       1.0  0.757444858628219  0.08411271612500569  0.025416436933348073  1.0000
  H   H16       1.0  0.24255972821698174  0.915881132861216  0.9745824234945815  1.0000
  H   H17       1.0  0.7164525379282339  0.8671626396939375  0.08093669770534007  1.0000
  H   H18       1.0  0.28353397974402134  0.1328352290726116  0.9190651869562244  1.0000
  H   H19       1.0  0.23566292839679187  0.20727268791938513  0.25729461505289913  1.0000
  H   H20       1.0  0.764329977401957  0.7927364701942919  0.7426985026008949  1.0000
  H   H21       1.0  0.29086633994194244  0.023303101846764207  0.17068609242652844  1.0000
  H   H22       1.0  0.7091295441805343  0.97671029739179  0.8293053955796308  1.0000
  H   H23       1.0  0.31563356477017385  0.2407483772639907  0.10122795626607228  1.0000
  H   H24       1.0  0.6843735150240916  0.7592581252610414  0.8987649364130089  1.0000
  C   C1        1.0  0.4667295004583282  0.3823810682559311  0.728967760849862  1.0000
  C   C2        1.0  0.5332770407992414  0.6176156097249503  0.2710323036728041  1.0000
  C   C3        1.0  0.675956341528945  0.33953592900729757  0.7731615344641936  1.0000
  C   C4        1.0  0.32404987530726  0.6604649593230008  0.22684237363990423  1.0000
  C   C5        1.0  0.48989953541609316  0.47803132435660695  0.9421441032787994  1.0000
  C   C6        1.0  0.5101157520209796  0.5219710636945863  0.057858749064095584  1.0000
  C   C7        1.0  0.27274941841675127  0.5305414950544715  0.9040070938226563  1.0000
  C   C8        1.0  0.7272685929804298  0.46946934092034814  0.09599281876943172  1.0000
  C   C9        1.0  0.2617354621163841  0.48212652415399754  0.7963958846775439  1.0000
  C   C10       1.0  0.7382655676200898  0.5178715008554988  0.2036071388762721  1.0000
  C   C11       1.0  0.46329997239642057  0.3165709960107321  0.6153387484685594  1.0000
  C   C12       1.0  0.5366932766904567  0.6834227340175687  0.3846629482598302  1.0000
  C   C13       1.0  0.6466794585317359  0.08879593638560117  0.29829282430299736  1.0000
  C   C14       1.0  0.3533332353554642  0.911205020005191  0.7017095857647533  1.0000
  C   C15       1.0  0.757039243337232  0.9821614222322241  0.10362023753470598  1.0000
  C   C16       1.0  0.24296364345921262  0.017825390960588498  0.896378728901659  1.0000
  C   C17       1.0  0.3431608242419913  0.1397849252386152  0.18055502044670388  1.0000
  C   C18       1.0  0.6568326973416635  0.8602228367243469  0.8194390532823589  1.0000
  N   N1        1.0  0.6891992185844134  0.38538300733019776  0.876434263269516  1.0000
  N   N2        1.0  0.3108120127219395  0.6146249469771944  0.12356320664964932  1.0000
  N   N3        1.0  0.5855957563994778  0.07136627310809021  0.19794350495624966  1.0000
  N   N4        1.0  0.4143976114213502  0.9286344737752046  0.802055668693626  1.0000
  O   O1        1.0  0.6357906793731088  0.18088126708827448  0.5782742897926878  1.0000
  O   O2        1.0  0.36422332781794614  0.8191168928586521  0.4217240197935652  1.0000
  O   O3        1.0  0.07433082586558735  0.2793961367769882  0.4371495518032801  1.0000
  O   O4        1.0  0.9256680885052191  0.7206032613023651  0.5628440859731467  1.0000
  O   O5        1.0  0.28218677483994276  0.3995304981940678  0.5653314344386258  1.0000
  O   O6        1.0  0.7177911531202881  0.6004462418852509  0.43468998463625746  1.0000
  O   O7        1.0  0.8515049742517816  0.029913168258794098  0.3205927812388154  1.0000
  O   O8        1.0  0.14846678866892665  0.9700887504717671  0.6794057954798872  1.0000
