data_image0
_chemical_formula_structural       Cd3H12C20S6N14
_chemical_formula_sum              "Cd3 H12 C20 S6 N14"
_cell_length_a       7.0123059989564425
_cell_length_b       8.450958101788235
_cell_length_c       13.796206612352684
_cell_angle_alpha    87.02562401167924
_cell_angle_beta     84.4564973697774
_cell_angle_gamma    68.44655258883458

_space_group_name_H-M_alt    "P 1"
_space_group_IT_number       1

loop_
  _space_group_symop_operation_xyz
  'x, y, z'

loop_
  _atom_site_type_symbol
  _atom_site_label
  _atom_site_symmetry_multiplicity
  _atom_site_fract_x
  _atom_site_fract_y
  _atom_site_fract_z
  _atom_site_occupancy
  Cd  Cd1       1.0  0.5000053929266955  5.418133632404096e-06  0.9999980570612476  1.0000
  Cd  Cd2       1.0  0.35863657484550543  0.4670594236144011  0.3160417847536365  1.0000
  Cd  Cd3       1.0  0.6413654951802386  0.5329408075771199  0.6839565080386903  1.0000
  H   H1        1.0  0.07619652145751846  0.6292693534561663  0.5515746287931902  1.0000
  H   H2        1.0  0.9237912444932663  0.37072438549716225  0.44842667654272345  1.0000
  H   H3        1.0  0.7820158463457293  0.9538068400210095  0.558641122585321  1.0000
  H   H4        1.0  0.21797734813118552  0.04618438169331541  0.4413600017057745  1.0000
  H   H5        1.0  0.7043256245383277  0.035663993221319905  0.36823035001579996  1.0000
  H   H6        1.0  0.2956692679432964  0.9643297718278915  0.6317728006362129  1.0000
  H   H7        1.0  0.2486273171107243  0.5179848682328512  0.07451627511449027  1.0000
  H   H8        1.0  0.7513630144937128  0.4820063284712219  0.9254857067069364  1.0000
  H   H9        1.0  0.959253699117568  0.700242817117612  0.9740817623639298  1.0000
  H   H10       1.0  0.04074522196246736  0.2997548350513454  0.02591747137750389  1.0000
  H   H11       1.0  0.6391326267077846  0.9598704120576328  0.222570506299995  1.0000
  H   H12       1.0  0.36087314211899724  0.0401374796867486  0.777429579899781  1.0000
  C   C1        1.0  0.0013846179205784883  0.7102122653306041  0.4921575142627645  1.0000
  C   C2        1.0  0.9986148401528468  0.28977769425319616  0.5078462554103067  1.0000
  C   C3        1.0  0.8512656154105472  0.8765842758029764  0.4951449908606448  1.0000
  C   C4        1.0  0.14872896956485707  0.12341328917371192  0.5048609689152668  1.0000
  C   C5        1.0  0.8090613026732784  0.9200144374837436  0.39975542214208554  1.0000
  C   C6        1.0  0.19093618418412464  0.07998319886829108  0.6002446030137775  1.0000
  C   C7        1.0  0.9394607861200516  0.7629871846565521  0.24423060525480614  1.0000
  C   C8        1.0  0.060538095950462896  0.23701042114729634  0.7557737055763452  1.0000
  C   C9        1.0  0.11270222598102475  0.6174927123807945  0.10733577094870837  1.0000
  C   C10       1.0  0.887292672931565  0.38250743972614015  0.8926664789157709  1.0000
  C   C11       1.0  0.9534501185753046  0.7163728588782021  0.05232232800002377  1.0000
  C   C12       1.0  0.046548214498059806  0.283626045829486  0.9476790729855648  1.0000
  C   C13       1.0  0.5096778234196577  0.2992450442644667  0.5338278525090344  1.0000
  C   C14       1.0  0.4903105712636703  0.7007602493835066  0.4661658575150012  1.0000
  C   C15       1.0  0.24394685094454624  0.15191443275083563  0.21933654090918958  1.0000
  C   C16       1.0  0.7560658076367661  0.848084610255249  0.7806591218276963  1.0000
  C   C17       1.0  0.6072947634826562  0.30434702760623367  0.10460226583212055  1.0000
  C   C18       1.0  0.39271952708808316  0.6956608596858446  0.8954039513590499  1.0000
  C   C19       1.0  0.7769357209482665  0.8628676848767114  0.18950348847992865  1.0000
  C   C20       1.0  0.22307377282714222  0.13713513967019245  0.81049511561266  1.0000
  S   S1        1.0  0.685963258329437  0.40089370663743296  0.18246091349721638  1.0000
  S   S2        1.0  0.31404420850206105  0.5991167284418496  0.8175411990634769  1.0000
  S   S3        1.0  0.22015875865026402  0.0078059342475001  0.15224629909312878  1.0000
  S   S4        1.0  0.7798542027226536  0.9921956826416717  0.8477471043293786  1.0000
  S   S5        1.0  0.5302089953692075  0.2606866731124313  0.6500133601418906  1.0000
  S   S6        1.0  0.46976569139314256  0.7393300236846228  0.34997994341603084  1.0000
  N   N1        1.0  0.5007523839576679  0.3211499881659066  0.4487254975629325  1.0000
  N   N2        1.0  0.49925888498332704  0.6788490920119584  0.5512651542001308  1.0000
  N   N3        1.0  0.5466052607165679  0.2392601928034352  0.0467106489292277  1.0000
  N   N4        1.0  0.4533993479570741  0.7607438434550388  0.9532917713522688  1.0000
  N   N5        1.0  0.26307953543462054  0.2534358321057156  0.269524261757553  1.0000
  N   N6        1.0  0.7369342490049249  0.746560646210625  0.7304735941778019  1.0000
  N   N7        1.0  0.10478898599301088  0.6409287019429543  0.20317613193078182  1.0000
  N   N8        1.0  0.8952116489519284  0.35906513299750736  0.7968231277649804  1.0000
  N   N9        1.0  0.049706353860486434  0.6539045010880712  0.4010613591631368  1.0000
  N   N10       1.0  0.9502951217276276  0.3460905955844567  0.5989400016608782  1.0000
  N   N11       1.0  0.9321122831180734  0.783996444068812  0.3444006548086306  1.0000
  N   N12       1.0  0.06788604352432517  0.2159960735811453  0.6556016469644913  1.0000
  N   N13       1.0  0.7864808758307335  0.8375498177337946  0.09433550659381498  1.0000
  N   N14       1.0  0.21352315040902434  0.1624554776870042  0.9056683556333025  1.0000
