data_image0
_chemical_formula_structural       Al2H16C28O18
_chemical_formula_sum              "Al2 H16 C28 O18"
_cell_length_a       6.64245577027881
_cell_length_b       11.045004474922855
_cell_length_c       17.770022417608047
_cell_angle_alpha    82.48324827361455
_cell_angle_beta     79.27300514500865
_cell_angle_gamma    72.65206202040135

_space_group_name_H-M_alt    "P 1"
_space_group_IT_number       1

loop_
  _space_group_symop_operation_xyz
  'x, y, z'

loop_
  _atom_site_type_symbol
  _atom_site_label
  _atom_site_symmetry_multiplicity
  _atom_site_fract_x
  _atom_site_fract_y
  _atom_site_fract_z
  _atom_site_occupancy
  Al  Al1       1.0  0.5079288182777547  0.48623003906718043  0.5158157559557708  1.0000
  Al  Al2       1.0  0.006452852139318627  0.4887593041669475  0.5142320004792109  1.0000
  H   H1        1.0  0.2698882536749777  0.372991448619949  0.596715364020987  1.0000
  H   H2        1.0  0.7212495130486474  0.622590645163534  0.44371630851156135  1.0000
  H   H3        1.0  0.7136670835688504  0.4324805850948651  0.28445192423344406  1.0000
  H   H4        1.0  0.7847857108440836  0.43820195133734785  0.1416939029384423  1.0000
  H   H5        1.0  0.10485944848997517  0.5852541400886794  0.13677722671646816  1.0000
  H   H6        1.0  0.9022108665071898  0.4946414382612901  0.887018893206502  1.0000
  H   H7        1.0  0.3051106255354909  0.5162135756858462  0.7488459326973569  1.0000
  H   H8        1.0  0.23583406217862546  0.5267039255766904  0.8899453333752376  1.0000
  H   H9        1.0  0.996411999997932  0.5647685891072101  0.33890912363307985  1.0000
  H   H10       1.0  0.0036007020038155784  0.48176027895782886  0.6852364139366711  1.0000
  H   H11       1.0  0.7785541499548787  0.7755060154696379  0.543792752432587  1.0000
  H   H12       1.0  0.5731445252469458  0.2034818104102172  0.5338216356252444  1.0000
  H   H13       1.0  0.4329221258846304  0.699248298844303  0.42162792757172696  1.0000
  H   H14       1.0  0.7207295737835439  0.792040522187911  0.291417923574727  1.0000
  H   H15       1.0  0.46682532877623123  0.23412171507843743  0.27724854550163497  1.0000
  H   H16       1.0  0.13726507241116787  0.3053126944031135  0.40178870062303657  1.0000
  C   C1        1.0  0.8835456367641683  0.2602231804792723  0.49379828101666584  1.0000
  C   C2        1.0  0.6765914967246403  0.49032463176690305  0.6541811869043952  1.0000
  C   C3        1.0  0.13640977157793086  0.7223570793786892  0.5035575352981709  1.0000
  C   C4        1.0  0.33705894871760483  0.4951052975046437  0.3751299643412763  1.0000
  C   C5        1.0  0.37180678473696094  0.5022249144157983  0.2912640760713358  1.0000
  C   C6        1.0  0.5822939060766573  0.4651171066123895  0.251311026854573  1.0000
  C   C7        1.0  0.6222687336111433  0.4688852937958643  0.1721184118429733  1.0000
  C   C8        1.0  0.4493374732804867  0.5120950548310361  0.1298096277621426  1.0000
  C   C9        1.0  0.23910636284769268  0.5511645967886808  0.168523041810424  1.0000
  C   C10       1.0  0.1984749559564278  0.545988689369878  0.24868995553493528  1.0000
  C   C11       1.0  0.48890717012719154  0.5140865334597181  0.04874420736425828  1.0000
  C   C12       1.0  0.5259542012306611  0.5133605465178804  0.97885774769167  1.0000
  C   C13       1.0  0.5648667195220086  0.5105386172753086  0.8980658405783685  1.0000
  C   C14       1.0  0.7708043049294558  0.4994239064888859  0.8571305431744562  1.0000
  C   C15       1.0  0.809988075808562  0.4938852954756783  0.7774516356229809  1.0000
  C   C16       1.0  0.6409459097180273  0.49905727691832874  0.7372867570778894  1.0000
  C   C17       1.0  0.4346998014961231  0.5120125757180105  0.7793099135267525  1.0000
  C   C18       1.0  0.39549446844012676  0.5176752602692645  0.8579515503017561  1.0000
  C   C19       1.0  0.9394925304449799  0.12967585698297063  0.4718060307812948  1.0000
  C   C20       1.0  0.13986792422764438  0.0662536964033293  0.4259432503244013  1.0000
  C   C21       1.0  0.7925003491136522  0.06003293519587059  0.502841615494674  1.0000
  C   C22       1.0  0.25649402960233664  0.1346899527590963  0.37116979378838977  1.0000
  C   C23       1.0  0.4447688924524229  0.07507140972864335  0.32431809954808694  1.0000
  C   C24       1.0  0.07239893871386706  0.8578718162564487  0.4779796829051079  1.0000
  C   C25       1.0  0.859037329718525  0.9238382382938186  0.5056302113792553  1.0000
  C   C26       1.0  0.2116957895336427  0.9281934196043263  0.43021869746225866  1.0000
  C   C27       1.0  0.401780031668565  0.871536740277236  0.3807826339385869  1.0000
  C   C28       1.0  0.5193669488026771  0.9423114400545742  0.32969949199972587  1.0000
  O   O1        1.0  0.6858330126493969  0.3149124493706097  0.5206511269102875  1.0000
  O   O2        1.0  0.8723051625556336  0.47077207063374266  0.618244410495997  1.0000
  O   O3        1.0  0.9912798609605741  0.6636524679038233  0.528602841389386  1.0000
  O   O4        1.0  0.4953506479947194  0.4687631528456322  0.4110466066359564  1.0000
  O   O5        1.0  0.33561189853806184  0.6614918580404138  0.5032144938337665  1.0000
  O   O6        1.0  0.14044950196981876  0.51773079945594  0.41053050069242397  1.0000
  O   O7        1.0  0.027986046156172548  0.3178040104299953  0.49136673689471166  1.0000
  O   O8        1.0  0.5191114811989055  0.5006118810823921  0.620073107567407  1.0000
  O   O9        1.0  0.26884994256408123  0.42600254702842494  0.5487100329393113  1.0000
  O   O10       1.0  0.7437090230883853  0.5491790742231827  0.4812463089075719  1.0000
  O   O11       1.0  0.9921894312054393  0.5837257799270076  0.28274499526987995  1.0000
  O   O12       1.0  0.010769109138088671  0.48393646632712967  0.7407038688085521  1.0000
  O   O13       1.0  0.709174640443848  0.8695755818499297  0.5427052846001883  1.0000
  O   O14       1.0  0.5929484397417681  0.109494221300487  0.5377613399486094  1.0000
  O   O15       1.0  0.48485399176127686  0.7429890419176461  0.37249916897871316  1.0000
  O   O16       1.0  0.6991959349192599  0.8843133714227347  0.282740867097182  1.0000
  O   O17       1.0  0.5500847737718361  0.1448704890014696  0.2719435193314297  1.0000
  O   O18       1.0  0.19025100254167868  0.26405245597316457  0.35288039464821  1.0000
