data_image0
_chemical_formula_structural       Ba2H32C32N20O12
_chemical_formula_sum              "Ba2 H32 C32 N20 O12"
_cell_length_a       7.033456155012016
_cell_length_b       11.075464296592946
_cell_length_c       13.974591099319431
_cell_angle_alpha    105.31664335685976
_cell_angle_beta     89.99990587154645
_cell_angle_gamma    89.99984246058135

_space_group_name_H-M_alt    "P 1"
_space_group_IT_number       1

loop_
  _space_group_symop_operation_xyz
  'x, y, z'

loop_
  _atom_site_type_symbol
  _atom_site_label
  _atom_site_symmetry_multiplicity
  _atom_site_fract_x
  _atom_site_fract_y
  _atom_site_fract_z
  _atom_site_occupancy
  Ba  Ba1       1.0  0.9055461781764081  0.943854432392996  0.5526660187184973  1.0000
  Ba  Ba2       1.0  0.4055479917149328  0.056145755302182486  0.447333132810961  1.0000
  H   H1        1.0  0.4951229705633082  0.1298917692390447  0.20268874957161392  1.0000
  H   H2        1.0  0.995123521075378  0.8701083216821387  0.7973038677339517  1.0000
  H   H3        1.0  0.5007281208596339  0.032821329293597  0.0190396228018699  1.0000
  H   H4        1.0  0.0007327941419462002  0.9671760732419303  0.9809542385058877  1.0000
  H   H5        1.0  0.8070334443233805  0.9015877977230674  0.17206240786309482  1.0000
  H   H6        1.0  0.30703525622674027  0.09841448785699207  0.8279365656042331  1.0000
  H   H7        1.0  0.8119786530564072  0.8189952291885519  0.9869624324492393  1.0000
  H   H8        1.0  0.3119870310640564  0.18100609857314962  0.013037043568651506  1.0000
  H   H9        1.0  0.16737832907654135  0.7287802771387604  0.06999485884398379  1.0000
  H   H10       1.0  0.6673781874355741  0.2712185028982859  0.9300077560697133  1.0000
  H   H11       1.0  0.17048295404176633  0.8399894143236892  0.2504205949263678  1.0000
  H   H12       1.0  0.6704725063461865  0.1600131361300328  0.749580693630648  1.0000
  H   H13       1.0  0.6251008089347748  0.5598216788573537  0.20695631429220643  1.0000
  H   H14       1.0  0.12509130752013684  0.44018092675046455  0.7930478855170406  1.0000
  H   H15       1.0  0.6207208192075271  0.46421853119392154  0.0252512605548816  1.0000
  H   H16       1.0  0.12071173457992761  0.5357812647644593  0.9747530451060769  1.0000
  H   H17       1.0  0.45490328261835344  0.6932500025744303  0.6268041074430003  1.0000
  H   H18       1.0  0.9549104903835542  0.3067454408738683  0.37319110603160516  1.0000
  H   H19       1.0  0.6329505492092551  0.7986878659488709  0.6928197323197977  1.0000
  H   H20       1.0  0.1329578805087976  0.20130452411729033  0.30717579047576754  1.0000
  H   H21       1.0  0.5265088214944882  0.4209675173884193  0.6018171014036752  1.0000
  H   H22       1.0  0.0265142262475848  0.5790306336729287  0.3981854900638169  1.0000
  H   H23       1.0  0.4832712496662311  0.328481737831936  0.6863276016606933  1.0000
  H   H24       1.0  0.983271390486827  0.671518203792033  0.3136764427676155  1.0000
  H   H25       1.0  0.19157285967543203  0.1935714235634336  0.6761779106684928  1.0000
  H   H26       1.0  0.6915738070700357  0.8064292196770921  0.32382222887720497  1.0000
  H   H27       1.0  0.070080740634296  0.22462275759188094  0.5908269824379744  1.0000
  H   H28       1.0  0.5700829654807933  0.7753781505162823  0.40917331311980837  1.0000
  H   H29       1.0  0.8246718887955496  0.6309267247345574  0.597733786547785  1.0000
  H   H30       1.0  0.324659703052994  0.36908010431251626  0.4022726051680082  1.0000
  H   H31       1.0  0.7187511081170258  0.646961168195773  0.5038556272645138  1.0000
  H   H32       1.0  0.21874010723379908  0.3530430835195019  0.4961502874511511  1.0000
  C   C1        1.0  0.4220382339217893  0.0418281880212206  0.17016451863219123  1.0000
  C   C2        1.0  0.9220382983950087  0.9581738906189516  0.8298314541781977  1.0000
  C   C3        1.0  0.4241803957429795  0.9885914920020014  0.06835649443589632  1.0000
  C   C4        1.0  0.9241827915887909  0.011404965461522896  0.9316382495891632  1.0000
  C   C5        1.0  0.7678936365460274  0.8047057774526608  0.13648247545394554  1.0000
  C   C6        1.0  0.26789207084843986  0.19529749670707017  0.8635188923472301  1.0000
  C   C7        1.0  0.771136974027236  0.7589882605217682  0.03373089874623495  1.0000
  C   C8        1.0  0.2711391413617932  0.24101220925702904  0.9662691386272045  1.0000
  C   C9        1.0  0.23935408792441143  0.8182943237165858  0.09595060535010447  1.0000
  C   C10       1.0  0.7393529953727266  0.18170712954868412  0.9040511036658359  1.0000
  C   C11       1.0  0.7172190881566821  0.6347302836360528  0.9905401231039548  1.0000
  C   C12       1.0  0.2172167303234147  0.3652711959958522  0.009463040825138972  1.0000
  C   C13       1.0  0.7154577875695906  0.5865911619452433  0.8824837964980718  1.0000
  C   C14       1.0  0.2154562914737284  0.4134065990816611  0.11751712584900534  1.0000
  C   C15       1.0  0.24283572140301146  0.8795660494190473  0.1965735512208227  1.0000
  C   C16       1.0  0.7428309560021946  0.12043637612778471  0.8034255046896065  1.0000
  C   C17       1.0  0.33529704409443184  0.8138906570071427  0.9236490683234706  1.0000
  C   C18       1.0  0.8353028967611209  0.18610687558416567  0.0763495603966362  1.0000
  C   C19       1.0  0.3314609979641077  0.8740290523004861  0.029755827227560934  1.0000
  C   C20       1.0  0.8314627736270384  0.12596758541238268  0.9702404623505032  1.0000
  C   C21       1.0  0.6648621639553197  0.6150946308866736  0.1558608082714343  1.0000
  C   C22       1.0  0.1648555779827134  0.3849069738409197  0.844141709650053  1.0000
  C   C23       1.0  0.6623942423555604  0.5615889860915502  0.053851611306313864  1.0000
  C   C24       1.0  0.16238424934154239  0.43841261307416357  0.9461516230304667  1.0000
  C   C25       1.0  0.39101248833625146  0.8869380728305458  0.6408678132430623  1.0000
  C   C26       1.0  0.8910219994519722  0.11305838031368151  0.3591319660773209  1.0000
  C   C27       1.0  0.48036558833483417  0.783311686709638  0.6810939782196997  1.0000
  C   C28       1.0  0.9803747834981635  0.21668274324928669  0.3189024247055272  1.0000
  C   C29       1.0  0.5923896622098184  0.37914520270800267  0.6567561426800596  1.0000
  C   C30       1.0  0.0923922220910427  0.6208546768953838  0.34324677286669203  1.0000
  C   C31       1.0  0.7508781706845794  0.28895433464204956  0.6038327672876775  1.0000
  C   C32       1.0  0.2508787470660394  0.7110471044433665  0.3961682136847031  1.0000
  N   N1        1.0  0.3978541002180194  0.7748725945893187  0.7737082804573703  1.0000
  N   N2        1.0  0.89786213918034  0.2251220262029179  0.2262875151809567  1.0000
  N   N3        1.0  0.7819712813572509  0.6515890025467499  0.81894942887957  1.0000
  N   N4        1.0  0.28197128031973756  0.3484104856381975  0.18105181673156076  1.0000
  N   N5        1.0  0.4264300532767323  0.8621008269085022  0.8577296435872483  1.0000
  N   N6        1.0  0.926437320801128  0.1378946567231694  0.1422670329388325  1.0000
  N   N7        1.0  0.6611947474357437  0.47832928824215065  0.7391493654858792  1.0000
  N   N8        1.0  0.16119658216104682  0.5216713993337407  0.2608522395568968  1.0000
  N   N9        1.0  0.7471124719569959  0.5819073700263714  0.7286800707248845  1.0000
  N   N10       1.0  0.2471147194673335  0.4180921941529831  0.2713212196483994  1.0000
  N   N11       1.0  0.2534812521546145  0.7014880152673084  0.8792602164043475  1.0000
  N   N12       1.0  0.7534878968624666  0.29850969569248775  0.1207385173781859  1.0000
  N   N13       1.0  0.29449543505170783  0.6774395952437473  0.7840104441290664  1.0000
  N   N14       1.0  0.7945030871953307  0.3225561541305879  0.215987828307199  1.0000
  N   N15       1.0  0.7162562019111008  0.7345966446938448  0.1972043206058558  1.0000
  N   N16       1.0  0.2162502663768535  0.2654048589331807  0.8027974180741211  1.0000
  N   N17       1.0  0.6399191412087858  0.47611854193389297  0.8330810132605394  1.0000
  N   N18       1.0  0.1399184291246769  0.5238821810824419  0.1669213323486858  1.0000
  N   N19       1.0  0.3334011419684018  0.9886835045783686  0.23403285926729478  1.0000
  N   N20       1.0  0.8333969695324157  0.011319681499095697  0.7659648581949909  1.0000
  O   O1        1.0  0.215974720273735  0.9065102433688708  0.655705926225579  1.0000
  O   O2        1.0  0.7159744117822912  0.09348941058971859  0.3442939776466858  1.0000
  O   O3        1.0  0.5042370156559458  0.9392226674127144  0.5936069668063695  1.0000
  O   O4        1.0  0.0042389427109768  0.0607755978839322  0.40639137379977797  1.0000
  O   O5        1.0  0.9098525632121978  0.3358953789082689  0.5923307030918252  1.0000
  O   O6        1.0  0.40985756996451533  0.6641038414189495  0.4076696650546552  1.0000
  O   O7        1.0  0.701743301797876  0.1746612666163969  0.5759509585201458  1.0000
  O   O8        1.0  0.20174613766690896  0.8253393435031455  0.4240498812080133  1.0000
  O   O9        1.0  0.835756063088006  0.6695032126155384  0.541985990294002  1.0000
  O   O10       1.0  0.3357452838017778  0.3305017419890603  0.4580185520216986  1.0000
  O   O11       1.0  0.16256881475596432  0.16156506558799316  0.6032663570804502  1.0000
  O   O12       1.0  0.6625693863063375  0.8384356408856278  0.3967338197107395  1.0000
