data_image0
_chemical_formula_structural       Al2H9C12N2O10F
_chemical_formula_sum              "Al2 H9 C12 N2 O10 F1"
_cell_length_a       6.710580589879127
_cell_length_b       8.810274188040413
_cell_length_c       11.154440455370978
_cell_angle_alpha    105.84038065091814
_cell_angle_beta     72.06887674601981
_cell_angle_gamma    75.15004276974814

_space_group_name_H-M_alt    "P 1"
_space_group_IT_number       1

loop_
  _space_group_symop_operation_xyz
  'x, y, z'

loop_
  _atom_site_type_symbol
  _atom_site_label
  _atom_site_symmetry_multiplicity
  _atom_site_fract_x
  _atom_site_fract_y
  _atom_site_fract_z
  _atom_site_occupancy
  Al  Al1       1.0  0.9994773280210932  0.4997916708185953  0.5005450313270643  1.0000
  Al  Al2       1.0  0.4974046365330196  0.5015467490123838  0.5037306752430196  1.0000
  H   H1        1.0  0.8780104510883497  0.36259688870607926  0.3317590478426808  1.0000
  H   H2        1.0  0.10456029641738933  0.6825282216207498  0.6582741412032007  1.0000
  H   H3        1.0  0.2145648075557885  0.5522796627951793  0.9057347296632727  1.0000
  H   H4        1.0  0.8987289866115231  0.4593477306540377  0.8643121261216106  1.0000
  H   H5        1.0  0.11541319497479205  0.5304397602588153  0.13462131746370426  1.0000
  H   H6        1.0  0.27847552597318515  0.8517674540234097  0.4734236650344953  1.0000
  H   H7        1.0  0.14785203255966903  0.021035343339683276  0.4367030477775415  1.0000
  H   H8        1.0  0.7233498511752426  0.14814993057032663  0.5248493118661841  1.0000
  H   H9        1.0  0.8546072462004868  0.9803477528731294  0.5638040794267241  1.0000
  C   C1        1.0  0.3606181266138789  0.20753137469306887  0.48022590902491646  1.0000
  C   C2        1.0  0.37697511898014796  0.47432408461193626  0.26682052375860366  1.0000
  C   C3        1.0  0.635254857525403  0.7956953907874007  0.5263397304474606  1.0000
  C   C4        1.0  0.6255150898440787  0.5221756725884672  0.735411897919455  1.0000
  C   C5        1.0  0.4481845240619291  0.48190495613123113  0.128540955606752  1.0000
  C   C6        1.0  0.5612167327765076  0.5101938677273309  0.8721844803205554  1.0000
  C   C7        1.0  0.66857731723514  0.46164891948702547  0.04916265956379103  1.0000
  C   C8        1.0  0.34067681209823053  0.5281765156689886  0.9476242668131505  1.0000
  C   C9        1.0  0.726228246238264  0.47625573877635924  0.9235008794877898  1.0000
  C   C10       1.0  0.28616620589360037  0.5151766482863634  0.07403575160963524  1.0000
  C   C11       1.0  0.40405991685541637  0.04064533981312478  0.49201732546748633  1.0000
  C   C12       1.0  0.592083537831705  0.9622528698187195  0.5136154006677315  1.0000
  N   N1        1.0  0.23912533026754076  0.9758132992651197  0.4855625459180288  1.0000
  N   N2        1.0  0.7575231736202495  0.026276707015156785  0.5182639008195054  1.0000
  O   O1        1.0  0.18000674887326074  0.2715862561571782  0.46514635780636837  1.0000
  O   O2        1.0  0.5178465178652513  0.4653187635557997  0.32159759906494395  1.0000
  O   O3        1.0  0.48882513002600775  0.726202372743259  0.525477716850837  1.0000
  O   O4        1.0  0.8249166879526225  0.5161592035660262  0.6785339528229669  1.0000
  O   O5        1.0  0.8183995891463236  0.7306454604584118  0.5386930527190329  1.0000
  O   O6        1.0  0.477902736828156  0.5357550817362408  0.685470934516985  1.0000
  O   O7        1.0  0.5043828353890729  0.278865747491885  0.48435294876270524  1.0000
  O   O8        1.0  0.1762562375770002  0.48036652291217746  0.32095727861985773  1.0000
  O   O9        1.0  0.8130894990301624  0.4152636514086294  0.43060182620618537  1.0000
  O   O10       1.0  0.18323030440656393  0.5873101437301073  0.5713720023089408  1.0000
  F   F1        1.0  0.8372925726064934  0.42434463950544193  0.09228694731807241  1.0000
