data_image0
_chemical_formula_structural       Ag2H24C24S2N2O6
_chemical_formula_sum              "Ag2 H24 C24 S2 N2 O6"
_cell_length_a       5.43986583874212
_cell_length_b       9.020025739508375
_cell_length_c       12.345571360449272
_cell_angle_alpha    91.25737401638887
_cell_angle_beta     90.00111718406109
_cell_angle_gamma    90.00146201604066

_space_group_name_H-M_alt    "P 1"
_space_group_IT_number       1

loop_
  _space_group_symop_operation_xyz
  'x, y, z'

loop_
  _atom_site_type_symbol
  _atom_site_label
  _atom_site_symmetry_multiplicity
  _atom_site_fract_x
  _atom_site_fract_y
  _atom_site_fract_z
  _atom_site_occupancy
  Ag  Ag1       1.0  0.4583848185554374  0.8039029268458439  0.9459595946235879  1.0000
  Ag  Ag2       1.0  0.9584406684850179  0.19609505121750467  0.0540454615893395  1.0000
  H   H1        1.0  0.3636471851220833  0.9121907883759593  0.6684445307436916  1.0000
  H   H2        1.0  0.8636773043854618  0.08781123270527053  0.3315330201532873  1.0000
  H   H3        1.0  0.48976766059997345  0.08200415932206791  0.5233414779136183  1.0000
  H   H4        1.0  0.9897689314422636  0.9179954207630204  0.4766428215483174  1.0000
  H   H5        1.0  0.3141852028345724  0.2714817512610638  0.38089815420124745  1.0000
  H   H6        1.0  0.8141736107447457  0.7285150529044773  0.6190877849945338  1.0000
  H   H7        1.0  0.4223249564303018  0.39228465884875885  0.48367636748186266  1.0000
  H   H8        1.0  0.9222910292376056  0.6077260540466798  0.516318852015999  1.0000
  H   H9        1.0  0.1160851549725805  0.4111442564481609  0.43578797304940053  1.0000
  H   H10       1.0  0.6160690348221891  0.5888693763319849  0.5642005293708365  1.0000
  H   H11       1.0  0.835069530036975  0.34127444926135553  0.5773276540950931  1.0000
  H   H12       1.0  0.335055019953252  0.6587348844531749  0.4226692002794437  1.0000
  H   H13       1.0  0.7042918406935498  0.16829946045483982  0.71994965317689  1.0000
  H   H14       1.0  0.20425456726827212  0.8317133508665153  0.2800541978037998  1.0000
  H   H15       1.0  0.46591145940189443  0.5023310683667079  0.0735991248986636  1.0000
  H   H16       1.0  0.9659640312030007  0.4976714640156956  0.9264036406852512  1.0000
  H   H17       1.0  0.21192375077720274  0.3733178431142009  0.20777258630805306  1.0000
  H   H18       1.0  0.7119134751540486  0.6266607153063861  0.7922502257454552  1.0000
  H   H19       1.0  0.802851803064577  0.4852174714764531  0.2641318544030611  1.0000
  H   H20       1.0  0.3028685850451183  0.514759198752323  0.735896593424691  1.0000
  H   H21       1.0  0.688455489715615  0.7335226837604767  0.1878335516151992  1.0000
  H   H22       1.0  0.1885147715245026  0.2664588303613513  0.8121850499353798  1.0000
  H   H23       1.0  0.9706955799527891  0.8515339926638393  0.0572575830797959  1.0000
  H   H24       1.0  0.47073345497646096  0.1484486566911443  0.9427594875287113  1.0000
  C   C1        1.0  0.026867469523111306  0.030562103983328405  0.702824109269045  1.0000
  C   C2        1.0  0.5268687174241578  0.969455663951095  0.2971725787229857  1.0000
  C   C3        1.0  0.24768186581588478  0.0056041514177352005  0.6473793645343946  1.0000
  C   C4        1.0  0.747697564980015  0.9943838385512649  0.3526017947108144  1.0000
  C   C5        1.0  0.3185423728993584  0.10244440936156003  0.5668874042175531  1.0000
  C   C6        1.0  0.8185464359367245  0.8975624459733998  0.4331141242593972  1.0000
  C   C7        1.0  0.173660303343965  0.2254335008405449  0.540834564542287  1.0000
  C   C8        1.0  0.6736566527083241  0.7745588645744733  0.4591573486295744  1.0000
  C   C9        1.0  0.2589330015491385  0.3303616731319536  0.4557486401548161  1.0000
  C   C10       1.0  0.7589175722020656  0.6696431291846708  0.544240987133378  1.0000
  C   C11       1.0  0.9519366681262155  0.2471891305722451  0.5968384962974298  1.0000
  C   C12       1.0  0.4519399704188274  0.752822051953395  0.4031659033442594  1.0000
  C   C13       1.0  0.8772856340121465  0.1506582350720436  0.6773839792043433  1.0000
  C   C14       1.0  0.37726195364172804  0.849342894165183  0.322608258200006  1.0000
  C   C15       1.0  0.2918995547949166  0.5500727533075038  0.10056103685401749  1.0000
  C   C16       1.0  0.7918846313306104  0.44995586037917695  0.8994527529214268  1.0000
  C   C17       1.0  0.145513655057286  0.4768608844603863  0.17508105357965317  1.0000
  C   C18       1.0  0.6455372079435477  0.5231343653255323  0.8249300965103359  1.0000
  C   C19       1.0  0.9233896670340087  0.5413775025908835  0.2075938103938526  1.0000
  C   C20       1.0  0.4233807838683674  0.4586188152886523  0.7924311590954076  1.0000
  C   C21       1.0  0.8577999001951966  0.6772716590141531  0.1645419908641372  1.0000
  C   C22       1.0  0.3578349632898821  0.3227247287906963  0.8354645785584935  1.0000
  C   C23       1.0  0.014606139564825997  0.7442925555230392  0.0910268405734627  1.0000
  C   C24       1.0  0.5145632651868938  0.2557117138229188  0.9089897732417285  1.0000
  S   S1        1.0  0.9566723546469404  0.9158300480549785  0.8137840763722436  1.0000
  S   S2        1.0  0.45667326708489503  0.08418231608579425  0.18620337394008146  1.0000
  N   N1        1.0  0.22857080732542556  0.6815669324497549  0.05873985320327791  1.0000
  N   N2        1.0  0.7285723869646574  0.31845180444071997  0.9412391974795256  1.0000
  O   O1        1.0  0.0719574202265463  0.9890663697598331  0.9090292625879925  1.0000
  O   O2        1.0  0.5719905495891596  0.010922169839183503  0.0909600684158818  1.0000
  O   O3        1.0  0.061562123481721215  0.7692420457513196  0.7892440242508343  1.0000
  O   O4        1.0  0.5615746714040456  0.23074965615591486  0.21074607503737036  1.0000
  O   O5        1.0  0.683250299286243  0.9149748952576928  0.8206380723500288  1.0000
  O   O6        1.0  0.18325095355810822  0.08502871032095533  0.1793492452288632  1.0000
