data_image0
_chemical_formula_structural       H28Pb4C20N4O18
_chemical_formula_sum              "H28 Pb4 C20 N4 O18"
_cell_length_a       8.454029336098676
_cell_length_b       8.46055351365638
_cell_length_c       11.00436328139502
_cell_angle_alpha    71.2902623149732
_cell_angle_beta     89.02284121413118
_cell_angle_gamma    76.6431076891281

_space_group_name_H-M_alt    "P 1"
_space_group_IT_number       1

loop_
  _space_group_symop_operation_xyz
  'x, y, z'

loop_
  _atom_site_type_symbol
  _atom_site_label
  _atom_site_symmetry_multiplicity
  _atom_site_fract_x
  _atom_site_fract_y
  _atom_site_fract_z
  _atom_site_occupancy
  H   H1        1.0  0.6584851903862584  0.025691232898907398  0.8493475531315156  1.0000
  H   H2        1.0  0.3415131206895408  0.9743090945304616  0.15065183633036835  1.0000
  H   H3        1.0  0.760705257869091  0.0220078848845802  0.9896400222851939  1.0000
  H   H4        1.0  0.2392951361762313  0.9779937284814864  0.010358125979081515  1.0000
  H   H5        1.0  0.9005679044521668  0.4472719618213219  0.9875702519477942  1.0000
  H   H6        1.0  0.09943159695081495  0.5527283664413432  0.012428218761868871  1.0000
  H   H7        1.0  0.9576176062505295  0.2955568923874737  0.9065087924757267  1.0000
  H   H8        1.0  0.042382802521245745  0.7044447221826643  0.09348753787447352  1.0000
  H   H9        1.0  0.07632150186847039  0.4413372203992481  0.7437193633977518  1.0000
  H   H10       1.0  0.9236768239337889  0.5586631082341996  0.25627820815005725  1.0000
  H   H11       1.0  0.05892402613204691  0.6234902847781496  0.7967061550918474  1.0000
  H   H12       1.0  0.9410751628596329  0.3765113265505419  0.20329472983873845  1.0000
  H   H13       1.0  0.720938071538356  0.25748711212002456  0.04858700096015409  1.0000
  H   H14       1.0  0.2790652617148694  0.7425119313621878  0.9514126619711833  1.0000
  H   H15       1.0  0.6075501357028654  0.4603065264363265  0.9502956775715958  1.0000
  H   H16       1.0  0.3924522975447927  0.5396912313404414  0.04970521676216317  1.0000
  H   H17       1.0  0.7737736176549813  0.8142782234473884  0.7234993980418665  1.0000
  H   H18       1.0  0.2262214127608786  0.1857208166099653  0.2765030603268955  1.0000
  H   H19       1.0  0.7576613331034777  0.7178831924615707  0.8897518595057223  1.0000
  H   H20       1.0  0.24233757334201292  0.28211456642757343  0.110246337342474  1.0000
  H   H21       1.0  0.40783489406616263  0.4158663998498255  0.8622949043949079  1.0000
  H   H22       1.0  0.5921642662969974  0.5841249332432239  0.1377066834135263  1.0000
  H   H23       1.0  0.44320169404053883  0.19897195241951954  0.9660689903949021  1.0000
  H   H24       1.0  0.5567971903152581  0.80102580466351  0.03393193332441057  1.0000
  H   H25       1.0  0.4037186078750068  0.8847639813570181  0.4136254614215958  1.0000
  H   H26       1.0  0.5962817640806223  0.11523763020292678  0.5863754137138033  1.0000
  H   H27       1.0  0.23029473602793601  0.8727244905762533  0.46347618396609397  1.0000
  H   H28       1.0  0.7697047580118122  0.1272758370843619  0.5365231957006104  1.0000
  Pb  Pb1       1.0  0.6908781485729277  0.4567656792836132  0.6245405854044821  1.0000
  Pb  Pb2       1.0  0.30912646254184034  0.5432436480838447  0.37545018424046367  1.0000
  Pb  Pb3       1.0  0.18854804244442389  0.032458071313698204  0.6594584388659259  1.0000
  Pb  Pb4       1.0  0.8114505372755046  0.967535831523655  0.3405425236421138  1.0000
  C   C1        1.0  0.9825900361516273  0.6845982222880664  0.599287655129139  1.0000
  C   C2        1.0  0.01741477733820318  0.3154046750690185  0.40071286817531876  1.0000
  C   C3        1.0  0.7350019257110816  0.09188070686251851  0.8859002366943332  1.0000
  C   C4        1.0  0.2649958047214866  0.908122190311161  0.11409852746716355  1.0000
  C   C5        1.0  0.8603235404439503  0.4035865498096384  0.9114902054640697  1.0000
  C   C6        1.0  0.13967596095903181  0.5964137784530197  0.08850826524559348  1.0000
  C   C7        1.0  0.8925991748601946  0.06986879119775578  0.8177135713867404  1.0000
  C   C8        1.0  0.10740209014997493  0.9301289675518375  0.18228551482812355  1.0000
  C   C9        1.0  0.9984170625974543  0.5674428910330532  0.7385385131547297  1.0000
  C   C10       1.0  0.0015833093581746596  0.4325587205268846  0.26146236198066936  1.0000
  C   C11       1.0  0.7034509868102888  0.34816380999617275  0.9498129129676516  1.0000
  C   C12       1.0  0.29655146116383674  0.6518339489846738  0.050186163452025305  1.0000
  C   C13       1.0  0.737642088922527  0.7056550478546553  0.7948245587581797  1.0000
  C   C14       1.0  0.26235532214770535  0.29434399386927607  0.20517606210612632  1.0000
  C   C15       1.0  0.39103367808693434  0.24033806388552387  0.7653513584109962  1.0000
  C   C16       1.0  0.6089675791478014  0.7596648321757797  0.2346501032360636  1.0000
  C   C17       1.0  0.5550081705070298  0.7413062132710379  0.7634448549972249  1.0000
  C   C18       1.0  0.4449895235215846  0.2586915429787027  0.23655698747431592  1.0000
  C   C19       1.0  0.469061061372315  0.2822273720357914  0.8718348124800671  1.0000
  C   C20       1.0  0.5309428304344548  0.717769099895989  0.12816820262278128  1.0000
  N   N1        1.0  0.6444454623620145  0.27181657236107537  0.86112263855253  1.0000
  N   N2        1.0  0.35555403167773386  0.7281837552995472  0.13887674111417428  1.0000
  N   N3        1.0  0.839272379079972  0.5428773790428636  0.7866538201555502  1.0000
  N   N4        1.0  0.160727405281392  0.45712166374560337  0.2133458721613408  1.0000
  O   O1        1.0  0.07871250825728278  0.7825124230549819  0.564157847080189  1.0000
  O   O2        1.0  0.9212905273111003  0.2174879046973359  0.4358424121579888  1.0000
  O   O3        1.0  0.9148428792125428  0.19656238902211948  0.7217042314843098  1.0000
  O   O4        1.0  0.08515339266091344  0.8034417939965478  0.27829241190809745  1.0000
  O   O5        1.0  0.8716850871912595  0.6763295472564012  0.5249471598246559  1.0000
  O   O6        1.0  0.12831172073384778  0.3236772003194588  0.47505702908552655  1.0000
  O   O7        1.0  0.45572740568221093  0.2603832041221991  0.6581221924485094  1.0000
  O   O8        1.0  0.5442762031661771  0.739614553283772  0.3418796010471042  1.0000
  O   O9        1.0  0.5000819224689649  0.6572765364496076  0.7028575147655759  1.0000
  O   O10       1.0  0.49991307154294856  0.3427173626837999  0.2971480219132232  1.0000
  O   O11       1.0  0.2587905171146899  0.1926112732209191  0.7925440926690969  1.0000
  O   O12       1.0  0.7412166479887857  0.8073864854808336  0.20745676248391484  1.0000
  O   O13       1.0  0.9934916175641887  0.9260763198197565  0.8540966525877068  1.0000
  O   O14       1.0  0.006506410141014396  0.0739304309975495  0.14590298174209695  1.0000
  O   O15       1.0  0.46809722355312994  0.8620931455068543  0.7966891437042848  1.0000
  O   O16       1.0  0.5319011022491226  0.13790718312659317  0.20330842784351696  1.0000
  O   O17       1.0  0.3032753260705049  0.9514502191660199  0.43687409174076935  1.0000
  O   O18       1.0  0.6967244435644061  0.04854882241836828  0.563127418490204  1.0000
