data_image0
_chemical_formula_structural       Cd2H16C16S4N8
_chemical_formula_sum              "Cd2 H16 C16 S4 N8"
_cell_length_a       7.740598796605187
_cell_length_b       8.074848504887578
_cell_length_c       9.511639898028596
_cell_angle_alpha    90.00010259833662
_cell_angle_beta     90.00019487845209
_cell_angle_gamma    115.91843405820482

_space_group_name_H-M_alt    "P 1"
_space_group_IT_number       1

loop_
  _space_group_symop_operation_xyz
  'x, y, z'

loop_
  _atom_site_type_symbol
  _atom_site_label
  _atom_site_symmetry_multiplicity
  _atom_site_fract_x
  _atom_site_fract_y
  _atom_site_fract_z
  _atom_site_occupancy
  Cd  Cd1       1.0  0.9999987072378932  0.9999988719781286  3.4686946364e-06  1.0000
  Cd  Cd2       1.0  1.5216414154276849e-06  0.5000042502717079  0.5000046242344851  1.0000
  H   H1        1.0  0.778997180655658  0.20869162497815813  0.13017227064483447  1.0000
  H   H2        1.0  0.22100339999459354  0.2913079999344887  0.6301726334473868  1.0000
  H   H3        1.0  0.2210031579578099  0.791303470554574  0.8698257276988386  1.0000
  H   H4        1.0  0.7789949150760054  0.7086883981872776  0.3698295702682728  1.0000
  H   H5        1.0  0.6890009071571515  0.8362276105628297  0.7410978133683699  1.0000
  H   H6        1.0  0.31099847975785616  0.663774607250737  0.241105559782234  1.0000
  H   H7        1.0  0.3109960996258112  0.16376875062129417  0.25889492825470467  1.0000
  H   H8        1.0  0.6890012659029169  0.3362191118753304  0.7588945412463274  1.0000
  H   H9        1.0  0.43365568132251303  0.7274324865336227  0.716290926647126  1.0000
  H   H10       1.0  0.5663434265220673  0.7725723337953242  0.2162974479286888  1.0000
  H   H11       1.0  0.5663404878329177  0.2725679300600845  0.2837049690084186  1.0000
  H   H12       1.0  0.4336563191420241  0.22742138533314457  0.7837037044432903  1.0000
  H   H13       1.0  0.5405323374038317  0.6397457159128591  0.8426729923892325  1.0000
  H   H14       1.0  0.45946650534013866  0.8602542133674903  0.3426825207389611  1.0000
  H   H15       1.0  0.45946276815872994  0.36024923194137415  0.1573186978866659  1.0000
  H   H16       1.0  0.5405319320628907  0.13973946884255642  0.6573175802877812  1.0000
  C   C1        1.0  0.9124165982688057  0.5846388405060665  0.16215252788557416  1.0000
  C   C2        1.0  0.08758619590095405  0.9153780831439635  0.6621558854110674  1.0000
  C   C3        1.0  0.0875962112366722  0.4153702037286778  0.8378486245169227  1.0000
  C   C4        1.0  0.9124103215555835  0.08462914168946158  0.3378463183110866  1.0000
  C   C5        1.0  0.5265729780211998  0.8884465951768306  0.9027259150221877  1.0000
  C   C6        1.0  0.4734281453371665  0.6115550219162884  0.4027319161387908  1.0000
  C   C7        1.0  0.47342913946362597  0.11155262958550341  0.09726998064049039  1.0000
  C   C8        1.0  0.526572786248913  0.3884414500375258  0.5972702875805069  1.0000
  C   C9        1.0  0.653174993779473  0.1149127506834589  0.07155121492241527  1.0000
  C   C10       1.0  0.3468234376389319  0.3850824770522436  0.5715541792618524  1.0000
  C   C11       1.0  0.3468272460477521  0.8850837581743604  0.9284457320816059  1.0000
  C   C12       1.0  0.6531729762112662  0.6149125077396321  0.42844697310662366  1.0000
  C   C13       1.0  0.5496143921018163  0.7669007732115177  0.7938266434128706  1.0000
  C   C14       1.0  0.4503859209063351  0.7331030620282064  0.2938338339575495  1.0000
  C   C15       1.0  0.45038380060313443  0.23309834079795175  0.20616714955752258  1.0000
  C   C16       1.0  0.5496144177137694  0.266892033509329  0.7061662670729587  1.0000
  S   S1        1.0  0.8209829797539288  0.6274309888087972  0.0204492184828098  1.0000
  S   S2        1.0  0.1790140531417137  0.8725769917559988  0.5204548577013668  1.0000
  S   S3        1.0  0.17903222032161634  0.3725686051233623  0.9795508825717217  1.0000
  S   S4        1.0  0.820973061835787  0.1274354064815242  0.47954839735564286  1.0000
  N   N1        1.0  0.6800008475034006  0.005143355249870802  0.9772582830499271  1.0000
  N   N2        1.0  0.3200025189733466  0.4948592325634635  0.4772623962887792  1.0000
  N   N3        1.0  0.3199981828489982  0.9948517033644395  0.022738663948516095  1.0000
  N   N4        1.0  0.6799978196567268  0.505135862981284  0.5227408587719821  1.0000
  N   N5        1.0  0.9741223331103869  0.5443131323577859  0.2636313995513859  1.0000
  N   N6        1.0  0.025886683484820625  0.9557112110124352  0.7636283471473035  1.0000
  N   N7        1.0  0.02589474947607327  0.45570283086955515  0.7363781636100128  1.0000
  N   N8        1.0  0.9741078104421351  0.04429731641964452  0.2363822673205078  1.0000
