data_image0
_chemical_formula_structural       Hg4H28C28Br8N4O8
_chemical_formula_sum              "Hg4 H28 C28 Br8 N4 O8"
_cell_length_a       8.093539265189296
_cell_length_b       10.22277304724269
_cell_length_c       13.681579315016508
_cell_angle_alpha    68.77108646389712
_cell_angle_beta     84.71872981895618
_cell_angle_gamma    78.32324389820641

_space_group_name_H-M_alt    "P 1"
_space_group_IT_number       1

loop_
  _space_group_symop_operation_xyz
  'x, y, z'

loop_
  _atom_site_type_symbol
  _atom_site_label
  _atom_site_symmetry_multiplicity
  _atom_site_fract_x
  _atom_site_fract_y
  _atom_site_fract_z
  _atom_site_occupancy
  Hg  Hg1       1.0  0.3884925391254085  0.32366154834835464  0.42754245041508915  1.0000
  Hg  Hg2       1.0  0.6115126344943177  0.676348161457163  0.5724469988333283  1.0000
  Hg  Hg3       1.0  0.8814473818176436  0.35574892707314376  0.4568763820591499  1.0000
  Hg  Hg4       1.0  0.1185515350693223  0.6442554689044898  0.5431111450224152  1.0000
  H   H1        1.0  0.9157471620136803  0.5355882733824943  0.08125156660054955  1.0000
  H   H2        1.0  0.08424783353164135  0.46440541512689043  0.9187426636301693  1.0000
  H   H3        1.0  0.7190799109038152  0.3665003158099722  0.16002904207707763  1.0000
  H   H4        1.0  0.2809123295097747  0.6334943967538322  0.8399701726121408  1.0000
  H   H5        1.0  0.8242453229563507  0.12931149607849327  0.29782269318979354  1.0000
  H   H6        1.0  0.17575114936702352  0.8706863876885153  0.7021798478014317  1.0000
  H   H7        1.0  0.11946933760817299  0.06552127778500248  0.3523713929683581  1.0000
  H   H8        1.0  0.8805238133445883  0.9344862101638752  0.6476287620739998  1.0000
  H   H9        1.0  0.43628142613095366  0.27700955636836977  0.22803592424757824  1.0000
  H   H10       1.0  0.5637136589817687  0.722994730940563  0.7719649837741828  1.0000
  H   H11       1.0  0.3963525400442832  0.1170568709156683  0.3157569054234344  1.0000
  H   H12       1.0  0.6036425450684388  0.8829474163932646  0.6842440025983194  1.0000
  H   H13       1.0  0.247707151258865  0.6961788983261029  0.02271574330291778  1.0000
  H   H14       1.0  0.7523000297699483  0.30382113598277977  0.9772849490158322  1.0000
  H   H15       1.0  0.8278155952990927  0.7676974950235332  0.027025291243347717  1.0000
  H   H16       1.0  0.17219290062909204  0.23229081002474317  0.972976992755399  1.0000
  H   H17       1.0  0.021454935908806767  0.9363660194333931  0.9397082125388464  1.0000
  H   H18       1.0  0.9785546416835232  0.0636286797215817  0.06029377708246388  1.0000
  H   H19       1.0  0.9150059800693952  0.16254119175476933  0.7917947053137553  1.0000
  H   H20       1.0  0.08499637316239728  0.8374524216597549  0.20820940310380823  1.0000
  H   H21       1.0  0.6246663601254312  0.2126124789477258  0.7313622397284617  1.0000
  H   H22       1.0  0.3753396546934835  0.7873758238384951  0.26864017128095  1.0000
  H   H23       1.0  0.3556801038333006  0.1477300737682725  0.7540316597882111  1.0000
  H   H24       1.0  0.6443247060388088  0.8522635185137304  0.24597525282406713  1.0000
  H   H25       1.0  0.3153828772642839  0.9861667955580485  0.8464327477577598  1.0000
  H   H26       1.0  0.6846182231783827  0.013826805028159595  0.1535728897678155  1.0000
  H   H27       1.0  0.5049230556551406  0.5968143169349746  0.08586417870364464  1.0000
  H   H28       1.0  0.4950741642331166  0.4031856732338142  0.9141414184658174  1.0000
  C   C1        1.0  0.24036649377597283  0.5023587437730512  0.11975735232484647  1.0000
  C   C2        1.0  0.7596295773162537  0.49764133299438373  0.8802373163297759  1.0000
  C   C3        1.0  0.12927820510464014  0.3975083395761274  0.1699512894704824  1.0000
  C   C4        1.0  0.8707154154645166  0.602491764172477  0.8300398421880786  1.0000
  C   C5        1.0  0.9595352590885395  0.43216056867000663  0.14046870417068652  1.0000
  C   C6        1.0  0.04045632442316814  0.5678373807566288  0.859525297225723  1.0000
  C   C7        1.0  0.8493712612082333  0.3375879040972903  0.18489531996291933  1.0000
  C   C8        1.0  0.15062259056269758  0.6624111323943325  0.8150960838572203  1.0000
  C   C9        1.0  0.9082237375116193  0.20552566288245797  0.2614585706806807  1.0000
  C   C10       1.0  0.09177408438112163  0.7944775828261328  0.7385395512866141  1.0000
  C   C11       1.0  0.07517689522478578  0.16900389036857177  0.2927823337084021  1.0000
  C   C12       1.0  0.9248229453736767  0.8310014921160443  0.7072151169250774  1.0000
  C   C13       1.0  0.18862153860310116  0.2626724501929445  0.24706226266648915  1.0000
  C   C14       1.0  0.8113745986831657  0.7373329464445249  0.7529331800789479  1.0000
  C   C15       1.0  0.5103824319941096  0.7852406180147112  0.9817545822890777  1.0000
  C   C16       1.0  0.4896219399434114  0.2147551321758456  0.018248854794670404  1.0000
  C   C17       1.0  0.6167090657085053  0.8910982775382618  0.9290435138796198  1.0000
  C   C18       1.0  0.3833044769839944  0.1088953694501029  0.07095709178459228  1.0000
  C   C19       1.0  0.7842570282109729  0.8653296854840563  0.9620851332644732  1.0000
  C   C20       1.0  0.2157482746508848  0.1346618015271872  0.037918659664235584  1.0000
  C   C21       1.0  0.8922704634109592  0.9599066341995621  0.9136474035465979  1.0000
  C   C22       1.0  0.10774253844947168  0.0400838157354499  0.08635334930632871  1.0000
  C   C23       1.0  0.8323324152680697  0.0859851548685384  0.8307708064798048  1.0000
  C   C24       1.0  0.1676689286108583  0.9140073901579627  0.1692336376046626  1.0000
  C   C25       1.0  0.6688530300308101  0.11492663554806629  0.7965608108914637  1.0000
  C   C26       1.0  0.3311443548651809  0.8850669674936996  0.2034442843487624  1.0000
  C   C27       1.0  0.5567589233278766  0.0185172438296206  0.8434426858302261  1.0000
  C   C28       1.0  0.44324934751578116  0.9814721343242852  0.15655859320560236  1.0000
  Br  Br1       1.0  0.16805240999023133  0.5480947664133922  0.3550927010872869  1.0000
  Br  Br2       1.0  0.8319280758193699  0.451903237169084  0.6448938110423087  1.0000
  Br  Br3       1.0  0.6347179573421966  0.1392316848662745  0.5195528168508049  1.0000
  Br  Br4       1.0  0.3652947265963674  0.8608161801592259  0.48046118347605926  1.0000
  Br  Br5       1.0  0.6609180445781176  0.5485818997025902  0.3470256122443587  1.0000
  Br  Br6       1.0  0.33903527310905446  0.451437223958564  0.6529822477966791  1.0000
  Br  Br7       1.0  0.1159233183792807  0.16518652246332266  0.5577079937757646  1.0000
  Br  Br8       1.0  0.8840994816643073  0.8348444768080867  0.44228439556263055  1.0000
  N   N1        1.0  0.35463025051179636  0.22453279916564378  0.2827857843127148  1.0000
  N   N2        1.0  0.6453619277915408  0.7754736554870829  0.7172103095884809  1.0000
  N   N3        1.0  0.3995398968187303  0.04732639012475911  0.8033828816041719  1.0000
  N   N4        1.0  0.6004663430847115  0.9526608395558256  0.196620534368158  1.0000
  O   O1        1.0  0.16247780761892722  0.6304119779203461  0.06277223129385588  1.0000
  O   O2        1.0  0.8375232073401334  0.36958808582526353  0.9372243817434835  1.0000
  O   O3        1.0  0.3981637123700707  0.4719685377906444  0.1302466335737975  1.0000
  O   O4        1.0  0.6018362565326852  0.5280304224750834  0.8697547119385192  1.0000
  O   O5        1.0  0.35962128264113596  0.7999428317819479  0.9565813734631163  1.0000
  O   O6        1.0  0.6403893104212984  0.2000529416096839  0.043419547689943286  1.0000
  O   O7        1.0  0.5832957620079141  0.6698681481290835  0.057944565698321085  1.0000
  O   O8        1.0  0.41670439527593556  0.3301297039391429  0.942062181584987  1.0000
