data_image0
_chemical_formula_structural       Cu12H72C111N24
_chemical_formula_sum              "Cu12 H72 C111 N24"
_cell_length_a       24.1789255848087
_cell_length_b       24.713881569301606
_cell_length_c       26.4124511114385
_cell_angle_alpha    89.7138414988736
_cell_angle_beta     90.34496062397848
_cell_angle_gamma    89.55414306799354

_space_group_name_H-M_alt    "P 1"
_space_group_IT_number       1

loop_
  _space_group_symop_operation_xyz
  'x, y, z'

loop_
  _atom_site_type_symbol
  _atom_site_label
  _atom_site_symmetry_multiplicity
  _atom_site_fract_x
  _atom_site_fract_y
  _atom_site_fract_z
  _atom_site_occupancy
  Cu  Cu1       1.0  0.7654483816242177  0.8594239398546648  0.759646907880672  1.0000
  Cu  Cu2       1.0  0.7551566754649814  0.757795882502542  0.8318305364905357  1.0000
  Cu  Cu3       1.0  0.8614213265147017  0.7712774500907927  0.7618118422014746  1.0000
  Cu  Cu4       1.0  0.23989936228220904  0.1507909260265308  0.7585944162850353  1.0000
  Cu  Cu5       1.0  0.24744514401928097  0.246905875309011  0.8376574359597413  1.0000
  Cu  Cu6       1.0  0.14131379976576142  0.2333703290102491  0.766877977802828  1.0000
  Cu  Cu7       1.0  0.7487927103809967  0.1566388044673559  0.24182562519578  1.0000
  Cu  Cu8       1.0  0.7640425451938598  0.22889969183935926  0.1446385663175036  1.0000
  Cu  Cu9       1.0  0.8414966119303672  0.24745153640487422  0.23991409323336652  1.0000
  Cu  Cu10      1.0  0.24516600718428097  0.8430464986485405  0.24805845508315372  1.0000
  Cu  Cu11      1.0  0.25564974634099263  0.742011690254607  0.174510779287985  1.0000
  Cu  Cu12      1.0  0.1462431615369866  0.7629417619674188  0.2403311424492358  1.0000
  H   H1        1.0  0.6718899694958157  0.9349806194645469  0.8055253200168693  1.0000
  H   H2        1.0  0.6478695772673363  0.7890133528440799  0.8938163068645437  1.0000
  H   H3        1.0  0.9372921632051433  0.8147948715099601  0.6725011508642353  1.0000
  H   H4        1.0  0.8047105037421218  0.9337564606177652  0.6692328073923122  1.0000
  H   H5        1.0  0.7910302840679435  0.6570862943680069  0.8979227644248269  1.0000
  H   H6        1.0  0.9408139688421786  0.6833795290918872  0.8123610634760184  1.0000
  H   H7        1.0  0.3273380281669702  0.0693948657087873  0.8059633951935581  1.0000
  H   H8        1.0  0.3446533177121368  0.20427469873679635  0.9086816915592024  1.0000
  H   H9        1.0  0.06193673881477932  0.19029306048331315  0.6795073884457423  1.0000
  H   H10       1.0  0.2049966156361904  0.08601138735549088  0.6596561416391183  1.0000
  H   H11       1.0  0.21381893316517872  0.3531693751668713  0.8979763841235525  1.0000
  H   H12       1.0  0.0607940610567255  0.31747459901954045  0.8194200963721344  1.0000
  H   H13       1.0  0.6407634973342766  0.0900476715253831  0.2106255444743681  1.0000
  H   H14       1.0  0.6789290251274737  0.1718027198718204  0.07010064560698481  1.0000
  H   H15       1.0  0.9175749127481583  0.2082636028011109  0.3310331971489973  1.0000
  H   H16       1.0  0.7941381401207652  0.08210822915373941  0.33000886982061667  1.0000
  H   H17       1.0  0.8148467323485776  0.3131937825592743  0.0678754884743356  1.0000
  H   H18       1.0  0.906421642478904  0.3526920122409934  0.2040346112682485  1.0000
  H   H19       1.0  0.3346128924074563  0.9192485635163906  0.20091331496680453  1.0000
  H   H20       1.0  0.3590993552086347  0.7772951269392012  0.1083704879815244  1.0000
  H   H21       1.0  0.06341253835879002  0.8143577973482652  0.3211779569463502  1.0000
  H   H22       1.0  0.20455488480296685  0.920196888906091  0.3365371687733401  1.0000
  H   H23       1.0  0.21814310910617257  0.6399492567202217  0.11095654018463819  1.0000
  H   H24       1.0  0.06580097909312602  0.6803164975122655  0.1878353014206979  1.0000
  H   H25       1.0  0.62372937197744  0.9821089255689731  0.8700505340693212  1.0000
  H   H26       1.0  0.5616500688554356  0.8289949310637894  0.9228110747915464  1.0000
  H   H27       1.0  0.5012733691694535  0.8763401795069184  0.9825016675099078  1.0000
  H   H28       1.0  0.561460786886123  0.02910493264956671  0.9283020182417943  1.0000
  H   H29       1.0  0.43520729999996643  0.15847238835149824  0.9333989154534166  1.0000
  H   H30       1.0  0.35594821474100513  0.0140300830867801  0.8795425712305942  1.0000
  H   H31       1.0  0.41657275123026244  0.9589612369466635  0.934694681047283  1.0000
  H   H32       1.0  0.49361237578030903  0.1033490989188053  0.9904299318843641  1.0000
  H   H33       1.0  0.5273784694361866  0.11515593608703512  0.13094435696825  1.0000
  H   H34       1.0  0.6707635903146781  0.0420557933844847  0.0633654195264839  1.0000
  H   H35       1.0  0.610951336825231  0.9875681929198947  0.0081608581136052  1.0000
  H   H36       1.0  0.4671280388780233  0.05995292998332501  0.0760030262998797  1.0000
  H   H37       1.0  0.4758777870117045  0.8505271000861399  0.12194348511736311  1.0000
  H   H38       1.0  0.33057091307879455  0.9448651162448697  0.08617136359791289  1.0000
  H   H39       1.0  0.383812831093124  0.9985054404199117  0.024802755693642105  1.0000
  H   H40       1.0  0.5300878873317388  0.9063835582516474  0.0627028950111921  1.0000
  H   H41       1.0  0.8495581256986287  0.9799250058600751  0.6051634794745695  1.0000
  H   H42       1.0  0.9807546356099127  0.8606518072070699  0.6071082102390548  1.0000
  H   H43       1.0  0.02816810881743951  0.9106155633029543  0.5402761147547466  1.0000
  H   H44       1.0  0.8973261261025912  0.029530647181729805  0.5383712966300678  1.0000
  H   H45       1.0  0.1499668180515954  0.9784176639777442  0.3862181494104462  1.0000
  H   H46       1.0  0.023092805113215306  0.8568387971950884  0.3906698720300383  1.0000
  H   H47       1.0  0.9736201198921749  0.9093332547197408  0.45454482461966716  1.0000
  H   H48       1.0  0.10027854014794003  0.030490448661659304  0.45035154769563945  1.0000
  H   H49       1.0  0.022418091763661604  0.15353733740656852  0.6069568926005644  1.0000
  H   H50       1.0  0.1543796496368373  0.0353627995748127  0.6013296047720971  1.0000
  H   H51       1.0  0.10456863231130603  0.9867519197309632  0.5349965238270684  1.0000
  H   H52       1.0  0.9726840659697945  0.10432666573458961  0.5409881923651199  1.0000
  H   H53       1.0  0.9682233293275645  0.1596047315277644  0.3911565429653265  1.0000
  H   H54       1.0  0.844492154850407  0.03478418949597279  0.3904375205591393  1.0000
  H   H55       1.0  0.8984113136032051  0.9836201927241605  0.4532311372238738  1.0000
  H   H56       1.0  0.02161416995467391  0.10817434137607763  0.4542319345532064  1.0000
  H   H57       1.0  0.9763266436769202  0.6009141420063457  0.8495080937550128  1.0000
  H   H58       1.0  0.8474562015301645  0.6137196838909347  0.9609400534077467  1.0000
  H   H59       1.0  0.8983029310261375  0.5507579926954379  0.015944107770856402  1.0000
  H   H60       1.0  0.0270128734866901  0.5382297346992289  0.9047071271644498  1.0000
  H   H61       1.0  0.8429642373216738  0.398274318001164  0.0341598347181105  1.0000
  H   H62       1.0  0.9708807909860583  0.39918824690563076  0.148448222025749  1.0000
  H   H63       1.0  0.02292708723431501  0.46438941919382876  0.0982579084932311  1.0000
  H   H64       1.0  0.8967479152390396  0.46110484798073514  0.9827769407250457  1.0000
  H   H65       1.0  0.15955273068960454  0.5419714211809605  0.1018725197925221  1.0000
  H   H66       1.0  0.02825489974814131  0.6604580212012221  0.09690278270446838  1.0000
  H   H67       1.0  0.9761061878042486  0.6032840603725802  0.038742640701869405  1.0000
  H   H68       1.0  0.10649763611947802  0.48384609096485326  0.0445496768848841  1.0000
  H   H69       1.0  0.15996336587074472  0.45220190998516335  0.90639498950911  1.0000
  H   H70       1.0  0.021993859632885908  0.3431801289787444  0.9066679882024573  1.0000
  H   H71       1.0  0.9715868564637306  0.4040531337495281  0.9626605494972011  1.0000
  H   H72       1.0  0.10874022192252406  0.5140303169878991  0.9618534736167846  1.0000
  C   C1        1.0  0.672743341933753  0.8950104388378007  0.8226844207179269  1.0000
  C   C2        1.0  0.6403110884113162  0.8736318602502423  0.8618533586999391  1.0000
  C   C3        1.0  0.6600450224087882  0.820284952890148  0.8672424322427333  1.0000
  C   C4        1.0  0.9005863382637715  0.8395384171175805  0.6780401478072734  1.0000
  C   C5        1.0  0.8830928504835429  0.8868022625123403  0.6525279145889301  1.0000
  C   C6        1.0  0.8330320912537916  0.9002466958368842  0.6763566971613387  1.0000
  C   C7        1.0  0.8233413585336112  0.670016636754717  0.8723080720088774  1.0000
  C   C8        1.0  0.8784425740942229  0.6521291480602683  0.8685166969469762  1.0000
  C   C9        1.0  0.8995424839321232  0.6830148143944684  0.8282861605302259  1.0000
  C   C10       1.0  0.32525249726753463  0.10735624958879701  0.8263464595211971  1.0000
  C   C11       1.0  0.35323350899994227  0.12319730980938465  0.8705391048514529  1.0000
  C   C12       1.0  0.33485382459844715  0.1765556840322091  0.8782363715224976  1.0000
  C   C13       1.0  0.10134126027147523  0.16901769167821362  0.6810313429701297  1.0000
  C   C14       1.0  0.1212554958104306  0.126450761986078  0.6508804004949056  1.0000
  C   C15       1.0  0.17415474719952337  0.1155898964360631  0.6710664110328466  1.0000
  C   C16       1.0  0.18112847872997412  0.33827879211930423  0.8735039648090818  1.0000
  C   C17       1.0  0.12512198469721622  0.35344445383653084  0.8711719011873242  1.0000
  C   C18       1.0  0.10275877482688144  0.3192441464855875  0.8341368558007787  1.0000
  C   C19       1.0  0.6565111423323134  0.11571373616922642  0.1806521315054255  1.0000
  C   C20       1.0  0.6418090594144489  0.1176632804059636  0.1293057895631762  1.0000
  C   C21       1.0  0.6767050847029951  0.15700785547776522  0.1087899729844679  1.0000
  C   C22       1.0  0.8824324967200142  0.18198774577568605  0.32491228744593315  1.0000
  C   C23       1.0  0.8695862193177037  0.1322077525056642  0.34781965202020615  1.0000
  C   C24       1.0  0.8194624326194104  0.1176892127811371  0.3244891337477114  1.0000
  C   C25       1.0  0.8323088625724608  0.3165969865709144  0.10566069007180091  1.0000
  C   C26       1.0  0.8729688829815105  0.35188432589628604  0.1240096171017697  1.0000
  C   C27       1.0  0.8796209358586825  0.33627314196819214  0.1749306773675912  1.0000
  C   C28       1.0  0.3340177885873389  0.8796570900645548  0.1833356262920915  1.0000
  C   C29       1.0  0.3640563279349324  0.8607468179406936  0.1417469417885968  1.0000
  C   C30       1.0  0.3473040671060021  0.8068670948611897  0.1366461160036181  1.0000
  C   C31       1.0  0.10259824226980646  0.8353593962784702  0.3191681006011891  1.0000
  C   C32       1.0  0.12090351590305204  0.8811975251963203  0.3455975176900594  1.0000
  C   C33       1.0  0.17444955998008282  0.8895582690353836  0.32678375615686417  1.0000
  C   C34       1.0  0.18576784793926757  0.6556385597392592  0.135252681205813  1.0000
  C   C35       1.0  0.1293291979046671  0.6428625495895163  0.1363539171647972  1.0000
  C   C36       1.0  0.10778913959154582  0.6771431549212038  0.1737418141810991  1.0000
  C   C37       1.0  0.001653830728550101  0.5026353150727942  0.0013099529728606  1.0000
  C   C38       1.0  0.4953602412938168  0.9895502589752992  0.0009237742274378999  1.0000
  C   C39       1.0  0.9997558942810942  0.007919872288368901  0.49573263675815576  1.0000
  C   C40       1.0  0.5968110146977994  0.9583560599059381  0.8944056459448646  1.0000
  C   C41       1.0  0.5993234651626055  0.9014409865159153  0.8929594928838824  1.0000
  C   C42       1.0  0.5628855632145078  0.8730628374776758  0.9243781899560731  1.0000
  C   C43       1.0  0.5284185107258708  0.9000303949002914  0.9583922784151965  1.0000
  C   C44       1.0  0.5288427999381042  0.9564025506636752  0.9622125702738273  1.0000
  C   C45       1.0  0.5620263484151949  0.9849650061345089  0.9278010350421155  1.0000
  C   C46       1.0  0.42993526474058563  0.11467256113562033  0.9342007444198259  1.0000
  C   C47       1.0  0.3903764860544002  0.0907816528042744  0.9025360163458275  1.0000
  C   C48       1.0  0.38650519427156393  0.03394489736086831  0.9034382696437078  1.0000
  C   C49       1.0  0.4201812749804787  0.0029350475561642007  0.9350664647768383  1.0000
  C   C50       1.0  0.4585341453473718  0.0270274382858204  0.9680215968599697  1.0000
  C   C51       1.0  0.4632845574832701  0.08332996451167672  0.9664432007087952  1.0000
  C   C52       1.0  0.5458139846573787  0.08713598008765902  0.1039567266435597  1.0000
  C   C53       1.0  0.603624200499681  0.08353959614277777  0.1001460929545175  1.0000
  C   C54       1.0  0.625936912314117  0.04661115536602979  0.0656381223520128  1.0000
  C   C55       1.0  0.5919612325407897  0.015874236184600904  0.0343891058774517  1.0000
  C   C56       1.0  0.5344156954747207  0.0215271901209775  0.0360350459668197  1.0000
  C   C57       1.0  0.5119681323990264  0.05640194058739921  0.0725679358716675  1.0000
  C   C58       1.0  0.4553721716910602  0.8826041582219233  0.1001952105233173  1.0000
  C   C59       1.0  0.3988036298238527  0.8929386890453727  0.1075984525363936  1.0000
  C   C60       1.0  0.37433482490005343  0.9358781635464908  0.0805276201705425  1.0000
  C   C61       1.0  0.40448877740276873  0.965978086274994  0.04567605287094521  1.0000
  C   C62       1.0  0.460476700499605  0.9548259972045089  0.03708501532755551  1.0000
  C   C63       1.0  0.4857294403633647  0.9137295082339848  0.0662717309963838  1.0000
  C   C64       1.0  0.8885987578309696  0.9638346700374355  0.5909808556639504  1.0000
  C   C65       1.0  0.9108675827973087  0.9158077635223094  0.6116630521892431  1.0000
  C   C66       1.0  0.9615854329644268  0.8974720470015357  0.5920586059038939  1.0000
  C   C67       1.0  0.9885051719563268  0.9257330435314726  0.5539128846268184  1.0000
  C   C68       1.0  0.9659968020208468  0.9734199671230569  0.5330992164775168  1.0000
  C   C69       1.0  0.915653436810864  0.9920325873082375  0.5528107918937835  1.0000
  C   C70       1.0  0.11158846956937653  0.9623066069767815  0.4014230897239344  1.0000
  C   C71       1.0  0.09124629722563071  0.9127120310898889  0.3836104510401199  1.0000
  C   C72       1.0  0.04078755519064001  0.8948102610349836  0.4036355396282758  1.0000
  C   C73       1.0  0.012779680614777106  0.9244753018369352  0.4401621746400579  1.0000
  C   C74       1.0  0.0338669570575547  0.9732110368115413  0.4588464525910894  1.0000
  C   C75       1.0  0.0834102214245505  0.9919193898360418  0.43798236273431  1.0000
  C   C76       1.0  0.041208726371678515  0.11710658893945693  0.5912463066105005  1.0000
  C   C77       1.0  0.0927439550547433  0.098680387083256  0.6096810430092248  1.0000
  C   C78       1.0  0.11478765758120354  0.05147830680150629  0.5879194857685661  1.0000
  C   C79       1.0  0.0865437746911226  0.0238451164896247  0.5500667102002197  1.0000
  C   C80       1.0  0.03514201135111962  0.0422397949871964  0.5318637950108283  1.0000
  C   C81       1.0  0.013052374331792304  0.08934434183166932  0.553521818300517  1.0000
  C   C82       1.0  0.9519917922513202  0.1212118702309439  0.40483251877938636  1.0000
  C   C83       1.0  0.9014010794552763  0.10193843631807911  0.3858869597703318  1.0000
  C   C84       1.0  0.8831505052639841  0.051740345692813605  0.4044137495366513  1.0000
  C   C85       1.0  0.9136646431690355  0.022678928133068196  0.4402800307096726  1.0000
  C   C86       1.0  0.9635176231343083  0.04254288616368029  0.4598598321764058  1.0000
  C   C87       1.0  0.9823497974584188  0.09207756095251801  0.44079105274476393  1.0000
  C   C88       1.0  0.9588123080116873  0.5904524223876919  0.8862044288006743  1.0000
  C   C89       1.0  0.9077187608238976  0.6128038803392784  0.9005739490190052  1.0000
  C   C90       1.0  0.8867465779821517  0.597057230226703  0.9478950003791483  1.0000
  C   C91       1.0  0.9158510600694074  0.5613531269270452  0.979330214080278  1.0000
  C   C92       1.0  0.9671598654164841  0.5392789218459839  0.9651423022359039  1.0000
  C   C93       1.0  0.9876610060310187  0.5546223857295444  0.9176914697692312  1.0000
  C   C94       1.0  0.8828899066155886  0.4119997695398396  0.0483976185724302  1.0000
  C   C95       1.0  0.9028673108923045  0.39287555435339544  0.09531253517520348  1.0000
  C   C96       1.0  0.9536793724238639  0.413255419505724  0.112399716782889  1.0000
  C   C97       1.0  0.9835567897015169  0.450017249772273  0.083541602237986  1.0000
  C   C98       1.0  0.9646412408403865  0.4677227339029955  0.0359461825169589  1.0000
  C   C99       1.0  0.9132815663044765  0.44814590096825685  0.019363799964921196  1.0000
  C   C100      1.0  0.11936937417637952  0.5559352262074668  0.0877422790925948  1.0000
  C   C101      1.0  0.09832855849598592  0.6061410960833629  0.1035905016398786  1.0000
  C   C102      1.0  0.04568017047565582  0.6215203060685325  0.08564701828396441  1.0000
  C   C103      1.0  0.01625178571354981  0.5890348598868727  0.0523499287995861  1.0000
  C   C104      1.0  0.037357936088177716  0.5392652450917268  0.035638315573734806  1.0000
  C   C105      1.0  0.0892105025646757  0.5230699607694902  0.05494276468357381  1.0000
  C   C106      1.0  0.11869389032408154  0.4410837172720292  0.9191292336430763  1.0000
  C   C107      1.0  0.09529749695525423  0.39238235644293684  0.9026028565942497  1.0000
  C   C108      1.0  0.04134394917078051  0.3808207695348714  0.9185257485407733  1.0000
  C   C109      1.0  0.012888431840387701  0.4154038749987593  0.950661333123719  1.0000
  C   C110      1.0  0.03633521384016801  0.46358201577851327  0.9682285641758384  1.0000
  C   C111      1.0  0.0895420857844229  0.4760833879017667  0.9508210579718224  1.0000
  N   N1        1.0  0.7011669311370383  0.8108704729240733  0.8340569280163876  1.0000
  N   N2        1.0  0.7088944269700551  0.8572809661453746  0.8062144597703238  1.0000
  N   N3        1.0  0.8218973358028026  0.8639429779374413  0.7131313387182986  1.0000
  N   N4        1.0  0.8638779126145413  0.8261632458146551  0.7141803917443  1.0000
  N   N5        1.0  0.8601250198940136  0.7168258175013379  0.809924225962355  1.0000
  N   N6        1.0  0.8127002570000743  0.7086635872813289  0.8372404649003542  1.0000
  N   N7        1.0  0.2985123870145614  0.19114489811609303  0.841552098974219  1.0000
  N   N8        1.0  0.2927581025679729  0.14818212841549183  0.8091797309743498  1.0000
  N   N9        1.0  0.1845962080693866  0.1489258530422006  0.7101967101410267  1.0000
  N   N10       1.0  0.13934279056695692  0.1821520018295573  0.716352645064802  1.0000
  N   N11       1.0  0.14249026761043382  0.286209854594567  0.8159270035655837  1.0000
  N   N12       1.0  0.19117122717280213  0.2976978603821934  0.8406362660827539  1.0000
  N   N13       1.0  0.7098288018161797  0.17704623938567468  0.1453131247387205  1.0000
  N   N14       1.0  0.6976337701273395  0.1511989215106837  0.1899330573812463  1.0000
  N   N15       1.0  0.8039101595753666  0.1558282675304454  0.2904630755834745  1.0000
  N   N16       1.0  0.8431001227003211  0.19579815735526301  0.29065103293685723  1.0000
  N   N17       1.0  0.8455852705387489  0.2948516208300589  0.1858611777756565  1.0000
  N   N18       1.0  0.8162300578828837  0.2826778127843568  0.1427647108659471  1.0000
  N   N19       1.0  0.309551970803966  0.7947002672136064  0.1724778770415796  1.0000
  N   N20       1.0  0.30166315233888247  0.8399006819843393  0.2016624813121624  1.0000
  N   N21       1.0  0.18677697838911914  0.851728961917715  0.2919139216577165  1.0000
  N   N22       1.0  0.1421282753529525  0.8180678521044484  0.2871468302540663  1.0000
  N   N23       1.0  0.14833741714993212  0.7080395778160881  0.19326494511285117  1.0000
  N   N24       1.0  0.19682166498196813  0.6949766096061724  0.16914643552659211  1.0000
