data_image0
_chemical_formula_structural       ZnH12C18N6O4
_chemical_formula_sum              "Zn1 H12 C18 N6 O4"
_cell_length_a       7.478783069999138
_cell_length_b       7.691800483080189
_cell_length_c       8.661501277918779
_cell_angle_alpha    91.81091210939844
_cell_angle_beta     90.0108798972269
_cell_angle_gamma    119.1061935015593

_space_group_name_H-M_alt    "P 1"
_space_group_IT_number       1

loop_
  _space_group_symop_operation_xyz
  'x, y, z'

loop_
  _atom_site_type_symbol
  _atom_site_label
  _atom_site_symmetry_multiplicity
  _atom_site_fract_x
  _atom_site_fract_y
  _atom_site_fract_z
  _atom_site_occupancy
  Zn  Zn1       1.0  0.4261302742214782  0.0002730633167261006  0.4998832025304126  1.0000
  H   H1        1.0  0.600459880225472  0.2867888149930309  0.9357859946211705  1.0000
  H   H2        1.0  0.31275534595290116  0.712773773370934  0.0646285979647061  1.0000
  H   H3        1.0  0.8441068479311086  0.3399460182129913  0.7211637758258151  1.0000
  H   H4        1.0  0.503797225439932  0.6598795661323108  0.27900716278601584  1.0000
  H   H5        1.0  0.23762937236799786  0.2551631305971966  0.04086228230261921  1.0000
  H   H6        1.0  0.9815180668639911  0.7449210909317542  0.9588790879134734  1.0000
  H   H7        1.0  0.9888464280046351  0.1964975857770881  0.2501430736277044  1.0000
  H   H8        1.0  0.7910830915250743  0.8034014464523196  0.7497816240268236  1.0000
  H   H9        1.0  0.17173836398190187  0.507157972375559  0.5858614622848748  1.0000
  H   H10       1.0  0.6649107833419023  0.4924953742026543  0.4138422037168894  1.0000
  H   H11       1.0  0.2454220306502252  0.06214993576827511  0.8098743757213998  1.0000
  H   H12       1.0  0.1828050397462988  0.9386850567329361  0.18988909969887402  1.0000
  C   C1        1.0  0.6135294717074729  0.17496754106584686  0.222413072901027  1.0000
  C   C2        1.0  0.4371850378647792  0.8247493834253349  0.778010207737161  1.0000
  C   C3        1.0  0.7769789010652914  0.2330290246537174  0.10382554740041171  1.0000
  C   C4        1.0  0.5426938619221815  0.7665650836127326  0.8963245657285199  1.0000
  C   C5        1.0  0.7407867958659865  0.28082916521983486  0.9565000989449146  1.0000
  C   C6        1.0  0.458979444194661  0.7186513474997015  0.043702722843917706  1.0000
  C   C7        1.0  0.8758896516765162  0.3104482783699467  0.8373310330427444  1.0000
  C   C8        1.0  0.5647898966372864  0.6892537090877012  0.1627732524928263  1.0000
  C   C9        1.0  0.049308099375480176  0.292707536803256  0.8683053359115149  1.0000
  C   C10       1.0  0.7559724924881692  0.7071974404476008  0.1316131123912569  1.0000
  C   C11       1.0  0.09628084826982787  0.25887498597247566  0.0168357691502621  1.0000
  C   C12       1.0  0.8363992171161171  0.7409586313600086  0.9829902693005862  1.0000
  C   C13       1.0  0.9582681550888951  0.22783150642568012  0.13432131383262202  1.0000
  C   C14       1.0  0.7291986606505887  0.7718647468527421  0.8655962183582917  1.0000
  C   C15       1.0  0.22226109547492706  0.3998045697104331  0.6101083681683974  1.0000
  C   C16       1.0  0.8226769640598947  0.6002331067898155  0.3895868681991672  1.0000
  C   C17       1.0  0.2607425871045734  0.17507251668293825  0.7303682174767376  1.0000
  C   C18       1.0  0.08544768280584941  0.8257316071403408  0.26944517584846045  1.0000
  N   N1        1.0  0.3543371188043523  0.20479853105519652  0.5964916114577862  1.0000
  N   N2        1.0  0.14970093716932095  0.7960348462458028  0.4032044475935877  1.0000
  N   N3        1.0  0.3318771968933448  0.3484595714244207  0.519739902985414  1.0000
  N   N4        1.0  0.9838476829565155  0.6518630759372003  0.47986670030511647  1.0000
  N   N5        1.0  0.17545188149651375  0.2955307155045474  0.7440976701390982  1.0000
  N   N6        1.0  0.8797028784076275  0.7047685300969205  0.25572033929952204  1.0000
  O   O1        1.0  0.6468012188589968  0.10955081402147468  0.34979105335118993  1.0000
  O   O2        1.0  0.5358529921425799  0.8903822194925225  0.6506846768338193  1.0000
  O   O3        1.0  0.456132771969827  0.18749744524528472  0.19288845853505882  1.0000
  O   O4        1.0  0.2673401883896032  0.8122010937559095  0.8078595410040351  1.0000
