data_image0
_chemical_formula_structural       Zn2H38C38N2O8
_chemical_formula_sum              "Zn2 H38 C38 N2 O8"
_cell_length_a       8.965320061057506
_cell_length_b       13.95282711623789
_cell_length_c       15.28648318632692
_cell_angle_alpha    89.43095697639701
_cell_angle_beta     89.57212791205765
_cell_angle_gamma    79.95854500464215

_space_group_name_H-M_alt    "P 1"
_space_group_IT_number       1

loop_
  _space_group_symop_operation_xyz
  'x, y, z'

loop_
  _atom_site_type_symbol
  _atom_site_label
  _atom_site_symmetry_multiplicity
  _atom_site_fract_x
  _atom_site_fract_y
  _atom_site_fract_z
  _atom_site_occupancy
  Zn  Zn1       1.0  0.48741693178673984  0.6016241862767232  0.5005257300906436  1.0000
  Zn  Zn2       1.0  0.5121137795185363  0.39917218490623435  0.4996780452683537  1.0000
  H   H1        1.0  0.028981145762266222  0.38901853207794795  0.4983685093675161  1.0000
  H   H2        1.0  0.2737734385213739  0.7808594745118999  0.4542375032602591  1.0000
  H   H3        1.0  0.28741374839024303  0.2738829338287161  0.5469623924981377  1.0000
  H   H4        1.0  0.7138207275233767  0.72543039248162  0.5441301270623595  1.0000
  H   H5        1.0  0.27260545236078576  0.09561341069743891  0.5494760833827427  1.0000
  H   H6        1.0  0.7287543572824474  0.9036679789397511  0.5474922242147287  1.0000
  H   H7        1.0  0.15374069320612452  0.7916937239484128  0.922283825882033  1.0000
  H   H8        1.0  0.06655452427625627  0.8325347680326728  0.02311273689387859  1.0000
  H   H9        1.0  0.21971335284235494  0.8849372238934591  0.9812426273496296  1.0000
  H   H10       1.0  0.31316113094970177  0.7666279090848892  0.10167610507997438  1.0000
  H   H11       1.0  0.3963982466294029  0.7250568552026166  0.0013133699707452947  1.0000
  H   H12       1.0  0.9686651609851963  0.6133489642467466  0.4994319907523843  1.0000
  H   H13       1.0  0.20873759374777023  0.6152596372773118  0.9837345442365117  1.0000
  H   H14       1.0  0.12023674009132891  0.655213536180689  0.08324265902963647  1.0000
  H   H15       1.0  0.12862002236420272  0.29436106469907497  0.08048496732745747  1.0000
  H   H16       1.0  0.047544603119227695  0.2708941814816869  0.9789692929193945  1.0000
  H   H17       1.0  0.1920427594951875  0.1825420465379111  0.02617155644472289  1.0000
  H   H18       1.0  0.30186458868261923  0.27112291169519404  0.9042814044460383  1.0000
  H   H19       1.0  0.3801675724533524  0.2957124551871714  0.005228530266208498  1.0000
  H   H20       1.0  0.20016928133850342  0.45177704648758527  0.016271464673579292  1.0000
  H   H21       1.0  0.11574159492607088  0.4298204017983097  0.916565928270657  1.0000
  H   H22       1.0  0.04382139085006292  0.5540901628677517  0.19861319835247565  1.0000
  H   H23       1.0  0.6612807753313846  0.3898724979531352  0.21807201712623225  1.0000
  H   H24       1.0  0.13283320274936733  0.5067002747827588  0.29685669204108217  1.0000
  H   H25       1.0  0.003385864158964668  0.6185957014865904  0.2981889761361315  1.0000
  H   H26       1.0  0.2713178838503581  0.6485451984149151  0.304526360387733  1.0000
  H   H27       1.0  0.18328608437973776  0.6977393483430986  0.20743561634956353  1.0000
  H   H28       1.0  0.12706282823391754  0.5691728179802952  0.7045813542759445  1.0000
  H   H29       1.0  0.002519629144565291  0.4830185321702772  0.7043942249394771  1.0000
  H   H30       1.0  0.04049145154935023  0.539655829544273  0.803699834401378  1.0000
  H   H31       1.0  0.2739115138253397  0.39904071274552416  0.6955947341218475  1.0000
  H   H32       1.0  0.18682959583096448  0.3663005379234932  0.7923474256508098  1.0000
  H   H33       1.0  0.6615807724248839  0.568869230281095  0.7815032939166071  1.0000
  H   H34       1.0  0.6486749110914689  0.389773410032781  0.05476843840989429  1.0000
  H   H35       1.0  0.6505902106374676  0.5686108229994177  0.9449067994450429  1.0000
  H   H36       1.0  0.7320924341028175  0.040641507820140504  0.44978748696467347  1.0000
  H   H37       1.0  0.26931038596882945  0.9615282560770596  0.4508272341340386  1.0000
  H   H38       1.0  0.7274215722223404  0.22124193612236104  0.45396573691935044  1.0000
  C   C1        1.0  0.4867062721232287  0.5008903478920742  0.32943401003507217  1.0000
  C   C2        1.0  0.626135933888577  0.879830452045752  0.5251035626886987  1.0000
  C   C3        1.0  0.5020401138756512  0.05306965586925829  0.499620126338371  1.0000
  C   C4        1.0  0.4993185285605577  0.9476580998735004  0.49926007331814753  1.0000
  C   C5        1.0  0.7961863232494368  0.47252218004327057  0.5005240575869576  1.0000
  C   C6        1.0  0.2014028563278886  0.5302016774351586  0.4992842870290629  1.0000
  C   C7        1.0  0.9636600772384727  0.4626194107351154  0.4995073257364167  1.0000
  C   C8        1.0  0.03397730710383232  0.5397303163432952  0.4994467101858715  1.0000
  C   C9        1.0  0.3439322178515882  0.5679878573308059  0.09706814465919678  1.0000
  C   C10       1.0  0.342130060584168  0.4625093682195994  0.9037970180215067  1.0000
  C   C11       1.0  0.35024622307154374  0.5677858395046087  0.18950022841999464  1.0000
  C   C12       1.0  0.4827632456849998  0.49967399936481627  0.6707039769628622  1.0000
  C   C13       1.0  0.349024615230988  0.4616751863711954  0.8113548329078382  1.0000
  C   C14       1.0  0.46716070937373627  0.5035486082712453  0.23194688354674034  1.0000
  C   C15       1.0  0.465934442956936  0.4998070079397507  0.7685369522854228  1.0000
  C   C16       1.0  0.5730466897542074  0.4392899297696077  0.18351740372401784  1.0000
  C   C17       1.0  0.5731066280288674  0.5389428839567856  0.8162780423625475  1.0000
  C   C18       1.0  0.5657086125484058  0.439280866365607  0.09282626019087557  1.0000
  C   C19       1.0  0.5666527425680883  0.5389387239014667  0.9071109982332712  1.0000
  C   C20       1.0  0.45184791861373697  0.5029787404093754  0.04896592843136459  1.0000
  C   C21       1.0  0.4517515414650007  0.5014971653630482  0.9514577774500521  1.0000
  C   C22       1.0  0.23001383540139397  0.6424108320617848  0.048856807056083085  1.0000
  C   C23       1.0  0.6316785837046481  0.08945626161634829  0.4730727274012948  1.0000
  C   C24       1.0  0.2876813976600659  0.7393825629050497  0.03701575170958188  1.0000
  C   C25       1.0  0.17587611143707696  0.81638579793146  0.9883175280092116  1.0000
  C   C26       1.0  0.22367407903985997  0.4171400499954032  0.9522001614878445  1.0000
  C   C27       1.0  0.27413528269884324  0.3071620467482106  0.9676054724552399  1.0000
  C   C28       1.0  0.15418466934374922  0.2611000354101947  0.0158978483791898  1.0000
  C   C29       1.0  0.22569318368484662  0.6291680550778836  0.24210492656257535  1.0000
  C   C30       1.0  0.09377531036902557  0.5742279605168576  0.2598324232272445  1.0000
  C   C31       1.0  0.226538632932602  0.42713205578173347  0.7585689458825512  1.0000
  C   C32       1.0  0.09110420811290246  0.5093625977690551  0.7419463835351718  1.0000
  C   C33       1.0  0.3697104681030936  0.912041248590029  0.473241706739884  1.0000
  C   C34       1.0  0.6299350591060531  0.18917534382021733  0.47427240632859463  1.0000
  C   C35       1.0  0.371387649364479  0.8123075672498742  0.4739591259665728  1.0000
  C   C36       1.0  0.3826247375487385  0.2187537757000513  0.5265288239425769  1.0000
  C   C37       1.0  0.618782446617047  0.7811995910564775  0.5244433303311948  1.0000
  C   C38       1.0  0.37523302910837947  0.12012028520208423  0.5266707562876788  1.0000
  N   N1        1.0  0.507669756192101  0.25239935534616353  0.5006802615245574  1.0000
  N   N2        1.0  0.4936007087077741  0.7482817618787933  0.49929122953746924  1.0000
  O   O1        1.0  0.48928163961385723  0.581237103659447  0.36792104850466245  1.0000
  O   O2        1.0  0.5081943695081749  0.4173802732318279  0.6330102476886807  1.0000
  O   O3        1.0  0.5034126105820463  0.4174510463414833  0.3663311183204811  1.0000
  O   O4        1.0  0.47365824604709433  0.5824191480166904  0.6332865664163377  1.0000
  O   O5        1.0  0.7191232716359864  0.5580288337173513  0.5059792414153816  1.0000
  O   O6        1.0  0.27890057907263355  0.44465989306422676  0.5037258717595205  1.0000
  O   O7        1.0  0.7432096844121008  0.39347737623867823  0.49610677796580643  1.0000
  O   O8        1.0  0.25379910580007703  0.6095706836147841  0.4950031251647855  1.0000
