data_image0
_chemical_formula_structural       Cu2H16C28N16
_chemical_formula_sum              "Cu2 H16 C28 N16"
_cell_length_a       8.635819330302736
_cell_length_b       9.533063010921833
_cell_length_c       10.395806084588983
_cell_angle_alpha    79.06129641075414
_cell_angle_beta     65.16580931380533
_cell_angle_gamma    63.13309594401508

_space_group_name_H-M_alt    "P 1"
_space_group_IT_number       1

loop_
  _space_group_symop_operation_xyz
  'x, y, z'

loop_
  _atom_site_type_symbol
  _atom_site_label
  _atom_site_symmetry_multiplicity
  _atom_site_fract_x
  _atom_site_fract_y
  _atom_site_fract_z
  _atom_site_occupancy
  Cu  Cu1       1.0  0.8857115951120984  0.3715145049797144  0.28427605320880633  1.0000
  Cu  Cu2       1.0  0.2573144474628249  0.6283836460530737  0.7841237393566016  1.0000
  H   H1        1.0  0.2925755966791143  0.13584927013527454  0.16855860414683824  1.0000
  H   H2        1.0  0.4288626140232379  0.864159841501298  0.6679986716545796  1.0000
  H   H3        1.0  0.6036115047219609  0.1537488277835166  0.05733789721606541  1.0000
  H   H4        1.0  0.7578036716698401  0.846349410741837  0.5567793012354866  1.0000
  H   H5        1.0  0.6078033581398612  0.4199961916666695  0.032765070520028354  1.0000
  H   H6        1.0  0.027644747735109713  0.5801467438861039  0.5327159759215191  1.0000
  H   H7        1.0  0.30416995348056003  0.6567185264034663  0.11186783485628378  1.0000
  H   H8        1.0  0.9601893292023856  0.34350228330610827  0.6122363975512926  1.0000
  H   H9        1.0  0.5225899540144993  0.6722287313514601  0.35132957868611897  1.0000
  H   H10       1.0  0.19452072398050277  0.32737184386163426  0.851429418964052  1.0000
  H   H11       1.0  0.4412292895736767  0.9610157481683075  0.34362302570474396  1.0000
  H   H12       1.0  0.4016884651727181  0.038632021649064506  0.8438954833881737  1.0000
  H   H13       1.0  0.7042308102020414  0.04713039827421991  0.2631093786760203  1.0000
  H   H14       1.0  0.7504117779538002  0.9529664358799655  0.7637094620007117  1.0000
  H   H15       1.0  0.03485307713948757  0.8430255600916753  0.1874569176564122  1.0000
  H   H16       1.0  0.8769987505512301  0.15734586544470375  0.6879716632915771  1.0000
  C   C1        1.0  0.13913277821573886  0.5210437251961297  0.18357249344042964  1.0000
  C   C2        1.0  0.6597483860546731  0.4791122153224239  0.6837348386361126  1.0000
  C   C3        1.0  0.3021764558084071  0.2482781746869307  0.15610165480734384  1.0000
  C   C4        1.0  0.5506678884426106  0.7518359810650423  0.6557996359144977  1.0000
  C   C5        1.0  0.47390802242469476  0.2594009104867753  0.09440812425499687  1.0000
  C   C6        1.0  0.733521842845583  0.7407269828392983  0.5941251376722007  1.0000
  C   C7        1.0  0.47609383543046124  0.4070334141597414  0.07938128797215427  1.0000
  C   C8        1.0  0.8829832060800055  0.593144968179125  0.5793859139949543  1.0000
  C   C9        1.0  0.3066628627444387  0.5398561865597317  0.12392195144493459  1.0000
  C   C10       1.0  0.8460672468078767  0.4603238130633329  0.6241572261021416  1.0000
  C   C11       1.0  0.9517453611046062  0.6514180562481471  0.22804058204425098  1.0000
  C   C12       1.0  0.6025917874358979  0.34867286526954905  0.7282764215993323  1.0000
  C   C13       1.0  0.6307188448767248  0.7162172477112706  0.3136448713761906  1.0000
  C   C14       1.0  0.3465037649215786  0.28351284984181296  0.8138103042835635  1.0000
  C   C15       1.0  0.5873594565915708  0.8762972458585522  0.3091411423135637  1.0000
  C   C16       1.0  0.4630881303352297  0.12348204597556389  0.8094178994474885  1.0000
  C   C17       1.0  0.7333917219813982  0.9231557069799409  0.26466722981372454  1.0000
  C   C18       1.0  0.6557687425359827  0.076888656108153  0.7651592457911106  1.0000
  C   C19       1.0  0.9181586121902183  0.8097202858902719  0.222719918730263  1.0000
  C   C20       1.0  0.7271329778201261  0.1904590654657596  0.7231539557150339  1.0000
  C   C21       1.0  0.5052453079280566  0.35311324349621037  0.420431398076033  1.0000
  C   C22       1.0  0.8587245410202726  0.646794812619838  0.9202891438955798  1.0000
  C   C23       1.0  0.3167163129162276  0.21558034654557903  0.5210545763250278  1.0000
  C   C24       1.0  0.5329194576719656  0.7842963001158268  0.020868196765249473  1.0000
  C   C25       1.0  0.024527841383587694  0.029311094095923796  0.4028364878108233  1.0000
  C   C26       1.0  0.05399425907154411  0.9707386840795422  0.9024215163132893  1.0000
  C   C27       1.0  0.14450506497384888  0.795763087128144  0.5184039749926298  1.0000
  C   C28       1.0  0.9403130326012101  0.2042594235850785  0.01810416069923086  1.0000
  N   N1        1.0  0.13995982171375934  0.37642366606830546  0.20063777854305437  1.0000
  N   N2        1.0  0.5163192654454601  0.6236836755745544  0.7005268282790026  1.0000
  N   N3        1.0  0.8080791939680196  0.6071953378816061  0.2747866871794854  1.0000
  N   N4        1.0  0.4148691146547774  0.3926962776498613  0.7749224601212034  1.0000
  N   N5        1.0  0.625929834360157  0.3947501303518166  0.3919142642438017  1.0000
  N   N6        1.0  0.020945491175673583  0.6049604633600796  0.8919295531116374  1.0000
  N   N7        1.0  0.3625865204242372  0.3264407499699473  0.4452541390742296  1.0000
  N   N8        1.0  0.689451868885051  0.6735980094044792  0.9449887659453605  1.0000
  N   N9        1.0  0.2576303064229463  0.12228182601997872  0.5856706758550202  1.0000
  N   N10       1.0  0.3806456532855688  0.8774923712223741  0.08555373513510027  1.0000
  N   N11       1.0  0.9842418732721541  0.1605592256317792  0.36377053934084796  1.0000
  N   N12       1.0  0.1451373731390929  0.8394283131577396  0.8635478530310932  1.0000
  N   N13       1.0  0.056383626220707465  0.8851916556705605  0.43871175017374486  1.0000
  N   N14       1.0  0.9417558154549538  0.1148384342339241  0.9381961263773344  1.0000
  N   N15       1.0  0.21980582776578905  0.6993414972318136  0.5878467760941887  1.0000
  N   N16       1.0  0.91918244344226  0.30060237064790124  0.08779990053795923  1.0000
