data_image0
_chemical_formula_structural       Zn2H27C21N3O9
_chemical_formula_sum              "Zn2 H27 C21 N3 O9"
_cell_length_a       9.861637820611293
_cell_length_b       10.929427654057589
_cell_length_c       11.230313576128921
_cell_angle_alpha    88.28215154070851
_cell_angle_beta     80.97933899641032
_cell_angle_gamma    74.8882226833736

_space_group_name_H-M_alt    "P 1"
_space_group_IT_number       1

loop_
  _space_group_symop_operation_xyz
  'x, y, z'

loop_
  _atom_site_type_symbol
  _atom_site_label
  _atom_site_symmetry_multiplicity
  _atom_site_fract_x
  _atom_site_fract_y
  _atom_site_fract_z
  _atom_site_occupancy
  Zn  Zn1       1.0  0.36608254961566905  0.5243642086067622  0.49461629755003145  1.0000
  Zn  Zn2       1.0  0.652877577772145  0.45462814618598935  0.5063468262111499  1.0000
  H   H1        1.0  0.32255414999176685  0.9569946950351851  0.39209186134949203  1.0000
  H   H2        1.0  0.6678749768980907  0.03246236946839079  0.6124905745568868  1.0000
  H   H3        1.0  0.45943563485508343  0.8868026607828908  0.6835302448624319  1.0000
  H   H4        1.0  0.4030402362608426  0.1082827522274599  0.6999757796974819  1.0000
  H   H5        1.0  0.6256627585233403  0.4436502250334584  0.8885879139775384  1.0000
  H   H6        1.0  0.3901805689427108  0.5339766198861824  0.11237043022501332  1.0000
  H   H7        1.0  0.7115170607717901  0.40707726594716587  0.09516959387646301  1.0000
  H   H8        1.0  0.13413401823413548  0.40671002069581885  0.531096211736454  1.0000
  H   H9        1.0  0.8649577473349268  0.6050260319403051  0.457102709421733  1.0000
  H   H10       1.0  0.48769957393191293  0.9071701110112258  0.29707410654549454  1.0000
  H   H11       1.0  0.9202478579385129  0.34957518633531504  0.5530438520477787  1.0000
  H   H12       1.0  0.5422601038383091  0.1014317366529554  0.31599791192270754  1.0000
  H   H13       1.0  0.3601701211519313  0.16139601158849362  0.37377327739728383  1.0000
  H   H14       1.0  0.30362080198955244  0.9102229504904003  0.6172279784153646  1.0000
  H   H15       1.0  0.2806757848948749  0.1297781890639129  0.5970785297344463  1.0000
  H   H16       1.0  0.7015826760657974  0.8214132419455139  0.5518519822796222  1.0000
  H   H17       1.0  0.7119598745494998  0.8616197249359063  0.3974135051508371  1.0000
  H   H18       1.0  0.7260823402872774  0.06113238250410551  0.46075900455156227  1.0000
  H   H19       1.0  0.09837910809268637  0.7287968447845046  0.9276509613118836  1.0000
  H   H20       1.0  0.21955357346929116  0.7249856160682528  0.7910023548656824  1.0000
  H   H21       1.0  0.2665584645366436  0.8001944304439949  0.040592641979181124  1.0000
  H   H22       1.0  0.3817504371715188  0.8023575757369484  0.9037808627213268  1.0000
  H   H23       1.0  0.18707670441220606  0.9693164231096035  0.8229645036891143  1.0000
  H   H24       1.0  0.2287453269839546  0.021791861351673002  0.9574043890985565  1.0000
  H   H25       1.0  0.07280804656394219  0.968354597746469  0.9617601537784213  1.0000
  H   H26       1.0  0.1783990060378784  0.7486402854234274  0.43527858144719306  1.0000
  H   H27       1.0  0.0010415026985270668  0.737155328923592  0.43394204213903015  1.0000
  C   C1        1.0  0.5722012807373673  0.45857315755591804  0.2677964818768858  1.0000
  C   C2        1.0  0.4973583062015053  0.1137894299659123  0.5112762285113065  1.0000
  C   C3        1.0  0.388346927118377  0.07795308620971753  0.6114151173887451  1.0000
  C   C4        1.0  0.645231200568773  0.026345738316550217  0.5203371760346088  1.0000
  C   C5        1.0  0.6012033738697794  0.4484367318464424  0.13501140173824677  1.0000
  C   C6        1.0  0.4977928087760689  0.4922357591534948  0.06622693827605271  1.0000
  C   C7        1.0  0.41787514530629716  0.5407798970587692  0.868974590967426  1.0000
  C   C8        1.0  0.520805924584714  0.48934480974332933  0.9373149138171898  1.0000
  C   C9        1.0  0.927407691964284  0.5165179275559881  0.4912097112571417  1.0000
  C   C10       1.0  0.0743950768287007  0.49834671049160323  0.501474112552529  1.0000
  C   C11       1.0  0.49365121888897795  0.7377977582857016  0.4788331470620762  1.0000
  C   C12       1.0  0.45124623572040434  0.5290962830895937  0.7336509650632907  1.0000
  C   C13       1.0  0.4938336524237245  0.25377979831203856  0.5211037900453235  1.0000
  C   C14       1.0  0.43592420337385823  0.9542162349619971  0.3837927852694492  1.0000
  C   C15       1.0  0.4571188710346733  0.08942230603764761  0.387884968316726  1.0000
  C   C16       1.0  0.40687476836845343  0.9329486509211976  0.608304455574782  1.0000
  C   C17       1.0  0.6501098749432401  0.8887311327422012  0.48759002940648355  1.0000
  C   C18       1.0  0.4983358180099345  0.8756618389204932  0.48830158687557923  1.0000
  C   C19       1.0  0.2106822685687605  0.7177921738526792  0.8897553161340996  1.0000
  C   C20       1.0  0.269049177336342  0.8163983236398308  0.9430621623975597  1.0000
  C   C21       1.0  0.18483207308193522  0.9513096290568659  0.9200118939353885  1.0000
  N   N1        1.0  0.8596926523554773  0.4307868095474063  0.5204442896367781  1.0000
  N   N2        1.0  0.1501847937180969  0.5805121650589059  0.4773873665945701  1.0000
  N   N3        1.0  0.10532917992465228  0.6966464831549289  0.4386627493391871  1.0000
  O   O1        1.0  0.4423233797753028  0.49567183529034514  0.3181041243083628  1.0000
  O   O2        1.0  0.6797522734521025  0.4298626605538516  0.3233224329663713  1.0000
  O   O3        1.0  0.3725777907625556  0.717086941596307  0.4748747102492814  1.0000
  O   O4        1.0  0.6087188821390015  0.6520513384001988  0.478877118026162  1.0000
  O   O5        1.0  0.3457739149880296  0.5492207373747534  0.6762577369269496  1.0000
  O   O6        1.0  0.5817473745640954  0.49796269362767026  0.6875195484702985  1.0000
  O   O7        1.0  0.37451778391684354  0.3338198503694941  0.5173820625556405  1.0000
  O   O8        1.0  0.6095005629512543  0.28127302561179596  0.53007002676965  1.0000
  O   O9        1.0  0.28108699886020366  0.5904101712663204  0.9225587196084605  1.0000
