data_image0
_chemical_formula_structural       Cd4H32C48N12Cl8
_chemical_formula_sum              "Cd4 H32 C48 N12 Cl8"
_cell_length_a       11.907015328584894
_cell_length_b       11.908235613676155
_cell_length_c       12.974968789160213
_cell_angle_alpha    94.04479343964351
_cell_angle_beta     114.15184277288074
_cell_angle_gamma    118.50446580339465

_space_group_name_H-M_alt    "P 1"
_space_group_IT_number       1

loop_
  _space_group_symop_operation_xyz
  'x, y, z'

loop_
  _atom_site_type_symbol
  _atom_site_label
  _atom_site_symmetry_multiplicity
  _atom_site_fract_x
  _atom_site_fract_y
  _atom_site_fract_z
  _atom_site_occupancy
  Cd  Cd1       1.0  0.6711166568039885  0.2048227079677289  0.311537599861758  1.0000
  Cd  Cd2       1.0  0.393436852872  0.35973022620122197  0.18845183401299442  1.0000
  Cd  Cd3       1.0  0.32888489368291113  0.7951778709756281  0.688462756501323  1.0000
  Cd  Cd4       1.0  0.6065625483705332  0.6402683290986103  0.8115483593311693  1.0000
  H   H1        1.0  0.9440603739819765  0.5054188358763483  0.3684054322642966  1.0000
  H   H2        1.0  0.6368365341329962  0.5757555941510332  0.13156156189116788  1.0000
  H   H3        1.0  0.055944848096324086  0.49457869087643047  0.6315976191887813  1.0000
  H   H4        1.0  0.3631604105847116  0.42424499620411615  0.8684355469373982  1.0000
  H   H5        1.0  0.12794712711887257  0.6156909354020569  0.30383503382403626  1.0000
  H   H6        1.0  0.8118445272812522  0.8241356679183696  0.19623856945077742  1.0000
  H   H7        1.0  0.8720568851711833  0.3843076083290383  0.6961691797280096  1.0000
  H   H8        1.0  0.18815120764821106  0.17586593941508968  0.8037597014767499  1.0000
  H   H9        1.0  0.07934532728543796  0.4861882143814853  0.10896955894033775  1.0000
  H   H10       1.0  0.8774116690028531  0.970342576412953  0.3912131059168684  1.0000
  H   H11       1.0  0.9206553094372866  0.5138123666244995  0.8910312296585445  1.0000
  H   H12       1.0  0.12258374421058697  0.029657003151740496  0.6087841375201322  1.0000
  H   H13       1.0  0.8440156056175995  0.2618738220603802  0.9869171924661443  1.0000
  H   H14       1.0  0.7750056980826016  0.8570340549054831  0.513220404025084  1.0000
  H   H15       1.0  0.1559865731660679  0.7381277694221352  0.013085006871023082  1.0000
  H   H16       1.0  0.22499463205939207  0.14296754133009404  0.48677956909023823  1.0000
  H   H17       1.0  0.6352620485323327  0.3317661704977013  0.9202943544817899  1.0000
  H   H18       1.0  0.9119152244281848  0.715276602138367  0.5799879202761318  1.0000
  H   H19       1.0  0.36473918023854407  0.6682323806768904  0.07970497439077198  1.0000
  H   H20       1.0  0.08808325707213531  0.28472499885027247  0.42000982661735264  1.0000
  H   H21       1.0  0.6561580680519583  0.4083322716930126  0.754071149022771  1.0000
  H   H22       1.0  0.15442618744376815  0.9025271210952753  0.7464029584401712  1.0000
  H   H23       1.0  0.343848996689978  0.5916682939328836  0.24593124996566468  1.0000
  H   H24       1.0  0.8455722940565449  0.09747447989336419  0.253594788453313  1.0000
  H   H25       1.0  0.567936927774724  0.2384871694418962  0.564482451609166  1.0000
  H   H26       1.0  0.17356304274013468  0.0036557624096076003  0.9357378852010001  1.0000
  H   H27       1.0  0.4320698251081367  0.761514411570566  0.43551835922234977  1.0000
  H   H28       1.0  0.8264381965874039  0.9963427884510808  0.06426298901828194  1.0000
  H   H29       1.0  0.4499495885778372  0.9932518013714567  0.5516177118631588  1.0000
  H   H30       1.0  0.9408288274231821  0.8980732172890808  0.948285961470681  1.0000
  H   H31       1.0  0.5500516553283246  0.006749792801500099  0.4483818290163625  1.0000
  H   H32       1.0  0.05917333622520001  0.1019253311950692  0.05171602585952681  1.0000
  C   C1        1.0  0.9243766272849427  0.45434099881368417  0.28367189954695965  1.0000
  C   C2        1.0  0.6705894265155833  0.6407488489587223  0.21636869884974178  1.0000
  C   C3        1.0  0.0756267619866762  0.5456565322212938  0.7163312437043599  1.0000
  C   C4        1.0  0.3294099793055665  0.3592527496533933  0.7836301611546618  1.0000
  C   C5        1.0  0.027547121093668653  0.5158301423769771  0.24683151508847354  1.0000
  C   C6        1.0  0.768962172065649  0.7807451453283535  0.2532456726275712  1.0000
  C   C7        1.0  0.9724572076340791  0.48417042927983533  0.7531729532807319  1.0000
  C   C8        1.0  0.23103353717186792  0.2192534193206512  0.7467508409462696  1.0000
  C   C9        1.0  0.9994234161597575  0.4455942600627196  0.13935780167912518  1.0000
  C   C10       1.0  0.8063207452828466  0.8600474089978081  0.3607746198682947  1.0000
  C   C11       1.0  0.0005766028228748538  0.5544053080901888  0.8606426892923977  1.0000
  C   C12       1.0  0.19367713431236666  0.13995317866689308  0.6392251474179105  1.0000
  C   C13       1.0  0.8669660890459029  0.3191637617439297  0.07019188272786184  1.0000
  C   C14       1.0  0.7489972683064252  0.79674926000488  0.4299139853576435  1.0000
  C   C15       1.0  0.13303640617545656  0.68083985766431  0.929810571426465  1.0000
  C   C16       1.0  0.2510018210770326  0.2032503106815113  0.5700846198295935  1.0000
  C   C17       1.0  0.766999531739195  0.26520152662262564  0.11140119973214273  1.0000
  C   C18       1.0  0.6538296197627603  0.6556101799375895  0.38867819195805  1.0000
  C   C19       1.0  0.2330004819650994  0.7347980416872344  0.8885985185660202  1.0000
  C   C20       1.0  0.3461691683182977  0.3443904058214499  0.6113203704189942  1.0000
  C   C21       1.0  0.6264300541321219  0.12829657730016922  0.04738114548178631  1.0000
  C   C22       1.0  0.5808871982301511  0.5790676325875097  0.4526624365889163  1.0000
  C   C23       1.0  0.37356629395881674  0.8717029995740899  0.9526187564128676  1.0000
  C   C24       1.0  0.4191106760867314  0.42093295523415003  0.547336558023929  1.0000
  C   C25       1.0  0.528180120323661  0.0650288619918911  0.9223558111393969  1.0000
  C   C26       1.0  0.6427233102094475  0.6057401119055966  0.5776675888571673  1.0000
  C   C27       1.0  0.47181684022904585  0.934971727892396  0.077643615709249  1.0000
  C   C28       1.0  0.357277019932539  0.3942614843299878  0.42233238425815506  1.0000
  C   C29       1.0  0.5437923923004178  0.1224013001264339  0.8277110996228315  1.0000
  C   C30       1.0  0.7947137803588332  0.7160201302226382  0.6723360005914997  1.0000
  C   C31       1.0  0.4562057833188718  0.8775982726225849  0.17228793780021331  1.0000
  C   C32       1.0  0.20528685108556033  0.2839804509402981  0.3276640153340225  1.0000
  C   C33       1.0  0.600811901464155  0.25900879253919834  0.8400271624035724  1.0000
  C   C34       1.0  0.9191767416471921  0.7609535559077686  0.6601854901840412  1.0000
  C   C35       1.0  0.39918625374151157  0.7409877373683997  0.159970890339153  1.0000
  C   C36       1.0  0.0808211379480213  0.23904703175693948  0.33981427710216383  1.0000
  C   C37       1.0  0.6113171198141742  0.30193557065421567  0.7453701900790862  1.0000
  C   C38       1.0  0.05655902824516084  0.8662219878419035  0.7549359962312181  1.0000
  C   C39       1.0  0.3886841142350334  0.6980629803634243  0.2546299114668358  1.0000
  C   C40       1.0  0.9434419143585941  0.1337806214037016  0.24506350183810352  1.0000
  C   C41       1.0  0.5614337165958575  0.20816499746790373  0.6404481522027156  1.0000
  C   C42       1.0  0.06736875069427832  0.9211339192608531  0.8597157815400819  1.0000
  C   C43       1.0  0.4385693706736475  0.7918365921089502  0.3595528422252841  1.0000
  C   C44       1.0  0.9326312577316851  0.07886564920596578  0.14028316408472086  1.0000
  C   C45       1.0  0.4987581732560855  0.07273223732695298  0.633421427439437  1.0000
  C   C46       1.0  0.9388284033747922  0.8652655321258677  0.8665933692624606  1.0000
  C   C47       1.0  0.5012424529099775  0.927268343992928  0.36657781581272525  1.0000
  C   C48       1.0  0.061171610329502406  0.1347340361839926  0.1334063490357025  1.0000
  N   N1        1.0  0.798533958804434  0.33142926979706994  0.21852085742798982  1.0000
  N   N2        1.0  0.6128914605056366  0.5800440049504516  0.28154124744675363  1.0000
  N   N3        1.0  0.2014688225840402  0.6685702915401563  0.7814814275295702  1.0000
  N   N4        1.0  0.38710642436790704  0.41995658255730445  0.7184592925128114  1.0000
  N   N5        1.0  0.5931065155221872  0.05985870729200118  0.11905975658096682  1.0000
  N   N6        1.0  0.4407461994734589  0.47418030914525394  0.38094643803940903  1.0000
  N   N7        1.0  0.40689013844978217  0.9401428978218787  0.8809388547841196  1.0000
  N   N8        1.0  0.5592516801217613  0.525820278519454  0.6190533292467962  1.0000
  N   N9        1.0  0.49133620260315064  0.03089332994681369  0.7248114839647427  1.0000
  N   N10       1.0  0.8057969571368487  0.76634080928234  0.7751237907943391  1.0000
  N   N11       1.0  0.5086622743185458  0.9691052277295499  0.27518759626850203  1.0000
  N   N12       1.0  0.19420521636848057  0.23366078235713414  0.22487763586946127  1.0000
  Cl  Cl1       1.0  0.8825159782902576  0.21635858084241733  0.48249478371176485  1.0000
  Cl  Cl2       1.0  0.23381875532177074  0.3999207944232238  0.017377632776259592  1.0000
  Cl  Cl3       1.0  0.11748279535522951  0.783635918449029  0.5175056726714332  1.0000
  Cl  Cl4       1.0  0.7661821879816983  0.6000787713531538  0.9826239713061896  1.0000
  Cl  Cl5       1.0  0.6059485917517263  0.32808464889574634  0.4117828640791146  1.0000
  Cl  Cl6       1.0  0.41624760660109666  0.1942283762718162  0.0880662920091737  1.0000
  Cl  Cl7       1.0  0.39404680104809825  0.6719118878275336  0.5882133946775667  1.0000
  Cl  Cl8       1.0  0.5837462494161159  0.8057671498179743  0.9119293286825895  1.0000
