data_image0
_chemical_formula_structural       Gd2H40C36N4O22
_chemical_formula_sum              "Gd2 H40 C36 N4 O22"
_cell_length_a       10.618858793764334
_cell_length_b       10.945574401181284
_cell_length_c       12.7711
_cell_angle_alpha    103.96636494443615
_cell_angle_beta     109.83482978470845
_cell_angle_gamma    96.84386251295047

_space_group_name_H-M_alt    "P 1"
_space_group_IT_number       1

loop_
  _space_group_symop_operation_xyz
  'x, y, z'

loop_
  _atom_site_type_symbol
  _atom_site_label
  _atom_site_symmetry_multiplicity
  _atom_site_fract_x
  _atom_site_fract_y
  _atom_site_fract_z
  _atom_site_occupancy
  Gd  Gd1       1.0  0.10092344579777549  0.5454736178695754  0.6826666835004431  1.0000
  Gd  Gd2       1.0  0.8990759149263  0.4545253162267143  0.3173330722603253  1.0000
  H   H1        1.0  0.9315355584695483  0.1415690764549424  0.3014656909022832  1.0000
  H   H2        1.0  0.06846102496239584  0.8584308227841504  0.6985334809496067  1.0000
  H   H3        1.0  0.2292239217605072  0.393619014575755  0.2676536490697714  1.0000
  H   H4        1.0  0.7707834800329607  0.6063886058057477  0.7323540871734052  1.0000
  H   H5        1.0  0.17937419848162509  0.9001964123896328  0.9354107395179411  1.0000
  H   H6        1.0  0.8206224818859766  0.09979962627825499  0.06458217998652312  1.0000
  H   H7        1.0  0.004227411669475595  0.1639584591713046  0.6738704709142523  1.0000
  H   H8        1.0  0.9957657163380276  0.8360395097821821  0.3261265437630954  1.0000
  H   H9        1.0  0.4102007499311142  0.5729743968643248  0.6552102918982712  1.0000
  H   H10       1.0  0.5898091061747266  0.427035153802791  0.3447985360599474  1.0000
  H   H11       1.0  0.5574812155689841  0.8214822609024992  0.8742600729044695  1.0000
  H   H12       1.0  0.4425150448831943  0.1785205337650027  0.12573647468195048  1.0000
  H   H13       1.0  0.4479289574591832  0.5168947743652126  0.8268212053907432  1.0000
  H   H14       1.0  0.5520620392157198  0.4830983688742664  0.17317186071168314  1.0000
  H   H15       1.0  0.6321768166053091  0.4570317920830078  0.9051627698702802  1.0000
  H   H16       1.0  0.3678153102901121  0.542966176870479  0.09483866047291656  1.0000
  H   H17       1.0  0.6368315858805502  0.2913563438672853  0.8561779703737997  1.0000
  H   H18       1.0  0.36316422248341945  0.7086445205146035  0.1438258805598522  1.0000
  H   H19       1.0  0.606751447237059  0.3502937542025535  0.9863684801386368  1.0000
  H   H20       1.0  0.3932441350828029  0.6497061450365393  0.013633541343288898  1.0000
  H   H21       1.0  0.2577652450128411  0.1894777999939379  0.742175730060431  1.0000
  H   H22       1.0  0.7422292070865025  0.810517273531147  0.2578273233956167  1.0000
  H   H23       1.0  0.3695999411412529  0.1699626125413616  0.8755538776471424  1.0000
  H   H24       1.0  0.6303977403384309  0.8300334261265262  0.1244479374959012  1.0000
  H   H25       1.0  0.4095908490209013  0.1305712742283305  0.7485208832811167  1.0000
  H   H26       1.0  0.5904070585028833  0.8694257295823604  0.2514835443315704  1.0000
  H   H27       1.0  0.8764571914465195  0.358501328589135  0.7505066085156641  1.0000
  H   H28       1.0  0.12355586186686911  0.6415005009355568  0.24948977905457062  1.0000
  H   H29       1.0  0.7960041597161549  0.188310942346547  0.7829417525762209  1.0000
  H   H30       1.0  0.2039951040722556  0.8116918523209478  0.21705485931708773  1.0000
  H   H31       1.0  0.84837864405727  0.2058118767717545  0.9359037147541681  1.0000
  H   H32       1.0  0.15162430119968207  0.7941938133241493  0.06409531772960964  1.0000
  H   H33       1.0  0.918486399486838  0.103519286636427  0.8492059155814146  1.0000
  H   H34       1.0  0.08151095901308027  0.8964796474598629  0.15079170926033916  1.0000
  H   H35       1.0  0.19683402936178143  0.3942733813953865  0.9879827668179713  1.0000
  H   H36       1.0  0.8031695618547019  0.6057265178437063  0.01201838212511327  1.0000
  H   H37       1.0  0.15366966700398876  0.227153114405354  0.979063965210031  1.0000
  H   H38       1.0  0.8463339242124945  0.7728467848337388  0.020936400715150787  1.0000
  H   H39       1.0  0.100595574382794  0.3457131864651686  0.06813338016561941  1.0000
  H   H40       1.0  0.8994027852291993  0.6542857476311212  0.9318645271177317  1.0000
  C   C1        1.0  0.9724370529734329  0.028484259509788497  0.39281654621542106  1.0000
  C   C2        1.0  0.027557205254595405  0.9715185351577063  0.6071810025236174  1.0000
  C   C3        1.0  0.9744109526072151  0.1212943216173414  0.49303595447909027  1.0000
  C   C4        1.0  0.025583628600571694  0.8787055776217514  0.506961086453785  1.0000
  C   C5        1.0  0.0018048645877968034  0.0911094804907648  0.5978561396274245  1.0000
  C   C6        1.0  0.9981882634196992  0.908888488462722  0.40214087504992335  1.0000
  C   C7        1.0  0.9535095217362581  0.2523269341049357  0.4905314225619932  1.0000
  C   C8        1.0  0.04649061405578439  0.7476710348485511  0.5094660031707363  1.0000
  C   C9        1.0  0.4089169727415438  0.44536321560914155  0.3818805873211061  1.0000
  C   C10       1.0  0.5910925603845314  0.5546492304863762  0.6181295314611787  1.0000
  C   C11       1.0  0.3582521180508067  0.4842497842368232  0.47165112300607603  1.0000
  C   C12       1.0  0.6417586422314443  0.5157636270014905  0.5283579755979131  1.0000
  C   C13       1.0  0.44988446441015373  0.5391789565161815  0.587846085543802  1.0000
  C   C14       1.0  0.5501240676038391  0.4608334895793362  0.4121629677789755  1.0000
  C   C15       1.0  0.20900214638702144  0.4669631115136283  0.4437618328771577  1.0000
  C   C16       1.0  0.7910041251859357  0.5330396831538735  0.5562438032685152  1.0000
  C   C17       1.0  0.3643014906746984  0.9907673431969855  0.9972036268116682  1.0000
  C   C18       1.0  0.6356948667131448  0.0092315908993044  0.002791366534765435  1.0000
  C   C19       1.0  0.3990917748382259  0.8894312095782552  0.9266849295299124  1.0000
  C   C20       1.0  0.6009071337976337  0.11056579423243558  0.0733119503452926  1.0000
  C   C21       1.0  0.5332039912490032  0.9000670832541857  0.9295981201971841  1.0000
  C   C22       1.0  0.4667941423188894  0.0999308856993011  0.07039560858071069  1.0000
  C   C23       1.0  0.29499393367318305  0.7698480861485208  0.8513366382515882  1.0000
  C   C24       1.0  0.7050041998947095  0.230149882804966  0.14866178863375273  1.0000
  C   C25       1.0  0.3786192019279326  0.4211863884238269  0.7973495563035653  1.0000
  C   C26       1.0  0.6213780274635354  0.5788077199584549  0.20264938295391485  1.0000
  C   C27       1.0  0.5870745050982791  0.3586499605806139  0.8984243923598851  1.0000
  C   C28       1.0  0.4129193979771983  0.6413470432300699  0.10157577341477256  1.0000
  C   C29       1.0  0.3646052409483147  0.1970705784157687  0.797092026381854  1.0000
  C   C30       1.0  0.6353909873310783  0.8029235299665133  0.20290663043402893  1.0000
  C   C31       1.0  0.9769168505611887  0.3839859242709025  0.8239496275393704  1.0000
  C   C32       1.0  0.02308829079124309  0.6160120446825843  0.17604999341926228  1.0000
  C   C33       1.0  0.8823736707305656  0.19384024545811226  0.8625569378403737  1.0000
  C   C34       1.0  0.11762814430586839  0.8061606189237837  0.13743999454590042  1.0000
  C   C35       1.0  0.11897743816881962  0.3184440417428576  0.9868141060080472  1.0000
  C   C36       1.0  0.8810241508235139  0.6815558574962353  0.01318961012346887  1.0000
  N   N1        1.0  0.4407028378258957  0.3290490308491343  0.8292152250572472  1.0000
  N   N2        1.0  0.5592903871172652  0.6709450775331476  0.17078258443383723  1.0000
  N   N3        1.0  0.9927455713440027  0.3023358083806684  0.8875442982617442  1.0000
  N   N4        1.0  0.007257567784272102  0.6976621605728255  0.11245319177786679  1.0000
  O   O1        1.0  0.9685303391440101  0.3354913590512112  0.5848373129427031  1.0000
  O   O2        1.0  0.031464694151985405  0.6645104704734877  0.4151633868936385  1.0000
  O   O3        1.0  0.9228691386696751  0.2748774956692017  0.3914086261400342  1.0000
  O   O4        1.0  0.07713099712236729  0.7251204732842851  0.6085934977001344  1.0000
  O   O5        1.0  0.9464319149264496  0.0510907993565581  0.2883996915324686  1.0000
  O   O6        1.0  0.053565443573468506  0.9489081347397317  0.7115987163271952  1.0000
  O   O7        1.0  0.1629362298385075  0.4903070204609818  0.524392255775993  1.0000
  O   O8        1.0  0.8370674904864188  0.5096977044921189  0.4756146259125344  1.0000
  O   O9        1.0  0.12708759315635382  0.4283709114404957  0.33502840707773623  1.0000
  O   O10       1.0  0.8729186784165961  0.5716318832270062  0.6649772290679364  1.0000
  O   O11       1.0  0.3240875908017813  0.3936074328621331  0.26746815818611214  1.0000
  O   O12       1.0  0.6759231694804697  0.6064059783761806  0.7325432894716001  1.0000
  O   O13       1.0  0.1718920782105613  0.7568147977528952  0.8501099037542657  1.0000
  O   O14       1.0  0.8281055063334577  0.2431851014861977  0.14988720148550533  1.0000
  O   O15       1.0  0.3272771910353214  0.6789277736469117  0.7886757492411292  1.0000
  O   O16       1.0  0.6727243979570048  0.3210721255921811  0.21132091972922498  1.0000
  O   O17       1.0  0.2349967047983625  0.9852312840858133  0.9947495939507573  1.0000
  O   O18       1.0  0.765000201613347  0.0147657197248776  0.00524515500543284  1.0000
  O   O19       1.0  0.252886746825709  0.4035252402935257  0.7395314658236811  1.0000
  O   O20       1.0  0.7471055739410346  0.5964650075175513  0.26045667680673995  1.0000
  O   O21       1.0  0.0661324309272686  0.4815560706769801  0.8421080478750297  1.0000
  O   O22       1.0  0.9338794921656017  0.5184409331337108  0.1578917207230574  1.0000
