data_image0
_chemical_formula_structural       Zn2H30C42Br8N12O8
_chemical_formula_sum              "Zn2 H30 C42 Br8 N12 O8"
_cell_length_a       11.297779071779148
_cell_length_b       18.25986784488457
_cell_length_c       19.615744876471407
_cell_angle_alpha    94.37167813962186
_cell_angle_beta     89.20920209862965
_cell_angle_gamma    111.09121751834087

_space_group_name_H-M_alt    "P 1"
_space_group_IT_number       1

loop_
  _space_group_symop_operation_xyz
  'x, y, z'

loop_
  _atom_site_type_symbol
  _atom_site_label
  _atom_site_symmetry_multiplicity
  _atom_site_fract_x
  _atom_site_fract_y
  _atom_site_fract_z
  _atom_site_occupancy
  Zn  Zn1       1.0  0.4720820167391154  0.420138254072036  0.4981008812133183  1.0000
  Zn  Zn2       1.0  0.5292745039417213  0.583611618433018  0.5174162260256807  1.0000
  H   H1        1.0  0.5706704564936731  0.33692000014413287  0.5827941117946336  1.0000
  H   H2        1.0  0.3859693673547397  0.651635748945175  0.4438309312986277  1.0000
  H   H3        1.0  0.6666633625917555  0.9667208869945297  0.44268767364029327  1.0000
  H   H4        1.0  0.3199010400127449  0.0321142751613195  0.5569131550192736  1.0000
  H   H5        1.0  0.36091561405850564  0.40466602868984575  0.2855941674593581  1.0000
  H   H6        1.0  0.6733248186481475  0.5733767650488062  0.7244041533956249  1.0000
  H   H7        1.0  0.400306319206493  0.5785128479278898  0.07676755169754299  1.0000
  H   H8        1.0  0.6187926022368802  0.4266456761623587  0.9387659656606644  1.0000
  H   H9        1.0  0.38447404420833214  0.5678394238785174  0.9497431463701175  1.0000
  H   H10       1.0  0.6349647092512216  0.4374905440265664  0.06585296416074729  1.0000
  H   H11       1.0  0.1015910876916594  0.6265149659863384  0.5663605494522344  1.0000
  H   H12       1.0  0.23699767517688033  0.5988014286356957  0.5634597547560957  1.0000
  H   H13       1.0  0.7632919141761152  0.40595784312816363  0.5454528219210246  1.0000
  H   H14       1.0  0.8984806901886844  0.37916946743062857  0.5485592715312463  1.0000
  H   H15       1.0  0.3622334159943749  0.060151030025039576  0.3938594984900732  1.0000
  H   H16       1.0  0.303675503322971  0.12391627726978528  0.3568848714433273  1.0000
  H   H17       1.0  0.7335783493430271  0.8934621707795359  0.6247744210648705  1.0000
  H   H18       1.0  0.6629832759896034  0.9525588735941144  0.5900188729466506  1.0000
  H   H19       1.0  0.7608488759267474  0.10345014490535932  0.41919756568415073  1.0000
  H   H20       1.0  0.6960585746724562  0.17065488391859415  0.4440514601476693  1.0000
  H   H21       1.0  0.2905063582066064  0.8286977768498928  0.5580941267205758  1.0000
  H   H22       1.0  0.22696374165747102  0.8967811694305966  0.5821814372102451  1.0000
  H   H23       1.0  0.10405112094610297  0.35107012598907517  0.4700118025777087  1.0000
  H   H24       1.0  0.9910316374131583  0.3801231278396671  0.4429211578620452  1.0000
  H   H25       1.0  0.8989490141389994  0.6560554302112535  0.49303431828241884  1.0000
  H   H26       1.0  0.014029561351129951  0.6284250384945339  0.4615169673555926  1.0000
  H   H27       1.0  0.25639273294286363  0.3613245155911287  0.1740445981742198  1.0000
  H   H28       1.0  0.3249324651191899  0.39976745619054554  0.1007530988789824  1.0000
  H   H29       1.0  0.7189772539695911  0.5779941132135135  0.9082751973229648  1.0000
  H   H30       1.0  0.7899573572626581  0.6046392829973043  0.8322403956912366  1.0000
  C   C1        1.0  0.4895293581572773  0.4931758784875129  0.6395467377539319  1.0000
  C   C2        1.0  0.5127871255872877  0.5075316098566136  0.3759832204332056  1.0000
  C   C3        1.0  0.5215076603071296  0.5118504792316046  0.2994819188854336  1.0000
  C   C4        1.0  0.483667574559533  0.49007810744954133  0.7161290597519425  1.0000
  C   C5        1.0  0.4483862374833336  0.5452647159959129  0.04642960786591029  1.0000
  C   C6        1.0  0.5716689189002011  0.4605231387246818  0.9690795462593726  1.0000
  C   C7        1.0  0.43964226217087815  0.5394274915784224  0.9753085279001468  1.0000
  C   C8        1.0  0.5805427600606592  0.4663988716151408  0.04031799377853668  1.0000
  C   C9        1.0  0.5003164001327677  0.4964755055212962  0.9357415689866285  1.0000
  C   C10       1.0  0.5192793233893696  0.5090315590202649  0.07980664346015229  1.0000
  C   C11       1.0  0.39757681605729556  0.24364648359966884  0.4481693609195645  1.0000
  C   C12       1.0  0.6092935574388322  0.7631945809862941  0.5514294539451255  1.0000
  C   C13       1.0  0.4044280157798853  0.16760172273662735  0.44607487423244396  1.0000
  C   C14       1.0  0.6027273206824049  0.8388781255257598  0.548880998652308  1.0000
  C   C15       1.0  0.48012351764361955  0.1538598408737712  0.49713893242379464  1.0000
  C   C16       1.0  0.5086568930136366  0.8456972051849974  0.5051127566099112  1.0000
  C   C17       1.0  0.5412409141610228  0.21581339701021562  0.5456754489426032  1.0000
  C   C18       1.0  0.430579840048452  0.7773486186550754  0.4677972387612215  1.0000
  C   C19       1.0  0.5273224355139022  0.2884096667789464  0.5445422307126648  1.0000
  C   C20       1.0  0.444070618622355  0.7052318566713892  0.47313082202772694  1.0000
  C   C21       1.0  0.5888922199064126  0.05785292684434751  0.46471511892071493  1.0000
  C   C22       1.0  0.3972922891334748  0.9407986869407666  0.5348848484105488  1.0000
  C   C23       1.0  0.7436078135357249  0.5320156178405212  0.5133952658466399  1.0000
  C   C24       1.0  0.2580604211960917  0.474045005423342  0.5086060153636396  1.0000
  C   C25       1.0  0.5906829920947985  0.9818145359748768  0.467776837140832  1.0000
  C   C26       1.0  0.3954246857271073  0.016824229778080697  0.5315553187533553  1.0000
  C   C27       1.0  0.4975245091675263  0.9238268290757006  0.5017289134316414  1.0000
  C   C28       1.0  0.48879210218941455  0.0747341254467599  0.49790974910869323  1.0000
  C   C29       1.0  0.8803004916502675  0.5488872342698201  0.5171440544167041  1.0000
  C   C30       1.0  0.1215529223831169  0.4574464955467619  0.5104597098330643  1.0000
  C   C31       1.0  0.9306332024019854  0.4938895184248864  0.5347185871624659  1.0000
  C   C32       1.0  0.0704208259924285  0.5121988335600419  0.5363439291134924  1.0000
  C   C33       1.0  0.6147318550939929  0.572562934077574  0.267874134482895  1.0000
  C   C34       1.0  0.376332030287479  0.4437955845140564  0.7509261309946069  1.0000
  C   C35       1.0  0.6145721331520805  0.571037887284504  0.1962254080230821  1.0000
  C   C36       1.0  0.3832659170285596  0.4458295426046562  0.8224931574540193  1.0000
  C   C37       1.0  0.5224241997684304  0.511650566253465  0.1557750704492378  1.0000
  C   C38       1.0  0.4932435493670653  0.4921817402937306  0.8599026014240606  1.0000
  C   C39       1.0  0.4279985861862485  0.4512822023379073  0.18837689981318556  1.0000
  C   C40       1.0  0.6004463372650904  0.5384207326001302  0.8240958435822989  1.0000
  C   C41       1.0  0.4306392073418834  0.45202603276884906  0.2598027182029483  1.0000
  C   C42       1.0  0.5929611218745166  0.5366371991145016  0.7527821431142314  1.0000
  Br  Br1       1.0  0.6469716457921848  0.2029867197302764  0.6145392617154926  1.0000
  Br  Br2       1.0  0.30265191833017013  0.7807444307524917  0.4074920737721826  1.0000
  Br  Br3       1.0  0.7422841653995604  0.6521937408215235  0.321876374471266  1.0000
  Br  Br4       1.0  0.22240220943294994  0.385439541922743  0.7029231936511023  1.0000
  Br  Br5       1.0  0.7409490679256195  0.6506788043993835  0.15048637078672297  1.0000
  Br  Br6       1.0  0.24130689133373553  0.38314499502318716  0.8721925676693444  1.0000
  Br  Br7       1.0  0.2964839811234086  0.2636804895142575  0.3806934532257742  1.0000
  Br  Br8       1.0  0.7321227326118418  0.7510449633704681  0.6100627301754997  1.0000
  N   N1        1.0  0.45681779190678645  0.3011766645619076  0.4951622408622782  1.0000
  N   N2        1.0  0.5330641389164654  0.699581000307056  0.515270270716826  1.0000
  N   N3        1.0  0.14118232431587074  0.5843960257913069  0.5667063421470075  1.0000
  N   N4        1.0  0.8581808360172901  0.4210306373262256  0.5541717834759936  1.0000
  N   N5        1.0  0.33838200988456907  0.1087562032965366  0.3987985167515048  1.0000
  N   N6        1.0  0.6847400253150654  0.9031934002184699  0.5856608084954615  1.0000
  N   N7        1.0  0.6790534261853267  0.11360283055983439  0.42762993601501614  1.0000
  N   N8        1.0  0.30819359521977674  0.8861859213188482  0.573055222498084  1.0000
  N   N9        1.0  0.04339682915835395  0.3793761190017192  0.484719944540025  1.0000
  N   N10       1.0  0.9592272784174442  0.6277287046208927  0.5035248512851567  1.0000
  N   N11       1.0  0.3378861929975229  0.39015991056719906  0.14991034487498917  1.0000
  N   N12       1.0  0.7085280197211576  0.5885412288754283  0.859113052377772  1.0000
  O   O1        1.0  0.44807219101470264  0.428350222065994  0.6032960932879021  1.0000
  O   O2        1.0  0.4959760455179136  0.5641311671737127  0.4109559091276864  1.0000
  O   O3        1.0  0.5403703883210299  0.5615643110657229  0.6182979413414528  1.0000
  O   O4        1.0  0.5187064199596065  0.4452952975481708  0.3982381299423067  1.0000
  O   O5        1.0  0.6646848904030166  0.46230566160055275  0.5227216141518483  1.0000
  O   O6        1.0  0.33599442847607713  0.5423886902905223  0.530974676410892  1.0000
  O   O7        1.0  0.708847567140893  0.5895095656263649  0.5003989246453812  1.0000
  O   O8        1.0  0.2937669767819884  0.4181638691243564  0.4834490876221976  1.0000
