data_image0
_chemical_formula_structural       FeH8PdC14I2N6
_chemical_formula_sum              "Fe1 H8 Pd1 C14 I2 N6"
_cell_length_a       6.788476368024462
_cell_length_b       7.338483569398059
_cell_length_c       9.56745473927637
_cell_angle_alpha    112.41061412470246
_cell_angle_beta     89.49518696504767
_cell_angle_gamma    89.9998018290355

_space_group_name_H-M_alt    "P 1"
_space_group_IT_number       1

loop_
  _space_group_symop_operation_xyz
  'x, y, z'

loop_
  _atom_site_type_symbol
  _atom_site_label
  _atom_site_symmetry_multiplicity
  _atom_site_fract_x
  _atom_site_fract_y
  _atom_site_fract_z
  _atom_site_occupancy
  Fe  Fe1       1.0  0.4910966766834974  0.5082706177523235  0.016875869217223338  1.0000
  H   H1        1.0  0.3371139982004863  0.33538735361857863  0.6710972966542172  1.0000
  H   H2        1.0  0.6692218735212236  0.6607326264187775  0.32181744310667426  1.0000
  H   H3        1.0  0.8185916216751253  0.17296502408599676  0.3452520813828102  1.0000
  H   H4        1.0  0.18780530901563713  0.82380851198144  0.6476536384132673  1.0000
  H   H5        1.0  0.048954400617304814  0.2824583466463507  0.562997086710098  1.0000
  H   H6        1.0  0.9580394857672874  0.7141309672432145  0.42903260585184455  1.0000
  H   H7        1.0  0.9090964484936279  0.41507854251516113  0.828511313204757  1.0000
  H   H8        1.0  0.09524360193069012  0.582005097840046  0.16526052329927407  1.0000
  Pd  Pd1       1.0  0.9930094480113141  0.0010155894558608004  0.002313939514891702  1.0000
  C   C1        1.0  0.4931949015324123  0.32078334829234484  0.64128500780528  1.0000
  C   C2        1.0  0.5133742180357004  0.6755158568953875  0.3514243485661979  1.0000
  C   C3        1.0  0.5594482341195004  0.24576593183225273  0.4911806425155802  1.0000
  C   C4        1.0  0.44655638771329365  0.7504649418835712  0.5010553072927237  1.0000
  C   C5        1.0  0.7620006234954247  0.23098337855143575  0.4611274229573752  1.0000
  C   C6        1.0  0.24425145421856345  0.7658390241445618  0.5318207074580741  1.0000
  C   C7        1.0  0.8903290763573254  0.29233794948135733  0.5831960166945223  1.0000
  C   C8        1.0  0.11664689041410982  0.7044825510920776  0.40953051838475574  1.0000
  C   C9        1.0  0.8141055833581204  0.36564510602829614  0.7298849361371964  1.0000
  C   C10       1.0  0.1912702799423442  0.6309973725684088  0.2628415728266802  1.0000
  C   C11       1.0  0.7970989333564945  0.8266358681834803  0.04233105320099645  1.0000
  C   C12       1.0  0.19020432865743692  0.7892001137217548  0.9675893890087791  1.0000
  C   C13       1.0  0.19029573219950185  0.17829533538257894  0.967643052329457  1.0000
  C   C14       1.0  0.7971127257792859  0.215057656095027  0.042139784292864114  1.0000
  I   I1        1.0  0.35583037321939776  0.15674445808623724  0.31428986681984844  1.0000
  I   I2        1.0  0.6484076910531585  0.8400255942749196  0.6796229207624123  1.0000
  N   N1        1.0  0.6194803318951401  0.37848111223627984  0.7562291018894669  1.0000
  N   N2        1.0  0.38725664858986875  0.6167923341641169  0.23428250822128396  1.0000
  N   N3        1.0  0.682925169502113  0.7111075503061244  0.05035305697388281  1.0000
  N   N4        1.0  0.3045143410876819  0.6709624705810739  0.9703329451977754  1.0000
  N   N5        1.0  0.30453652902342293  0.2994120441155347  0.9705312440399326  1.0000
  N   N6        1.0  0.682987063249044  0.33864971016411266  0.05035993433002521  1.0000
