data_image0
_chemical_formula_structural       Al4H48C52O20
_chemical_formula_sum              "Al4 H48 C52 O20"
_cell_length_a       6.641985634802139
_cell_length_b       16.445474564525508
_cell_length_c       17.724838068865743
_cell_angle_alpha    90.03897101168687
_cell_angle_beta     89.917016774573
_cell_angle_gamma    94.6970085568582

_space_group_name_H-M_alt    "P 1"
_space_group_IT_number       1

loop_
  _space_group_symop_operation_xyz
  'x, y, z'

loop_
  _atom_site_type_symbol
  _atom_site_label
  _atom_site_symmetry_multiplicity
  _atom_site_fract_x
  _atom_site_fract_y
  _atom_site_fract_z
  _atom_site_occupancy
  Al  Al1       1.0  0.7741268148913248  0.7231061580383483  0.25070631993703074  1.0000
  Al  Al2       1.0  0.22507626803672307  0.27593355991261603  0.7507496271287338  1.0000
  Al  Al3       1.0  0.2792636122734677  0.7256421848212116  0.24979659939742052  1.0000
  Al  Al4       1.0  0.7207386058930823  0.2760769607953435  0.7499693887259298  1.0000
  H   H1        1.0  0.3326492499049181  0.9438567373429124  0.13527476542551403  1.0000
  H   H2        1.0  0.6903937150313765  0.0669855364947125  0.8706999480026385  1.0000
  H   H3        1.0  0.6562944910175401  0.05416989727991961  0.6380580009286732  1.0000
  H   H4        1.0  0.3375423962514573  0.9415274536152295  0.3639925939172458  1.0000
  H   H5        1.0  0.8955641130491543  0.0624705063428834  0.07231329451811061  1.0000
  H   H6        1.0  0.9966064337308325  0.9745695418275632  0.1085403381932437  1.0000
  H   H7        1.0  0.91966102654807  0.050467495358688615  0.17135335435780522  1.0000
  H   H8        1.0  0.29504862412976246  0.0638878492513726  0.16118934620352832  1.0000
  H   H9        1.0  0.19404827333350744  0.15023884384731898  0.12462535997509148  1.0000
  H   H10       1.0  0.7425395980807535  0.8358769526198558  0.8388586729177376  1.0000
  H   H11       1.0  0.6574301862887493  0.9303696480593473  0.8100819576628596  1.0000
  H   H12       1.0  0.9063509696110968  0.90615834192284  0.7868320142101767  1.0000
  H   H13       1.0  0.9253784151070333  0.004084461526154797  0.8940381948935966  1.0000
  H   H14       1.0  0.0022096060747856094  0.9105612830042702  0.9234232683487348  1.0000
  H   H15       1.0  0.0998352289019593  0.9614487201134027  0.5679657149278016  1.0000
  H   H16       1.0  0.9733367600237485  0.039564069710969804  0.6108120604505629  1.0000
  H   H17       1.0  0.0823515880477856  0.9658734190073447  0.6677352538710013  1.0000
  H   H18       1.0  0.7084257460689399  0.9330128888412971  0.6617456181085545  1.0000
  H   H19       1.0  0.8390929195851767  0.8558859823550763  0.6208760987608103  1.0000
  H   H20       1.0  0.13286474395101777  0.1069523032742836  0.28100276478380704  1.0000
  H   H21       1.0  0.37780776930670606  0.0796276320828397  0.30603360048431233  1.0000
  H   H22       1.0  0.29501249269733165  0.1738168361864609  0.3369738511465314  1.0000
  H   H23       1.0  0.1015698443099424  0.004566324182953001  0.3849636716212147  1.0000
  H   H24       1.0  0.022698003548583798  0.09738920781146021  0.4156603284809394  1.0000
  H   H25       1.0  0.5569309119212135  0.7097748844175201  0.03617248537936041  1.0000
  H   H26       1.0  0.5885160273070652  0.734678646963971  0.9392804915046254  1.0000
  H   H27       1.0  0.755479830951593  0.6705545342297157  0.9843635500840621  1.0000
  H   H28       1.0  0.928632556915744  0.8087771706954854  0.968540017494746  1.0000
  H   H29       1.0  0.8915950540866647  0.787756576755953  0.0650809519727105  1.0000
  H   H30       1.0  0.38549253407836653  0.27232077956026046  0.06859910424822152  1.0000
  H   H31       1.0  0.43286526862971186  0.2989010420160484  0.9728075963985177  1.0000
  H   H32       1.0  0.21798919181251358  0.3325629119724312  0.0190001075224515  1.0000
  H   H33       1.0  0.11835891765029061  0.21341198859151694  0.9337560735423978  1.0000
  H   H34       1.0  0.0620208074119688  0.18929576979157764  0.028275695366389197  1.0000
  H   H35       1.0  0.46407076588832297  0.2933971850428918  0.5399500324955256  1.0000
  H   H36       1.0  0.45175918678040017  0.2718645283545342  0.4419240441433772  1.0000
  H   H37       1.0  0.2798850474183324  0.33638431637775323  0.48372552979992633  1.0000
  H   H38       1.0  0.10430319682230049  0.200068936895029  0.4592546139226103  1.0000
  H   H39       1.0  0.11865459145256098  0.21804339110623522  0.557078184040414  1.0000
  H   H40       1.0  0.03385795989500909  0.8140933878511731  0.4163530402440472  1.0000
  H   H41       1.0  0.09299009450800359  0.8440008484584212  0.5105719889298754  1.0000
  H   H42       1.0  0.07751664718923476  0.7394173033627567  0.4854010542389844  1.0000
  H   H43       1.0  0.7642166698079009  0.7674869379254688  0.5538050574352198  1.0000
  H   H44       1.0  0.7094168122679179  0.739949076611211  0.46013200390624587  1.0000
  H   H45       1.0  0.5023088836587772  0.6200874577406877  0.22447694971756252  1.0000
  H   H46       1.0  0.49232233436872963  0.3803485486085947  0.7238833750527862  1.0000
  H   H47       1.0  0.04129791777406669  0.8231681195075635  0.21833716407778786  1.0000
  H   H48       1.0  0.9533063986096194  0.17616804821987847  0.7209823308829472  1.0000
  C   C1        1.0  0.5440717947171548  0.8208708584398753  0.14550478154332316  1.0000
  C   C2        1.0  0.459665269119661  0.18333330061161493  0.855831770834179  1.0000
  C   C3        1.0  0.4502733808816259  0.1784978378118254  0.6466956893985555  1.0000
  C   C4        1.0  0.5491899510089268  0.8188468458050057  0.3543601591493016  1.0000
  C   C5        1.0  0.01318448561651309  0.6281756987690557  0.3526513464330138  1.0000
  C   C6        1.0  0.9883354258280475  0.3736709634674468  0.6464854375266711  1.0000
  C   C7        1.0  0.995295866192066  0.37444020848728604  0.850907158242329  1.0000
  C   C8        1.0  0.005492067210603587  0.624699876505005  0.14787159133334885  1.0000
  C   C9        1.0  0.0007901253994334041  0.5708889652521378  0.08353911970421991  1.0000
  C   C10       1.0  0.9995842611218249  0.429792452908778  0.9141124544445702  1.0000
  C   C11       1.0  0.0003489354967243041  0.4281616001764164  0.5826473213766904  1.0000
  C   C12       1.0  0.0049477230475574036  0.5727995898471293  0.41587203129212474  1.0000
  C   C13       1.0  0.0003485281259968794  0.5256477833561277  0.02877552328295961  1.0000
  C   C14       1.0  0.9994120061487947  0.47559794425125546  0.968452636743699  1.0000
  C   C15       1.0  0.0021768701257443117  0.474731903432911  0.5288510766938259  1.0000
  C   C16       1.0  0.0042492157273557145  0.5261358198909535  0.4695343892101251  1.0000
  C   C17       1.0  0.5592202929141904  0.8802708641338128  0.08166581149714602  1.0000
  C   C18       1.0  0.4508441570907136  0.1256711908606647  0.9210844263997944  1.0000
  C   C19       1.0  0.44428744983431295  0.12150628896356612  0.5809861675855927  1.0000
  C   C20       1.0  0.553956122439601  0.8756312456367824  0.4202136232351066  1.0000
  C   C21       1.0  0.3207359246567946  0.07485839668716213  0.041407910282139006  1.0000
  C   C22       1.0  0.7144406070373536  0.938171450271966  0.9676685194332109  1.0000
  C   C23       1.0  0.6800566156857143  0.925596764826338  0.5414366524504786  1.0000
  C   C24       1.0  0.30453523609231326  0.06768818715810453  0.4631129643159397  1.0000
  C   C25       1.0  0.31545712638618534  0.13168335214721347  0.9832666968456396  1.0000
  C   C26       1.0  0.699290836112496  0.8752950382464135  0.0206624742683843  1.0000
  C   C27       1.0  0.6761471789540606  0.8655589076707245  0.48547534678616705  1.0000
  C   C28       1.0  0.3156874448473842  0.1296651001408762  0.5170616475232849  1.0000
  C   C29       1.0  0.5852233077445347  0.0657249773477346  0.9178990134697359  1.0000
  C   C30       1.0  0.4365723436299263  0.9439152723395025  0.08775326513337942  1.0000
  C   C31       1.0  0.43210312304970694  0.9396261798215519  0.4138942154127889  1.0000
  C   C32       1.0  0.562909596318164  0.056609094620547806  0.5879239885351026  1.0000
  C   C33       1.0  0.5833779273677208  0.0033907755178503997  0.972729221253367  1.0000
  C   C34       1.0  0.4441663074493291  0.007627627362289499  0.034258938753779916  1.0000
  C   C35       1.0  0.43087692222530893  0.0010422342896773996  0.4694449350153605  1.0000
  C   C36       1.0  0.5618806097022571  0.9943996431851688  0.5329763671876151  1.0000
  C   C37       1.0  0.20499489783389177  0.0848806389311676  0.11409875382891242  1.0000
  C   C38       1.0  0.9927209062469656  0.040616817835854094  0.11672169377835223  1.0000
  C   C39       1.0  0.8690076738361936  0.9403896164254065  0.9046992910157601  1.0000
  C   C40       1.0  0.7893791476206429  0.9009533354688916  0.8308931293836751  1.0000
  C   C41       1.0  0.8024572283133365  0.919163210984621  0.6128859321922209  1.0000
  C   C42       1.0  2.8999422355028926e-05  0.9746986120826265  0.6149691849230906  1.0000
  C   C43       1.0  0.15741442652263518  0.06780314617480343  0.39795223758828513  1.0000
  C   C44       1.0  0.24571947989403498  0.1094048560996868  0.3263863105376714  1.0000
  C   C45       1.0  0.8126011492121634  0.7996733317257496  0.012388951606752104  1.0000
  C   C46       1.0  0.6701485482222509  0.7244323346187401  0.991912975321199  1.0000
  C   C47       1.0  0.18729401732021236  0.20326838913573653  0.9887541017740205  1.0000
  C   C48       1.0  0.3128816275620636  0.2812361553874326  0.013810957846395404  1.0000
  C   C49       1.0  0.20925210820302445  0.2068080075937573  0.5068957626498191  1.0000
  C   C50       1.0  0.35993958882546195  0.2812838554745838  0.49238803792719926  1.0000
  C   C51       1.0  0.7839834193470309  0.7885288516839211  0.49512769369188464  1.0000
  C   C52       1.0  0.009883685625943918  0.797365244302327  0.4757416994363268  1.0000
  O   O1        1.0  0.3792306544139236  0.8036520223249399  0.3216511155147189  1.0000
  O   O2        1.0  0.6215516462570321  0.19490674670660016  0.6784577574179949  1.0000
  O   O3        1.0  0.6351027648031646  0.210057301116457  0.8333534389050287  1.0000
  O   O4        1.0  0.366530483293431  0.7962993752242583  0.1679029302242085  1.0000
  O   O5        1.0  0.7080538360945994  0.8019059208105546  0.17591251035704403  1.0000
  O   O6        1.0  0.2946325310145283  0.1994552941160848  0.8247528770568665  1.0000
  O   O7        1.0  0.28422044859328816  0.20413419381676332  0.6693236430190908  1.0000
  O   O8        1.0  0.7140120208141453  0.7918554737186483  0.3326102880339761  1.0000
  O   O9        1.0  0.8369469779599399  0.6483599394521207  0.1693267420449658  1.0000
  O   O10       1.0  0.16178726091160908  0.34720040582593736  0.8322780503726293  1.0000
  O   O11       1.0  0.15455932825219068  0.35805734849719073  0.6767846906842864  1.0000
  O   O12       1.0  0.8455343084509577  0.6438572979706906  0.323914512606578  1.0000
  O   O13       1.0  0.5155705917624259  0.6732072074797629  0.24848386322229737  1.0000
  O   O14       1.0  0.48261535492026286  0.3271517945717193  0.7476919700057962  1.0000
  O   O15       1.0  0.18855993577050603  0.6554328400559231  0.33170101977879096  1.0000
  O   O16       1.0  0.810680330151932  0.3471513034414642  0.6662639552977299  1.0000
  O   O17       1.0  0.8244567681419354  0.3585771069376236  0.8198363578458158  1.0000
  O   O18       1.0  0.17872078597904553  0.6428190305257714  0.17676124019234862  1.0000
  O   O19       1.0  0.03497548209460892  0.7729855965337152  0.24729854408801802  1.0000
  O   O20       1.0  0.9634652498825885  0.2273122095508029  0.748545496536373  1.0000
