data_image0
_chemical_formula_structural       Cd2H16C8Br4N16
_chemical_formula_sum              "Cd2 H16 C8 Br4 N16"
_cell_length_a       3.9450510598946398
_cell_length_b       8.38534399605839
_cell_length_c       17.077959746863158
_cell_angle_alpha    90.00013416772045
_cell_angle_beta     92.38157520535219
_cell_angle_gamma    90.00038893156047

_space_group_name_H-M_alt    "P 1"
_space_group_IT_number       1

loop_
  _space_group_symop_operation_xyz
  'x, y, z'

loop_
  _atom_site_type_symbol
  _atom_site_label
  _atom_site_symmetry_multiplicity
  _atom_site_fract_x
  _atom_site_fract_y
  _atom_site_fract_z
  _atom_site_occupancy
  Cd  Cd1       1.0  0.5000050598398643  3.172208359099999e-06  0.9999995263064249  1.0000
  Cd  Cd2       1.0  4.1968118296039055e-06  0.5000008251378601  0.5000005273082662  1.0000
  H   H1        1.0  0.234951566355619  0.7941307278055587  0.3492813029032006  1.0000
  H   H2        1.0  0.26508219399151045  0.29413297632677876  0.15072235076233645  1.0000
  H   H3        1.0  0.7650542968899003  0.20587249663770985  0.6507180582645089  1.0000
  H   H4        1.0  0.7349360140905502  0.7058690555917905  0.849283023013008  1.0000
  H   H5        1.0  0.9661586385646074  0.7655318030106811  0.2666159389405606  1.0000
  H   H6        1.0  0.5338393908277297  0.2655312900553141  0.23338205141219248  1.0000
  H   H7        1.0  0.03385212870165329  0.23447022888974797  0.7333864124419376  1.0000
  H   H8        1.0  0.46615128558260477  0.7344683566916357  0.7666165315174778  1.0000
  H   H9        1.0  0.2637839188924929  0.0433543094179356  0.4102405900665359  1.0000
  H   H10       1.0  0.23624357120445438  0.5433628866527298  0.08976267608466058  1.0000
  H   H11       1.0  0.7362244811303282  0.9566477224724751  0.58975880327754  1.0000
  H   H12       1.0  0.7637721339733402  0.4566355675898278  0.9102420803386905  1.0000
  H   H13       1.0  0.05387987555923957  0.20659584764566566  0.3666838478726078  1.0000
  H   H14       1.0  0.44611202681753065  0.7065849974799715  0.1333185817421025  1.0000
  H   H15       1.0  0.9461209480313356  0.7934085693452102  0.6333148637692786  1.0000
  H   H16       1.0  0.5538709713372542  0.2934039162449054  0.8666810749928187  1.0000
  C   C1        1.0  0.6748228434181412  0.988288889412743  0.19050628690062146  1.0000
  C   C2        1.0  0.8251759317066386  0.48829677276997074  0.30949257209228154  1.0000
  C   C3        1.0  0.3251704036691692  0.011708372223239397  0.8094917430323247  1.0000
  C   C4        1.0  0.17483236662604898  0.5117100293516899  0.6905085767719042  1.0000
  C   C5        1.0  0.999232153610791  0.9950681414600095  0.3070392598904732  1.0000
  C   C6        1.0  0.5007517729644417  0.4950721226294874  0.19295473426443263  1.0000
  C   C7        1.0  0.0007661331492129953  0.0049303127422036  0.6929594195699877  1.0000
  C   C8        1.0  0.4992363666685903  0.5049287166703208  0.8070438164888714  1.0000
  Br  Br1       1.0  0.007701866344603999  0.23254031967997685  0.0264546255628062  1.0000
  Br  Br2       1.0  0.4922957332680581  0.732535832330086  0.4735438089675624  1.0000
  Br  Br3       1.0  0.9922989233729349  0.7674688675397618  0.9735446712547073  1.0000
  Br  Br4       1.0  0.5077100960511557  0.26746500700053116  0.526456137370694  1.0000
  N   N1        1.0  0.5422885188692276  0.9343468233652954  0.13273967711993603  1.0000
  N   N2        1.0  0.9577092834877162  0.4343350962406517  0.36726203128622353  1.0000
  N   N3        1.0  0.4577198133276211  0.06565401597057978  0.8672608865677771  1.0000
  N   N4        1.0  0.04228650039465979  0.5656633579563177  0.6327360308247804  1.0000
  N   N5        1.0  0.7890239878505197  0.0628065952843642  0.2518537808403423  1.0000
  N   N6        1.0  0.7109480565393226  0.5627847601959743  0.24814597333668323  1.0000
  N   N7        1.0  0.2109717281703638  0.937185896130387  0.7481454516109165  1.0000
  N   N8        1.0  0.289029935806937  0.43719699817688  0.7518524486942579  1.0000
  N   N9        1.0  0.09843228367945038  0.8429000293756983  0.3028623740995897  1.0000
  N   N10       1.0  0.4015897900866889  0.34290409768392033  0.1971365064076736  1.0000
  N   N11       1.0  0.9015659352900868  0.15710200249965567  0.6971374757078904  1.0000
  N   N12       1.0  0.5984210789229748  0.6571003193267728  0.8028640894597883  1.0000
  N   N13       1.0  0.1091367251953415  0.08713512233394032  0.3663955834211236  1.0000
  N   N14       1.0  0.3908711563082717  0.5871419878055445  0.13360690217484716  1.0000
  N   N15       1.0  0.8908565558271558  0.9128657169716091  0.6336018613421073  1.0000
  N   N16       1.0  0.6091218195195153  0.4128564663968816  0.8663958091368895  1.0000
