data_image0
_chemical_formula_structural       Zn8H64C72O42
_chemical_formula_sum              "Zn8 H64 C72 O42"
_cell_length_a       17.826581260513155
_cell_length_b       18.60796139092069
_cell_length_c       23.42607692928474
_cell_angle_alpha    66.68794109274063
_cell_angle_beta     69.56971436107628
_cell_angle_gamma    89.93561308065364

_space_group_name_H-M_alt    "P 1"
_space_group_IT_number       1

loop_
  _space_group_symop_operation_xyz
  'x, y, z'

loop_
  _atom_site_type_symbol
  _atom_site_label
  _atom_site_symmetry_multiplicity
  _atom_site_fract_x
  _atom_site_fract_y
  _atom_site_fract_z
  _atom_site_occupancy
  Zn  Zn1       1.0  0.11798464888870797  0.5307575474586342  0.9425456415801038  1.0000
  Zn  Zn2       1.0  0.9724758507948437  0.5603100812467972  0.05061867298499577  1.0000
  Zn  Zn3       1.0  0.9764042471721199  0.3891976450271102  0.050327685933844166  1.0000
  Zn  Zn4       1.0  0.9380029094812558  0.5297743151182814  0.9358317147827012  1.0000
  Zn  Zn5       1.0  0.3851711825976807  0.9774392076859824  0.049050741469798875  1.0000
  Zn  Zn6       1.0  0.5294055398807915  0.11601144761873881  0.9378385045471448  1.0000
  Zn  Zn7       1.0  0.5232720441495077  0.9451345927819119  0.938094432692651  1.0000
  Zn  Zn8       1.0  0.5671996268239283  0.9728328694037526  0.050646476538517615  1.0000
  H   H1        1.0  0.19840288281397278  0.30158855503339776  0.9112896293694563  1.0000
  H   H2        1.0  0.12672809965484086  0.22959005594410092  0.9877529062646108  1.0000
  H   H3        1.0  0.2160755071408289  0.1382387477963647  0.9850037542894229  1.0000
  H   H4        1.0  0.2876086297353666  0.21087237816571763  0.9088608581740516  1.0000
  H   H5        1.0  0.21573120019819922  0.12463540671225101  0.09596647563817841  1.0000
  H   H6        1.0  0.2873918147212749  0.18616860580125658  0.09973696668912879  1.0000
  H   H7        1.0  0.12720026478524457  0.21710502221520037  0.09878301677569111  1.0000
  H   H8        1.0  0.20000493174827477  0.27880388534414635  0.10119490819418084  1.0000
  H   H9        1.0  0.3024624067355148  0.39180978147921053  0.9142032626155301  1.0000
  H   H10       1.0  0.3030186569523465  0.3833158365702546  0.9915586383193472  1.0000
  H   H11       1.0  0.3917600068959644  0.29117511165610216  0.9902018553482819  1.0000
  H   H12       1.0  0.3916870080365272  0.3004846324541647  0.9125854037727097  1.0000
  H   H13       1.0  0.8900490504497683  0.8000445927861219  0.9059907737316738  1.0000
  H   H14       1.0  0.8862369787837779  0.7874209246257918  0.9860483874619278  1.0000
  H   H15       1.0  0.7972936505240471  0.8795183414961371  0.9869096110453057  1.0000
  H   H16       1.0  0.8009812259268473  0.8909587897780042  0.9071273115952607  1.0000
  H   H17       1.0  0.6938922760630106  0.7758314689356638  0.09225222457590129  1.0000
  H   H18       1.0  0.6221828500669487  0.7141268778811707  0.08862769454788838  1.0000
  H   H19       1.0  0.7813920522100375  0.6823901999056616  0.09142634490724794  1.0000
  H   H20       1.0  0.7101383041597205  0.6221694100530188  0.08595555243738315  1.0000
  H   H21       1.0  0.7893626395977051  0.7122844515453012  0.8976330079192112  1.0000
  H   H22       1.0  0.7163334926452265  0.6389499784451118  0.9708888350687701  1.0000
  H   H23       1.0  0.6265923831258747  0.7300733489620015  0.973321015285414  1.0000
  H   H24       1.0  0.6993636767344854  0.8029152013116699  0.899759914113787  1.0000
  H   H25       1.0  0.16258089206351664  0.7936406911291128  0.937094671077837  1.0000
  H   H26       1.0  0.2467156619881763  0.7571327354341832  0.8963534381311221  1.0000
  H   H27       1.0  0.3338607043769882  0.8525141306765674  0.8941407177870462  1.0000
  H   H28       1.0  0.2492366734314189  0.8876733095371919  0.9360106805829816  1.0000
  H   H29       1.0  0.3935092358051265  0.7430886410042561  0.9608240936443977  1.0000
  H   H30       1.0  0.35246407273812264  0.7018032346770938  0.049600331660215546  1.0000
  H   H31       1.0  0.3050377771528475  0.6475848151971348  0.9640129486280742  1.0000
  H   H32       1.0  0.26372912025220063  0.6076936065583285  0.05277945998989962  1.0000
  H   H33       1.0  0.1018743606268941  0.735707169351322  0.06503146092348545  1.0000
  H   H34       1.0  0.14259659418110004  0.6594075960119739  0.11229816117754865  1.0000
  H   H35       1.0  0.23150520049176757  0.7532384177914154  0.1101229420907899  1.0000
  H   H36       1.0  0.1900828210868184  0.8295188302619964  0.06347499205570264  1.0000
  H   H37       1.0  0.8988766614153932  0.2668989696122281  0.9297191027190623  1.0000
  H   H38       1.0  0.8540826382131357  0.34299215303467884  0.885226886560709  1.0000
  H   H39       1.0  0.768331464402465  0.24718036534495982  0.8866356686030274  1.0000
  H   H40       1.0  0.8116261285149946  0.17138946659024867  0.9331090189538644  1.0000
  H   H41       1.0  0.6495065686933756  0.2981584562701443  0.946607321775048  1.0000
  H   H42       1.0  0.6062096598998677  0.2568746508966128  0.035249782742589386  1.0000
  H   H43       1.0  0.7360237089955817  0.39208104206147004  0.9470868817791143  1.0000
  H   H44       1.0  0.6935960646248064  0.3489067219170395  0.03586833587609561  1.0000
  H   H45       1.0  0.8392863742401886  0.2040488735473289  0.05762685831519576  1.0000
  H   H46       1.0  0.7566840305502183  0.2381455971482467  0.10147438920715511  1.0000
  H   H47       1.0  0.6669402772161349  0.14605023284124033  0.1026484964066157  1.0000
  H   H48       1.0  0.7496874726436149  0.1102999340637822  0.060687645325906134  1.0000
  H   H49       1.0  0.5274119238625802  0.8923892464499235  0.21188921411093278  1.0000
  H   H50       1.0  0.27782254422034214  0.9002430885506457  0.20410141530038572  1.0000
  H   H51       1.0  0.16318663641887107  0.7827695152800518  0.43386647342415335  1.0000
  H   H52       1.0  0.413218928427895  0.777727643879295  0.4422562691454958  1.0000
  H   H53       1.0  0.3507330460815155  0.7215233212930059  0.5576414054197444  1.0000
  H   H54       1.0  0.10254068904264102  0.7276289574640273  0.5453958381957663  1.0000
  H   H55       1.0  0.9839486981392723  0.6123576559993822  0.7753395645715245  1.0000
  H   H56       1.0  0.2313794599210368  0.6061893706505758  0.7873907077485713  1.0000
  H   H57       1.0  0.6034048958120266  0.9878999300280497  0.7802451838928524  1.0000
  H   H58       1.0  0.5986970963209117  0.2300668232726366  0.7807393328914999  1.0000
  H   H59       1.0  0.7353983133730111  0.3449989270266444  0.552488682578435  1.0000
  H   H60       1.0  0.7388544995776132  0.10231360104491932  0.5517911757945911  1.0000
  H   H61       1.0  0.7744534699825607  0.15966388192589417  0.43763509561035363  1.0000
  H   H62       1.0  0.7740663779144228  0.4023501984636014  0.43816625160506834  1.0000
  H   H63       1.0  0.891939465110518  0.5171381952415642  0.2083208699713667  1.0000
  H   H64       1.0  0.8952327412621488  0.27476603695767204  0.20790881954749815  1.0000
  C   C1        1.0  0.14143952204997853  0.6352959424380131  0.0032587197454602822  1.0000
  C   C2        1.0  0.9079021068852953  0.41070692821249816  0.17858491434376592  1.0000
  C   C3        1.0  0.14472327651623124  0.3643768204058233  0.0009724191010888938  1.0000
  C   C4        1.0  0.860858667508737  0.36515896505163437  0.9911072058935277  1.0000
  C   C5        1.0  0.0922899168023577  0.5942702187541044  0.811194547827853  1.0000
  C   C6        1.0  0.8604954277640858  0.6429333789774033  0.9897942848058181  1.0000
  C   C7        1.0  0.36097735523306085  0.1427469869940694  0.9965978065564087  1.0000
  C   C8        1.0  0.5846003932114101  0.09424765162929559  0.8098270775087145  1.0000
  C   C9        1.0  0.3558627768965863  0.8627434917089476  0.9982671027639043  1.0000
  C   C10       1.0  0.6434733354337966  0.8646699778613467  0.9924614067769681  1.0000
  C   C11       1.0  0.4172986316277445  0.9113717043905896  0.1781299478530656  1.0000
  C   C12       1.0  0.6464377840966051  0.13951312512745773  0.9930657540374671  1.0000
  C   C13       1.0  0.3810362954570223  0.8743947256321577  0.2515228296531902  1.0000
  C   C14       1.0  0.43151550591177557  0.8545382217345007  0.2896981937206746  1.0000
  C   C15       1.0  0.3959829902126657  0.8194154305808042  0.3599644124736087  1.0000
  C   C16       1.0  0.3104597304492458  0.8033243260210342  0.392996634299358  1.0000
  C   C17       1.0  0.2602166101215814  0.8226058796042325  0.3554158603010509  1.0000
  C   C18       1.0  0.2946744790648026  0.8581020922147574  0.2851982477994072  1.0000
  C   C19       1.0  0.27422774557229707  0.7677933210261901  0.463950559214169  1.0000
  C   C20       1.0  0.24072791222531012  0.7369964565510185  0.525621769382582  1.0000
  C   C21       1.0  0.2035409178984935  0.701643400101517  0.5965188038057152  1.0000
  C   C22       1.0  0.2525713695214264  0.6822630126551559  0.6351418562581304  1.0000
  C   C23       1.0  0.2167267279023761  0.6471483013030337  0.7053265352010883  1.0000
  C   C24       1.0  0.13021613047713027  0.6309278171731733  0.7378770745850292  1.0000
  C   C25       1.0  0.08097247382390547  0.650699100631776  0.6986213064899047  1.0000
  C   C26       1.0  0.1178911740478625  0.6858030139695829  0.6284561281073592  1.0000
  C   C27       1.0  0.6245128256201937  0.13088949647634246  0.736812776053789  1.0000
  C   C28       1.0  0.6460377457642393  0.0821728798294288  0.7010402828181982  1.0000
  C   C29       1.0  0.6854430168913694  0.1177864704694542  0.6311490246025004  1.0000
  C   C30       1.0  0.7030388122218768  0.20141473045720204  0.5962749776776235  1.0000
  C   C31       1.0  0.6835017848881153  0.24987421251124436  0.6315025904744119  1.0000
  C   C32       1.0  0.6438471427740781  0.2153613071977745  0.7013659508756903  1.0000
  C   C33       1.0  0.7397555690227691  0.2369259967208848  0.5255216715961026  1.0000
  C   C34       1.0  0.7695938949878072  0.26805699495957913  0.46377153551161154  1.0000
  C   C35       1.0  0.8037160671686296  0.3035468003194239  0.3929160004639204  1.0000
  C   C36       1.0  0.8207286075251475  0.2550182672284008  0.3576772523544919  1.0000
  C   C37       1.0  0.8555110279686104  0.2895684777326223  0.2875141482853536  1.0000
  C   C38       1.0  0.8727002305977223  0.37408249817462286  0.2518406652561114  1.0000
  C   C39       1.0  0.8544939676631883  0.4227942463385332  0.2877556522187207  1.0000
  C   C40       1.0  0.8200374256092077  0.3871639947831794  0.3579297742676246  1.0000
  C   C41       1.0  0.18998558698882562  0.2595877429353877  0.9626349311640684  1.0000
  C   C42       1.0  0.2493676103918219  0.1988417619839993  0.9610088827965271  1.0000
  C   C43       1.0  0.30421443862343983  0.2035996399398954  0.9985770499288197  1.0000
  C   C44       1.0  0.2492463442406532  0.18508101028699997  0.07185261488116623  1.0000
  C   C45       1.0  0.1905919576649069  0.24639262962291744  0.0732429135925443  1.0000
  C   C46       1.0  0.20469282641676054  0.30617345709129035  0.0009202431189621068  1.0000
  C   C47       1.0  0.29283939499575956  0.34887807664250664  0.9653858892155329  1.0000
  C   C48       1.0  0.35180979558771946  0.28804501771587343  0.9643103982702925  1.0000
  C   C49       1.0  0.8487483618050291  0.7861088714127576  0.9578075784014932  1.0000
  C   C50       1.0  0.7893971409474079  0.8470755535696882  0.9585818580027876  1.0000
  C   C51       1.0  0.7007894532002653  0.8039770082889036  0.9913883704881461  1.0000
  C   C52       1.0  0.6856429428313575  0.7437609350656301  0.06381493766143359  1.0000
  C   C53       1.0  0.7442221645750352  0.6824366679862095  0.0626844705020703  1.0000
  C   C54       1.0  0.8006882845418488  0.7014441567207754  0.9895726400991265  1.0000
  C   C55       1.0  0.7492729646007489  0.6993027144507735  0.9494579944342121  1.0000
  C   C56       1.0  0.6897745676701633  0.7597443579112451  0.9508672783024184  1.0000
  C   C57       1.0  0.2190558839795429  0.7713879670147676  0.9396574935154405  1.0000
  C   C58       1.0  0.2770696974233431  0.8342692564239653  0.9384581760916434  1.0000
  C   C59       1.0  0.2968461690483863  0.8000689970784762  0.00258900719609297  1.0000
  C   C60       1.0  0.3366414672018223  0.7256804479412227  0.004906773455658644  1.0000
  C   C61       1.0  0.2778391787081489  0.6627448678693852  0.006821730390541283  1.0000
  C   C62       1.0  0.198273660889825  0.6945031007324616  0.005091991017927488  1.0000
  C   C63       1.0  0.15895474358733708  0.7140707393538362  0.06582669554552478  1.0000
  C   C64       1.0  0.217612345738182  0.7764428142516734  0.06453423566668454  1.0000
  C   C65       1.0  0.8407786007985365  0.2874217348253296  0.9305126232560782  1.0000
  C   C66       1.0  0.7828839069395954  0.22406343410639104  0.9318803066898268  1.0000
  C   C67       1.0  0.7032388317397391  0.19908988370918473  0.9946704278412783  1.0000
  C   C68       1.0  0.6639874478334492  0.27393549067026873  0.9918135684896685  1.0000
  C   C69       1.0  0.721937621848312  0.3359138368325744  0.9918538755407557  1.0000
  C   C70       1.0  0.8015162998755017  0.3042258905372748  0.9934010233451006  1.0000
  C   C71       1.0  0.7824576292083665  0.22618283841327977  0.05670961222744344  1.0000
  C   C72       1.0  0.7233691413463533  0.1643629875113604  0.05793860681808387  1.0000
  O   O1        1.0  0.000726222498855129  0.5031673000713682  0.9936037601808891  1.0000
  O   O2        1.0  0.17109817240565658  0.6082514891339698  0.9590287302479795  1.0000
  O   O3        1.0  0.9206231990279008  0.48714031744764  0.14729050669237156  1.0000
  O   O4        1.0  0.07109466232913059  0.33569479547611536  0.040979965459037336  1.0000
  O   O5        1.0  0.06808621162991811  0.6182282170149024  0.04474264262679378  1.0000
  O   O6        1.0  0.17154546361618372  0.43699154960511083  0.9601917118400963  1.0000
  O   O7        1.0  0.9250909217646281  0.3656205059583185  0.14713230805479344  1.0000
  O   O8        1.0  0.898186620772357  0.3392647816919379  0.03097480611508272  1.0000
  O   O9        1.0  0.014008524703342616  0.5797367915530032  0.8397621346418235  1.0000
  O   O10       1.0  0.870052211508316  0.4371635689565068  0.9490028807471876  1.0000
  O   O11       1.0  0.1385510539827095  0.5775306401956399  0.845179383309713  1.0000
  O   O12       1.0  0.8984511736494556  0.6338672122190445  0.02886860874711768  1.0000
  O   O13       1.0  0.8689435562755818  0.6078471080920876  0.9514008359335835  1.0000
  O   O14       1.0  0.5015418362890642  0.002148800799844309  0.995166206121006  1.0000
  O   O15       1.0  0.32980826011106507  0.0697964308984211  0.033342089590505004  1.0000
  O   O16       1.0  0.565740392099336  0.1393137121120986  0.8412328799488195  1.0000
  O   O17       1.0  0.427345737970704  0.8788078163380603  0.9534048041876135  1.0000
  O   O18       1.0  0.4352634186009254  0.16873115007204834  0.9579231659967677  1.0000
  O   O19       1.0  0.3300605124888706  0.8954224699285265  0.0386201437581874  1.0000
  O   O20       1.0  0.5692698798094398  0.017785141237318704  0.8411119423184702  1.0000
  O   O21       1.0  0.60589731295277  0.8792735047239404  0.9527215027911495  1.0000
  O   O22       1.0  0.4953982320449768  0.9238893290108835  0.14811895058416993  1.0000
  O   O23       1.0  0.6375048163015861  0.8968069034638544  0.0327779960538522  1.0000
  O   O24       1.0  0.3696274363813359  0.9304691866383835  0.1454813866455212  1.0000
  O   O25       1.0  0.6179873462982003  0.16612883077145568  0.9468084829464944  1.0000
  O   O26       1.0  0.631579408387708  0.06799779375402441  0.03704305990676458  1.0000
  O   O27       1.0  0.5134197625893933  0.8682606403573628  0.26127822727940503  1.0000
  O   O28       1.0  0.24286883752406402  0.8749066041085384  0.25284434430659536  1.0000
  O   O29       1.0  0.17750798318207467  0.8077956106065614  0.3853895729973332  1.0000
  O   O30       1.0  0.4466111284352153  0.8018049313256909  0.39436041354932877  1.0000
  O   O31       1.0  0.3353617637756798  0.6967063907301994  0.6062490925455323  1.0000
  O   O32       1.0  0.06833266600136059  0.7035938684791104  0.5930999974078547  1.0000
  O   O33       1.0  0.9990245116014904  0.6373513304723274  0.7257949090453908  1.0000
  O   O34       1.0  0.2672656381730434  0.6303273962981991  0.7388730325687975  1.0000
  O   O35       1.0  0.6305742278778297  0.0021288532361581  0.7313020383867155  1.0000
  O   O36       1.0  0.6262054752364178  0.2649128584607752  0.731906497001795  1.0000
  O   O37       1.0  0.7016728141039935  0.3307136226423708  0.5994896652576642  1.0000
  O   O38       1.0  0.7053537895114702  0.0693211222998116  0.5987415649720945  1.0000
  O   O39       1.0  0.8044519634277238  0.1741340866358314  0.38995257395087896  1.0000
  O   O40       1.0  0.8032300015914585  0.4356627362534198  0.39043725458635975  1.0000
  O   O41       1.0  0.8686703810550752  0.5028544760646695  0.2574308892365026  1.0000
  O   O42       1.0  0.8706645678396115  0.2399648774192116  0.2569451056543954  1.0000
