data_image0
_chemical_formula_structural       NiH60Pt2C56N8Cl2
_chemical_formula_sum              "Ni1 H60 Pt2 C56 N8 Cl2"
_cell_length_a       9.125106936873358
_cell_length_b       9.999233498034293
_cell_length_c       15.583385600767606
_cell_angle_alpha    72.45723213226267
_cell_angle_beta     90.13080014726341
_cell_angle_gamma    90.4228546434059

_space_group_name_H-M_alt    "P 1"
_space_group_IT_number       1

loop_
  _space_group_symop_operation_xyz
  'x, y, z'

loop_
  _atom_site_type_symbol
  _atom_site_label
  _atom_site_symmetry_multiplicity
  _atom_site_fract_x
  _atom_site_fract_y
  _atom_site_fract_z
  _atom_site_occupancy
  Ni  Ni1       1.0  0.5000000923963484  0.49999389467735295  0.999994843694722  1.0000
  H   H1        1.0  0.3463807241266466  0.5875263381885176  0.12593450510356516  1.0000
  H   H2        1.0  0.6606714336232286  0.2882421694520403  0.12436952139708518  1.0000
  H   H3        1.0  0.6535972453621709  0.4124757535102646  0.8740671473398436  1.0000
  H   H4        1.0  0.3393262693597805  0.7117544469521562  0.875638668207678  1.0000
  H   H5        1.0  0.6689510381645789  0.7565119712468018  0.270712448029073  1.0000
  H   H6        1.0  0.3381564411646139  0.9783038401416988  0.26326687966901113  1.0000
  H   H7        1.0  0.3310498684199885  0.2434862328772169  0.7292824733215041  1.0000
  H   H8        1.0  0.6618488642232377  0.021690336736867207  0.7367341926605349  1.0000
  H   H9        1.0  0.8614961271550357  0.6902740998142249  0.17579398682548938  1.0000
  H   H10       1.0  0.14521209049885897  0.13746384665384434  0.1716084019821906  1.0000
  H   H11       1.0  0.13850374466932178  0.30972635122557807  0.8242071825433895  1.0000
  H   H12       1.0  0.8548073543781811  0.8625218198971538  0.8283863145402819  1.0000
  H   H13       1.0  0.7868249730954843  0.5627038371293053  0.06712331824144258  1.0000
  H   H14       1.0  0.2202065588598785  0.3709647852091109  0.06742903058421487  1.0000
  H   H15       1.0  0.213178247491804  0.43730140241756044  0.9328815575544451  1.0000
  H   H16       1.0  0.7797888224803343  0.6290264955351362  0.9325664429455641  1.0000
  H   H17       1.0  0.5095663732569307  0.6573254880455296  0.3883616085946286  1.0000
  H   H18       1.0  0.4912743065097231  0.9641584275287302  0.3830075085433435  1.0000
  H   H19       1.0  0.4904345944482174  0.3426781338408419  0.6116363899276819  1.0000
  H   H20       1.0  0.5087254889139247  0.03583176506612071  0.6169933006028784  1.0000
  H   H21       1.0  0.007760289366942199  0.7593555220447854  0.2649965476440244  1.0000
  H   H22       1.0  0.9961142546399486  0.9721647074917427  0.26510757567258736  1.0000
  H   H23       1.0  0.992246188302417  0.24065715502278823  0.7349966431641305  1.0000
  H   H24       1.0  0.0038845747841307  0.02784032408892744  0.7348964462227414  1.0000
  H   H25       1.0  0.2031103224165349  0.7184638505251542  0.16857398090030523  1.0000
  H   H26       1.0  0.8051282568013106  0.1096581489518726  0.1673966931224911  1.0000
  H   H27       1.0  0.7968929974916888  0.28156302859478205  0.8314230595903992  1.0000
  H   H28       1.0  0.1948683350207716  0.8903437670290515  0.8326040731720283  1.0000
  H   H29       1.0  0.4036382788591268  0.6384928242310083  0.5428689883943321  1.0000
  H   H30       1.0  0.5897886345882027  0.8302442379136608  0.5376535847898154  1.0000
  H   H31       1.0  0.59635929424266  0.36150416434418997  0.4571207773045103  1.0000
  H   H32       1.0  0.41020788847323086  0.1697450859972208  0.4623502167738991  1.0000
  H   H33       1.0  0.3395143084548025  0.8138186169106519  0.5127524133421133  1.0000
  H   H34       1.0  0.6517684990042198  0.6851511288301495  0.5047119890795031  1.0000
  H   H35       1.0  0.6604910580536227  0.18618414704118874  0.4872485668482369  1.0000
  H   H36       1.0  0.3482389752249802  0.3148443472352866  0.4952845984628951  1.0000
  H   H37       1.0  0.09886821441696009  0.662019421278984  0.6923502188961095  1.0000
  H   H38       1.0  0.8865500329357303  0.649346752468844  0.6893306207200353  1.0000
  H   H39       1.0  0.9011316574074044  0.33798293134737634  0.307649048886205  1.0000
  H   H40       1.0  0.11345641417334208  0.35065117233602894  0.3106730748837733  1.0000
  H   H41       1.0  0.1944202611261403  0.8182237595696835  0.630885632974497  1.0000
  H   H42       1.0  0.7902617805619414  0.5592370731214442  0.6230453779852142  1.0000
  H   H43       1.0  0.8055862241832868  0.18178151297531286  0.3691160242229898  1.0000
  H   H44       1.0  0.20974355538619696  0.4407642496735917  0.3769527958949013  1.0000
  H   H45       1.0  0.2925905546794922  0.6599847470584097  0.6832947566703496  1.0000
  H   H46       1.0  0.6934008840130517  0.6653465189206001  0.6781825234968651  1.0000
  H   H47       1.0  0.707409263664367  0.34001365735363  0.3167010262589685  1.0000
  H   H48       1.0  0.30660002257151575  0.33464914975467513  0.3218149333024556  1.0000
  H   H49       1.0  0.14796750524955368  0.4783892524502845  0.5258892879986021  1.0000
  H   H50       1.0  0.8497186072618632  0.997904364966523  0.5307112394010501  1.0000
  H   H51       1.0  0.8520312936142389  0.5216137041114026  0.4741125614486704  1.0000
  H   H52       1.0  0.15027576987843358  0.0020899699881269536  0.46929392231945843  1.0000
  H   H53       1.0  0.05905326419257049  0.47650633831826633  0.6270864765038056  1.0000
  H   H54       1.0  0.9321176260794884  0.8962889217587178  0.6318339764319915  1.0000
  H   H55       1.0  0.940947688232434  0.5234981476451568  0.37290853420792297  1.0000
  H   H56       1.0  0.06787678926117022  0.10371149321168356  0.3681704146065599  1.0000
  H   H57       1.0  0.2536609605654263  0.45685072596997134  0.6266494460105037  1.0000
  H   H58       1.0  0.7382108363490899  0.9212758600117683  0.6285515947629392  1.0000
  H   H59       1.0  0.7463367347775147  0.5431513933702449  0.3733521787914852  1.0000
  H   H60       1.0  0.26177915726806583  0.07872037038689687  0.3714516715135545  1.0000
  Pt  Pt1       1.0  0.9976169598508378  0.7674736006212015  0.46876760991871436  1.0000
  Pt  Pt2       1.0  0.002379616691101199  0.2325266439880451  0.5312327040139593  1.0000
  C   C1        1.0  0.45904788130727775  0.6076329850033702  0.1434009517411639  1.0000
  C   C2        1.0  0.5480678953445945  0.2511749345789198  0.14138764996577888  1.0000
  C   C3        1.0  0.5409410164290946  0.3923657793084061  0.8565997806222114  1.0000
  C   C4        1.0  0.4519297235976225  0.7488194617650805  0.8586110791648094  1.0000
  C   C5        1.0  0.4916210180257749  0.6667014504442009  0.21231291573915456  1.0000
  C   C6        1.0  0.5152233146623785  0.12501954589833283  0.20845440089328798  1.0000
  C   C7        1.0  0.508379911479011  0.3333005284617131  0.7876814164298053  1.0000
  C   C8        1.0  0.4847809177649013  0.8749784042264892  0.7915460837902798  1.0000
  C   C9        1.0  0.6389950129346502  0.7012914581101554  0.22249545816163155  1.0000
  C   C10       1.0  0.36784776736975994  0.08072116067206282  0.2172078581796058  1.0000
  C   C11       1.0  0.36101030009326956  0.29870799148955735  0.7775014033135363  1.0000
  C   C12       1.0  0.63215431913639  0.919279265047784  0.7827965221094998  1.0000
  C   C13       1.0  0.7460138547885222  0.6665671100752207  0.16941935310715187  1.0000
  C   C14       1.0  0.26066023425838836  0.16727154253771911  0.1657681007488705  1.0000
  C   C15       1.0  0.25398052235177465  0.3334297603281726  0.8305832731646134  1.0000
  C   C16       1.0  0.7393429786888319  0.8327328613233078  0.8342365488661017  1.0000
  C   C17       1.0  0.706216846316984  0.6003816017954193  0.10597322913560701  1.0000
  C   C18       1.0  0.3006777644434919  0.2951669113542152  0.10478626584335159  1.0000
  C   C19       1.0  0.2937764502226726  0.39961884003057696  0.8940279494470785  1.0000
  C   C20       1.0  0.6993242991424394  0.7048341766190448  0.8952142665920633  1.0000
  C   C21       1.0  0.3730576015353648  0.6900011374307552  0.2701855095231664  1.0000
  C   C22       1.0  0.6319442316109729  0.04405631570447357  0.26668837307929744  1.0000
  C   C23       1.0  0.6269443932899179  0.30999750026743556  0.729807916386477  1.0000
  C   C24       1.0  0.36805787017532043  0.9559483168358015  0.7333139241229105  1.0000
  C   C25       1.0  0.39994224737161227  0.6835442384203249  0.36033131352647263  1.0000
  C   C26       1.0  0.6017047696298191  0.9637495345506367  0.35610412657540275  1.0000
  C   C27       1.0  0.6000454322428297  0.31643544862271256  0.6396715062374838  1.0000
  C   C28       1.0  0.3982984356773258  0.0362559352111091  0.6438983952720889  1.0000
  C   C29       1.0  0.2885753081535896  0.7094531540876404  0.414352294519972  1.0000
  C   C30       1.0  0.7103631194049669  0.8836119908231126  0.41089915819756573  1.0000
  C   C31       1.0  0.7114201190270535  0.2905425069094676  0.585645169957516  1.0000
  C   C32       1.0  0.2896367524193976  0.1163852909057611  0.5891051804822353  1.0000
  C   C33       1.0  0.1443588399792759  0.7425413806109658  0.38116000505411307  1.0000
  C   C34       1.0  0.855566551579507  0.8801050488958353  0.37957156104764067  1.0000
  C   C35       1.0  0.8556410700454508  0.25746768589333163  0.6188378581840652  1.0000
  C   C36       1.0  0.1444321556034254  0.11988724557358667  0.6204282080907646  1.0000
  C   C37       1.0  0.11800997232901267  0.7399031568676477  0.2924787492638288  1.0000
  C   C38       1.0  0.8852404275740113  0.9674417039245994  0.2915723011603432  1.0000
  C   C39       1.0  0.8819944128997149  0.26012038104457263  0.7075173849675593  1.0000
  C   C40       1.0  0.11475834072949449  0.03255981148028308  0.7084267419766874  1.0000
  C   C41       1.0  0.22878128238256318  0.7157651142013391  0.2376744313565524  1.0000
  C   C42       1.0  0.7770394892711252  0.04644688543254461  0.2359045480430382  1.0000
  C   C43       1.0  0.7712341074944363  0.2842621854578908  0.7623243123283815  1.0000
  C   C44       1.0  0.22296698839823387  0.9535562837022412  0.7640981506978974  1.0000
  C   C45       1.0  0.312804852551082  0.707537673373885  0.5098872581705152  1.0000
  C   C46       1.0  0.6810423103087047  0.7921295794191324  0.5050511026373598  1.0000
  C   C47       1.0  0.687193885192137  0.29246176701201415  0.4901096125184594  1.0000
  C   C48       1.0  0.3189542433130157  0.20786498882166168  0.4949517020634744  1.0000
  C   C49       1.0  0.1911153935063012  0.7037912412447793  0.6472717458382108  1.0000
  C   C50       1.0  0.7953952014508302  0.6556687335812301  0.6425674440351726  1.0000
  C   C51       1.0  0.8088888312809104  0.2962084086429471  0.3527259772156981  1.0000
  C   C52       1.0  0.20461012685723995  0.3443273164926736  0.3574349406993207  1.0000
  C   C53       1.0  0.158726251027538  0.5097715272532283  0.58718037284887  1.0000
  C   C54       1.0  0.8342443296549577  0.9060118513796529  0.5897952556896939  1.0000
  C   C55       1.0  0.8412834837238846  0.4902295714694774  0.41282014883710616  1.0000
  C   C56       1.0  0.1657511433661227  0.09398502055937287  0.4102073690464394  1.0000
  N   N1        1.0  0.563582969023436  0.5765291955017346  0.09181505287152449  1.0000
  N   N2        1.0  0.4433168172422626  0.332625470790731  0.0909786647627726  1.0000
  N   N3        1.0  0.43641907928234497  0.423468953375476  0.9081862949264234  1.0000
  N   N4        1.0  0.5566863345843841  0.6673779523432442  0.9090184706451652  1.0000
  N   N5        1.0  0.17603688785451507  0.663542141446321  0.5638038112411365  1.0000
  N   N6        1.0  0.8153301240253511  0.7783790468450607  0.5618613942152278  1.0000
  N   N7        1.0  0.8239618804489908  0.3364587400963758  0.43619586575807995  1.0000
  N   N8        1.0  0.18467085895994023  0.22162054165331582  0.4381427614285939  1.0000
  Cl  Cl1       1.0  0.8267835160732062  0.36026779404399883  0.9967745647672005  1.0000
  Cl  Cl2       1.0  0.1732118958273006  0.6397261955814244  0.003222447348448933  1.0000
