data_image0
_chemical_formula_structural       Cu2H38C40N6O14
_chemical_formula_sum              "Cu2 H38 C40 N6 O14"
_cell_length_a       8.707313892343267
_cell_length_b       11.106554074827153
_cell_length_c       11.138759107897386
_cell_angle_alpha    82.79237543370215
_cell_angle_beta     87.92709484061146
_cell_angle_gamma    73.6254802526312

_space_group_name_H-M_alt    "P 1"
_space_group_IT_number       1

loop_
  _space_group_symop_operation_xyz
  'x, y, z'

loop_
  _atom_site_type_symbol
  _atom_site_label
  _atom_site_symmetry_multiplicity
  _atom_site_fract_x
  _atom_site_fract_y
  _atom_site_fract_z
  _atom_site_occupancy
  Cu  Cu1       1.0  0.4266509344598007  0.9882421397630947  0.1518834133471572  1.0000
  Cu  Cu2       1.0  0.5733476955604928  0.011751826866053187  0.8481160384934513  1.0000
  H   H1        1.0  0.2800700049536076  0.8475887825918988  0.007428086037201378  1.0000
  H   H2        1.0  0.7199203577708175  0.1524060696030531  0.9925752146339021  1.0000
  H   H3        1.0  0.2707999605910061  0.626788116189637  0.004358938218309983  1.0000
  H   H4        1.0  0.7291982842137018  0.37320684842833163  0.9956386302142165  1.0000
  H   H5        1.0  0.580839601992416  0.5231911467915962  0.31773315683450687  1.0000
  H   H6        1.0  0.41914955501096773  0.47680012506566527  0.6822642764384169  1.0000
  H   H7        1.0  0.5774411581589688  0.7496154762361941  0.3059332467868856  1.0000
  H   H8        1.0  0.4225553810685129  0.25037467781457684  0.6940684831479516  1.0000
  H   H9        1.0  0.21117952146848745  0.45840648777441817  0.0554022615512082  1.0000
  H   H10       1.0  0.7888182541840583  0.541585914347749  0.9445866086469649  1.0000
  H   H11       1.0  0.2175952936080207  0.2336989401609273  0.0670211892125963  1.0000
  H   H12       1.0  0.782411722064488  0.7662940347086009  0.9329780128296719  1.0000
  H   H13       1.0  0.6316497264788339  0.11726388254294307  0.27216979617136877  1.0000
  H   H14       1.0  0.36834127865906663  0.8827363601281559  0.7278419033880326  1.0000
  H   H15       1.0  0.6430369628360141  0.3377163506338404  0.2736185141555296  1.0000
  H   H16       1.0  0.35695267953153836  0.6622870718428898  0.7263812368733511  1.0000
  H   H17       1.0  0.9653782532967413  0.07670841841606088  0.4303311780931481  1.0000
  H   H18       1.0  0.03461440818323782  0.9233321062396199  0.5696529369125329  1.0000
  H   H19       1.0  0.9170604315230123  0.9789561371072325  0.3323838079690447  1.0000
  H   H20       1.0  0.08292330918965972  0.02104577003547089  0.6676370074070448  1.0000
  H   H21       1.0  0.9306803092732426  0.13222421201454887  0.2734246670315841  1.0000
  H   H22       1.0  0.06930370108601382  0.8677735390385591  0.7265453654882278  1.0000
  H   H23       1.0  0.004801987781931425  0.9130122376891306  0.12669410466518366  1.0000
  H   H24       1.0  0.995193396961305  0.0870020717006099  0.8733177546699125  1.0000
  H   H25       1.0  0.9195258641380234  0.9047682493658656  0.9842265935900373  1.0000
  H   H26       1.0  0.08047980330372444  0.09523945200970726  0.015783719782639604  1.0000
  H   H27       1.0  0.9708638647828279  0.7704459040472356  0.09711787629183281  1.0000
  H   H28       1.0  0.029150391161522276  0.2295636070006069  0.9028927876945048  1.0000
  H   H29       1.0  0.9721320471072592  0.20159974861299898  0.6131526624449962  1.0000
  H   H30       1.0  0.02786603525999711  0.7984062691371819  0.38685275385378054  1.0000
  H   H31       1.0  0.12375644562211364  0.3097182458431432  0.7209695515002608  1.0000
  H   H32       1.0  0.8762472752565175  0.6902878446239171  0.27903202741611477  1.0000
  H   H33       1.0  0.784310829279491  0.6689563094422225  0.6075214267940012  1.0000
  H   H34       1.0  0.2157026067168744  0.3310479704201938  0.392475439755799  1.0000
  H   H35       1.0  0.6225032035749649  0.5586488051729999  0.505295026577933  1.0000
  H   H36       1.0  0.37751368709950134  0.4413548017443388  0.4946918835152729  1.0000
  H   H37       1.0  0.7236108148218392  0.22006704325424656  0.536193214292382  1.0000
  H   H38       1.0  0.27640142883058166  0.7799240415983704  0.46380506509566294  1.0000
  C   C1        1.0  0.3443675295065419  0.772176796680753  0.07466093447816749  1.0000
  C   C2        1.0  0.6556247755077963  0.22782265369377092  0.9253454027549566  1.0000
  C   C3        1.0  0.3396341097604463  0.6483182641967459  0.07441937698895629  1.0000
  C   C4        1.0  0.6603566091479464  0.351674963698926  0.9255750938857474  1.0000
  C   C5        1.0  0.4269233264181694  0.5534841735345991  0.16142736412481903  1.0000
  C   C6        1.0  0.573077398668147  0.4465106184018736  0.8385755075158557  1.0000
  C   C7        1.0  0.5135408885636606  0.5911828331283144  0.24623402147688006  1.0000
  C   C8        1.0  0.48645107531621073  0.40880666829662715  0.7537589854497498  1.0000
  C   C9        1.0  0.5120637146014175  0.7170357605486898  0.2412747538436975  1.0000
  C   C10       1.0  0.4879349492811684  0.28295519226094257  0.7587312956492412  1.0000
  C   C11       1.0  0.4272305885871789  0.42011749426360007  0.1640058917407856  1.0000
  C   C12       1.0  0.5727573191715294  0.5798804913354656  0.8359873075859242  1.0000
  C   C13       1.0  0.3078021058752539  0.38734206764069523  0.10497317135346407  1.0000
  C   C14       1.0  0.6922031655270614  0.61265275061114  0.8950277100909362  1.0000
  C   C15       1.0  0.3104683769164184  0.2613557716098923  0.1098351853840569  1.0000
  C   C16       1.0  0.6895249363567119  0.7386401646815344  0.8901624898366621  1.0000
  C   C17       1.0  0.5411957968902215  0.1966741077504395  0.2258020620494818  1.0000
  C   C18       1.0  0.45879137374213746  0.8033235128656528  0.7742037815598337  1.0000
  C   C19       1.0  0.5456067622939926  0.3207990684766528  0.22594790592052758  1.0000
  C   C20       1.0  0.4543928361771846  0.6791993437367337  0.7740600287003829  1.0000
  C   C21       1.0  0.15836454358474591  0.9948018422801181  0.3123898010675958  1.0000
  C   C22       1.0  0.8416370870585369  0.005199782749642201  0.6876042424965688  1.0000
  C   C23       1.0  0.9823532906357855  0.0496421931963269  0.3385984498502665  1.0000
  C   C24       1.0  0.0176433401938638  0.9503670840048456  0.6613923186438768  1.0000
  C   C25       1.0  0.7587157949295291  0.9106769134981859  0.13924446027039036  1.0000
  C   C26       1.0  0.2412912363975082  0.0893263023539177  0.8607581747399351  1.0000
  C   C27       1.0  0.923031295490581  0.8738855772753026  0.08164772128098009  1.0000
  C   C28       1.0  0.0769717727557548  0.12612305583449765  0.918363503297833  1.0000
  C   C29       1.0  0.7839473505755022  0.37192645584384104  0.5553759336961122  1.0000
  C   C30       1.0  0.21607178311040795  0.6280778436385502  0.44461889498736445  1.0000
  C   C31       1.0  0.9281069448677073  0.3031524184517948  0.6144358638825267  1.0000
  C   C32       1.0  0.07190939104560107  0.696847024061874  0.38556497348938024  1.0000
  C   C33       1.0  0.01348622985565134  0.36413307115801513  0.6751115741611073  1.0000
  C   C34       1.0  0.9865223133020962  0.635865526428361  0.32488788127705703  1.0000
  C   C35       1.0  0.958918078477048  0.4952694737693264  0.6742432221761377  1.0000
  C   C36       1.0  0.04108512261765899  0.5047281327567176  0.325759254778383  1.0000
  C   C37       1.0  0.8226169560382034  0.5667360545319297  0.6082882143169712  1.0000
  C   C38       1.0  0.17739306025729462  0.4332645787382106  0.39170557944885337  1.0000
  C   C39       1.0  0.7344879556358848  0.5050477649316393  0.5501121563510054  1.0000
  C   C40       1.0  0.2655300906853312  0.49495284801925266  0.4498804039664464  1.0000
  N   N1        1.0  0.4298501689807921  0.806263848110902  0.15593592285171806  1.0000
  N   N2        1.0  0.5701404654335536  0.19372647215907077  0.8440615466431537  1.0000
  N   N3        1.0  0.42596757071915914  0.16705475286915566  0.1680410252340749  1.0000
  N   N4        1.0  0.57403489807988  0.8329388485439324  0.831969980450907  1.0000
  N   N5        1.0  0.041707278190472194  0.5559892476496912  0.7466035838039246  1.0000
  N   N6        1.0  0.9583047825392865  0.4440062894825445  0.2534032260344645  1.0000
  O   O1        1.0  0.20248145062363673  0.0333553537128566  0.2056453842813752  1.0000
  O   O2        1.0  0.7975042733017972  0.9666418862242452  0.7943416959711486  1.0000
  O   O3        1.0  0.2513213076803852  0.9181099097260554  0.3889106773082673  1.0000
  O   O4        1.0  0.7486664376408643  0.08189912900522239  0.6110903698846926  1.0000
  O   O5        1.0  0.6383678826208693  0.9581652905613252  0.06540716647267428  1.0000
  O   O6        1.0  0.3616342100664697  0.041822681439533896  0.9346035381463694  1.0000
  O   O7        1.0  0.7414405381502363  0.894571925151176  0.25165842256717497  1.0000
  O   O8        1.0  0.2585572363873752  0.10542178268882196  0.7483500745238773  1.0000
  O   O9        1.0  0.6910112032092001  0.31376550220132066  0.5046511386671213  1.0000
  O   O10       1.0  0.30899321610280583  0.6862476071982045  0.49533531386646956  1.0000
  O   O11       1.0  0.014380822809862047  0.6731852008098612  0.7284884841257621  1.0000
  O   O12       1.0  0.9856350891949007  0.3268218936421191  0.2715079877378841  1.0000
  O   O13       1.0  0.1361105108657127  0.48832175585564397  0.8269202950097494  1.0000
  O   O14       1.0  0.8638753254704458  0.5116803237354615  0.1730941267199668  1.0000
