data_image0
_chemical_formula_structural       Al4H20C32O28
_chemical_formula_sum              "Al4 H20 C32 O28"
_cell_length_a       6.77003038759927
_cell_length_b       13.65272771594193
_cell_length_c       16.314671674993512
_cell_angle_alpha    89.94155534164956
_cell_angle_beta     89.33024078465095
_cell_angle_gamma    89.2736901042215

_space_group_name_H-M_alt    "P 1"
_space_group_IT_number       1

loop_
  _space_group_symop_operation_xyz
  'x, y, z'

loop_
  _atom_site_type_symbol
  _atom_site_label
  _atom_site_symmetry_multiplicity
  _atom_site_fract_x
  _atom_site_fract_y
  _atom_site_fract_z
  _atom_site_occupancy
  Al  Al1       1.0  0.009561913575495897  0.9976696709113139  0.5009026649650538  1.0000
  Al  Al2       1.0  0.5096144682611835  0.0024098013231465994  0.4988964866508285  1.0000
  Al  Al3       1.0  0.9904000734793357  0.4975900574873862  0.0011013747275753997  1.0000
  Al  Al4       1.0  0.49044490809786356  0.502318841943371  0.9990916030683935  1.0000
  H   H1        1.0  0.2636712083511624  0.8687731836754226  0.4995152898821473  1.0000
  H   H2        1.0  0.7618943150372813  0.13116644715717024  0.5024411841510387  1.0000
  H   H3        1.0  0.23635288500484813  0.6312188765477558  0.0004994023902114003  1.0000
  H   H4        1.0  0.7381365728635529  0.36882388809193134  0.9975686574351389  1.0000
  H   H5        1.0  0.42809476232493887  0.6965591198931236  0.8084016026033468  1.0000
  H   H6        1.0  0.0719212957238895  0.803486485491632  0.691617134483117  1.0000
  H   H7        1.0  0.9296965326276804  0.3009114625868676  0.189281689408979  1.0000
  H   H8        1.0  0.5703503466744451  0.199086828672165  0.3107295760518626  1.0000
  H   H9        1.0  0.5673551996596089  0.30290898468325617  0.8097182113198969  1.0000
  H   H10       1.0  0.9326818341053452  0.19709380028790235  0.6902615743294336  1.0000
  H   H11       1.0  0.42682451085313733  0.7010973934566987  0.19292002847097936  1.0000
  H   H12       1.0  0.07310853415845027  0.7988377938057313  0.3071120821124255  1.0000
  H   H13       1.0  0.4265600012897223  0.8618441983210656  0.6420807897049914  1.0000
  H   H14       1.0  0.0734326553539333  0.6381890267443777  0.8579331084182372  1.0000
  H   H15       1.0  0.9250532241803384  0.13553260889142388  0.3555237458877869  1.0000
  H   H16       1.0  0.5749525102072823  0.36446434668868477  0.14447291312782085  1.0000
  H   H17       1.0  0.5820712804683551  0.13692497268143458  0.6445917696209238  1.0000
  H   H18       1.0  0.9179553465093093  0.36309249762161494  0.855378228378335  1.0000
  H   H19       1.0  0.426941663376077  0.8674488566481385  0.3573738369453282  1.0000
  H   H20       1.0  0.07298832194644687  0.632533238518917  0.14261903102918447  1.0000
  C   C1        1.0  0.7646954988273081  0.8835102379773049  0.3866510830977959  1.0000
  C   C2        1.0  0.7619002098569608  0.8825444109717465  0.6125563631412093  1.0000
  C   C3        1.0  0.24914572631731596  0.11645781086412649  0.6132092478620594  1.0000
  C   C4        1.0  0.2594815981475662  0.11742912974786178  0.38742836097191  1.0000
  C   C5        1.0  0.7352676467173607  0.6164591604879205  0.11336040877593233  1.0000
  C   C6        1.0  0.7380978120162994  0.6174725458500134  0.88745968088152  1.0000
  C   C7        1.0  0.25089049957615117  0.3835495080601277  0.8867708375106745  1.0000
  C   C8        1.0  0.24053840845876098  0.38255327294772457  0.11256489060288291  1.0000
  C   C9        1.0  0.7538050095412742  0.8150924222489166  0.6831915203216286  1.0000
  C   C10       1.0  0.7461201602137493  0.6849445186481732  0.8168394094901574  1.0000
  C   C11       1.0  0.5697841853450497  0.7845869666101563  0.7171936002302816  1.0000
  C   C12       1.0  0.9301690059604936  0.7154447597135983  0.7828458425700406  1.0000
  C   C13       1.0  0.569272957434542  0.719826599232043  0.7832492359279615  1.0000
  C   C14       1.0  0.9306684290994552  0.780210292484469  0.7167841047872656  1.0000
  C   C15       1.0  0.25264137873052306  0.1849559886716463  0.3168229052003539  1.0000
  C   C16       1.0  0.24733848398653177  0.3150455768135032  0.1831704390471458  1.0000
  C   C17       1.0  0.06951179344491722  0.2138769448006812  0.2814492003415836  1.0000
  C   C18       1.0  0.43049013729580565  0.286131880556006  0.21854347195736787  1.0000
  C   C19       1.0  0.0701968140008802  0.27866022997880435  0.21540843941888005  1.0000
  C   C20       1.0  0.4298081554688906  0.22133686395322624  0.2845897471098837  1.0000
  C   C21       1.0  0.2514292217772293  0.18434037016936602  0.683513028745722  1.0000
  C   C22       1.0  0.24859079895470151  0.3156691969330437  0.8164615799250043  1.0000
  C   C23       1.0  0.4326721977242941  0.21462863340326516  0.7184828415390145  1.0000
  C   C24       1.0  0.0673537205498533  0.28538604584841204  0.7814874592468259  1.0000
  C   C25       1.0  0.42789698605358234  0.2799481688222514  0.7840932038826196  1.0000
  C   C26       1.0  0.0721244093702751  0.22006285592645008  0.7158875302074038  1.0000
  C   C27       1.0  0.7554987274897726  0.8157015455247246  0.3163978205701241  1.0000
  C   C28       1.0  0.7444761468933622  0.6842744105473667  0.18361363872836736  1.0000
  C   C29       1.0  0.5707416787857936  0.7877286896070784  0.2829289896170337  1.0000
  C   C30       1.0  0.9292197182854095  0.7122509634386345  0.21709230931030285  1.0000
  C   C31       1.0  0.5687642970032982  0.7223624022001545  0.21740495889719116  1.0000
  C   C32       1.0  0.931187023706542  0.7775989694678812  0.282615147827336  1.0000
  O   O1        1.0  0.9301420162184967  0.9079496111563045  0.4158771247525763  1.0000
  O   O2        1.0  0.5946844106833493  0.911909115059238  0.5827220124950545  1.0000
  O   O3        1.0  0.41973581196914717  0.08825478580206442  0.5839781888709441  1.0000
  O   O4        1.0  0.09208040981483379  0.08706037382197707  0.41635606389200325  1.0000
  O   O5        1.0  0.08563647107930451  0.08943513759856361  0.584005228373961  1.0000
  O   O6        1.0  0.42593763005942975  0.09280441466513882  0.41703140143748396  1.0000
  O   O7        1.0  0.5962347743492485  0.9143878194725089  0.41587616972319114  1.0000
  O   O8        1.0  0.9288458431602747  0.9080435199343952  0.5837435708656857  1.0000
  O   O9        1.0  0.2628693893831837  0.9397629256304326  0.49961514764028436  1.0000
  O   O10       1.0  0.7592243738399559  0.060270127431749594  0.5002028673893548  1.0000
  O   O11       1.0  0.903744626228061  0.5855939898008771  0.0841224034484753  1.0000
  O   O12       1.0  0.5711640794808871  0.5919697406849449  0.9162699929665694  1.0000
  O   O13       1.0  0.41441144891511783  0.4105794705352608  0.9159766630449868  1.0000
  O   O14       1.0  0.07409412844799591  0.40717795073931734  0.08296672412632942  1.0000
  O   O15       1.0  0.0802989184153162  0.4117496053878256  0.9160061922858206  1.0000
  O   O16       1.0  0.40793411938577856  0.41290667189242203  0.08362065867472523  1.0000
  O   O17       1.0  0.5698064062981132  0.5920161684281453  0.0841344059257025  1.0000
  O   O18       1.0  0.9053005159905111  0.5881034911063237  0.9172836463205486  1.0000
  O   O19       1.0  0.23714286939346607  0.5602328331891256  0.0003971210151547998  1.0000
  O   O20       1.0  0.7407830020999738  0.43972761069579025  0.999790480420437  1.0000
  O   O21       1.0  0.3936283847390384  0.8162938822102035  0.6878748002840711  1.0000
  O   O22       1.0  0.10640395792055558  0.6837509435882437  0.8121420571806868  1.0000
  O   O23       1.0  0.8932390307416966  0.18064740274910207  0.3093484628451294  1.0000
  O   O24       1.0  0.6067828013659096  0.3193546293580809  0.19065428278522495  1.0000
  O   O25       1.0  0.6112804353381519  0.18215869791293215  0.6906745282886463  1.0000
  O   O26       1.0  0.8887476508252022  0.31786682882459155  0.8092887198786516  1.0000
  O   O27       1.0  0.3944699470612392  0.8220310870426599  0.3118786400807424  1.0000
  O   O28       1.0  0.10547923268272535  0.6779480196192438  0.18811785851973895  1.0000
