data_image0
_chemical_formula_structural       Cd4H36C20N4Cl8O8
_chemical_formula_sum              "Cd4 H36 C20 N4 Cl8 O8"
_cell_length_a       7.09897522717853
_cell_length_b       9.677859869373115
_cell_length_c       13.361849119255657
_cell_angle_alpha    89.99933273513763
_cell_angle_beta     89.99975533990059
_cell_angle_gamma    89.99923677930245

_space_group_name_H-M_alt    "P 1"
_space_group_IT_number       1

loop_
  _space_group_symop_operation_xyz
  'x, y, z'

loop_
  _atom_site_type_symbol
  _atom_site_label
  _atom_site_symmetry_multiplicity
  _atom_site_fract_x
  _atom_site_fract_y
  _atom_site_fract_z
  _atom_site_occupancy
  Cd  Cd1       1.0  0.3549942396651814  0.22889178102568045  0.005075019168636201  1.0000
  Cd  Cd2       1.0  0.6450113690258235  0.7288957175106104  0.4949329182469811  1.0000
  Cd  Cd3       1.0  0.145010614709939  0.7711150920104328  0.5050666416771676  1.0000
  Cd  Cd4       1.0  0.8550015353452238  0.2711128007496696  0.9949297790509564  1.0000
  H   H1        1.0  0.1154975421676667  0.9148968292680875  0.27224724417528995  1.0000
  H   H2        1.0  0.884504736672767  0.41492126794555145  0.22775014122926512  1.0000
  H   H3        1.0  0.38449392062315  0.0850902544978496  0.7722508472613401  1.0000
  H   H4        1.0  0.6155018383687291  0.5850832741578528  0.727748641606745  1.0000
  H   H5        1.0  0.10377976874733007  0.704512227948186  0.1853993881948526  1.0000
  H   H6        1.0  0.8962093724318335  0.20453102292577796  0.3145967807139699  1.0000
  H   H7        1.0  0.3962053407027851  0.29547625035519315  0.685402684127105  1.0000
  H   H8        1.0  0.6037838347993585  0.7954741913585719  0.8145920340553305  1.0000
  H   H9        1.0  0.1761051899027066  0.8071810541780167  0.08267431695087168  1.0000
  H   H10       1.0  0.8238961999328325  0.30719891641713554  0.41732173313086923  1.0000
  H   H11       1.0  0.32388496152940865  0.1928142399892607  0.5826756524463192  1.0000
  H   H12       1.0  0.6761004171020845  0.6928139479515777  0.917321429690638  1.0000
  H   H13       1.0  0.8500897692077983  0.6599800178800093  0.0656974730528148  1.0000
  H   H14       1.0  0.1498987606677104  0.1599794880679113  0.4342990720901058  1.0000
  H   H15       1.0  0.6498955547008406  0.3400260930166396  0.5657061968092734  1.0000
  H   H16       1.0  0.35008859737854436  0.840018426478018  0.9342926354983448  1.0000
  H   H17       1.0  0.851398410679458  0.8355088201598018  0.0243297012285169  1.0000
  H   H18       1.0  0.14860528948599952  0.33551280543652945  0.4756668580314526  1.0000
  H   H19       1.0  0.6485928764959041  0.16449795498579078  0.5243331750291277  1.0000
  H   H20       1.0  0.3513944176881338  0.6644958109069775  0.9756671398912503  1.0000
  H   H21       1.0  0.59402972251074  0.8441443030590815  0.14465088165354703  1.0000
  H   H22       1.0  0.4059724145107424  0.3441373368672345  0.35534635311224605  1.0000
  H   H23       1.0  0.9059620174466404  0.15586260665715196  0.6446568313590076  1.0000
  H   H24       1.0  0.0940254313786326  0.6558535790335328  0.8553443049301708  1.0000
  H   H25       1.0  0.7095513564437753  0.725653032833442  0.22662343693140494  1.0000
  H   H26       1.0  0.29044867567969845  0.22565266084680502  0.273376295472147  1.0000
  H   H27       1.0  0.7904481842918968  0.2743463608987397  0.7266301477037801  1.0000
  H   H28       1.0  0.2095427781749137  0.7743354381620404  0.7733692393890835  1.0000
  H   H29       1.0  0.7863801381554935  0.021615018016838395  0.19529083888026122  1.0000
  H   H30       1.0  0.21364326765575467  0.5216159510723201  0.3047031329519143  1.0000
  H   H31       1.0  0.7136238774170349  0.9783879786413151  0.6952992631175263  1.0000
  H   H32       1.0  0.286371884359525  0.4783768111433062  0.8047081296776994  1.0000
  H   H33       1.0  0.8058899275666674  0.9263998486926324  0.3016195834578497  1.0000
  H   H34       1.0  0.19411214561152687  0.4263964692375595  0.19837620810265832  1.0000
  H   H35       1.0  0.694106200026809  0.0736045405685672  0.8016267141560081  1.0000
  H   H36       1.0  0.3058911732661471  0.573591800637878  0.6983758653489718  1.0000
  C   C1        1.0  0.0897682145760186  0.05513245952747071  0.14772098493703822  1.0000
  C   C2        1.0  0.9102616343036302  0.5551515572128238  0.3522824328904122  1.0000
  C   C3        1.0  0.4102411412706957  0.9448638567008343  0.6477187635144759  1.0000
  C   C4        1.0  0.5897622639413453  0.44484995189939974  0.8522836736570484  1.0000
  C   C5        1.0  0.036445514644711394  0.9207596200225009  0.2017638020681574  1.0000
  C   C6        1.0  0.9635566592589199  0.4207831768314705  0.2982320370199858  1.0000
  C   C7        1.0  0.4635465080772221  0.0792285954901928  0.7017665248549534  1.0000
  C   C8        1.0  0.536445129882793  0.5792223001427529  0.7982315167280307  1.0000
  C   C9        1.0  0.06347618355019338  0.791217933715721  0.13729644455901283  1.0000
  C   C10       1.0  0.9365184487721548  0.29123659016369874  0.3626982435645516  1.0000
  C   C11       1.0  0.43651212529120187  0.20877545006985798  0.6373033739522711  1.0000
  C   C12       1.0  0.5634786022671747  0.7087709515956249  0.8626943217756065  1.0000
  C   C13       1.0  0.8700394799391942  0.7674373701809711  0.0894541872074726  1.0000
  C   C14       1.0  0.1299513522502096  0.2674405193763647  0.4105429470523063  1.0000
  C   C15       1.0  0.6299456553039915  0.23256319285538748  0.5894593740373396  1.0000
  C   C16       1.0  0.37004182909905836  0.7325608764353575  0.9105381207562858  1.0000
  C   C17       1.0  0.7312328402327352  0.8080672494054892  0.1715520933871062  1.0000
  C   C18       1.0  0.26876571656338644  0.30806930789293563  0.328446194477408  1.0000
  C   C19       1.0  0.768751642779918  0.19193406193620885  0.6715617952546042  1.0000
  C   C20       1.0  0.23123656895705116  0.6919261730799774  0.8284420299405044  1.0000
  N   N1        1.0  0.827876507417308  0.926260865882085  0.22442066285422874  1.0000
  N   N2        1.0  0.17212697682248998  0.42626679760954284  0.275574381439867  1.0000
  N   N3        1.0  0.6721075556368561  0.07373649671404078  0.7244285912781976  1.0000
  N   N4        1.0  0.3278827720124226  0.5737243658076918  0.7755754839165194  1.0000
  Cl  Cl1       1.0  0.12826930084955987  0.4449197202724519  0.0404527038773992  1.0000
  Cl  Cl2       1.0  0.871728214774073  0.9449230113243414  0.45954442802653267  1.0000
  Cl  Cl3       1.0  0.3717338638353239  0.5550834848182475  0.5404493728219606  1.0000
  Cl  Cl4       1.0  0.6282821534110282  0.05508090863594359  0.9595548598599779  1.0000
  Cl  Cl5       1.0  0.5958836977656857  0.3626361863661529  0.11878448749799021  1.0000
  Cl  Cl6       1.0  0.40413782917600116  0.8626464024088351  0.3812268105657425  1.0000
  Cl  Cl7       1.0  0.9041406467534187  0.6373711385901542  0.6187818838509926  1.0000
  Cl  Cl8       1.0  0.09587389758934958  0.13735133086338178  0.8812253958404457  1.0000
  O   O1        1.0  0.2600406829390423  0.0663615843349703  0.12118549264538812  1.0000
  O   O2        1.0  0.7399931908527861  0.566384009927688  0.37881932711277244  1.0000
  O   O3        1.0  0.23997310969619423  0.9336320580851304  0.621183756835386  1.0000
  O   O4        1.0  0.760031905124947  0.4336284392131516  0.8788225171599252  1.0000
  O   O5        1.0  0.4583468540930582  0.35701911011414467  0.8636224464557642  1.0000
  O   O6        1.0  0.5416567147324683  0.8570318945843949  0.6363844746012006  1.0000
  O   O7        1.0  0.0416776904112055  0.6429789057690697  0.3636205612816923  1.0000
  O   O8        1.0  0.9583674900227592  0.14296688143774355  0.1363873534398223  1.0000
