data_image0
_chemical_formula_structural       Zn4H48C92Br8N16O16
_chemical_formula_sum              "Zn4 H48 C92 Br8 N16 O16"
_cell_length_a       21.55034662828489
_cell_length_b       21.54929809723229
_cell_length_c       21.691018938236674
_cell_angle_alpha    60.24343580929025
_cell_angle_beta     63.15172104596754
_cell_angle_gamma    90.00635706304081

_space_group_name_H-M_alt    "P 1"
_space_group_IT_number       1

loop_
  _space_group_symop_operation_xyz
  'x, y, z'

loop_
  _atom_site_type_symbol
  _atom_site_label
  _atom_site_symmetry_multiplicity
  _atom_site_fract_x
  _atom_site_fract_y
  _atom_site_fract_z
  _atom_site_occupancy
  Zn  Zn1       1.0  0.5428227396087094  0.0462313586427356  0.9066048466295484  1.0000
  Zn  Zn2       1.0  0.45697707276128324  0.95293376182758  0.09347644968482198  1.0000
  Zn  Zn3       1.0  0.9578219278817669  0.4548363590419625  0.09056926375570386  1.0000
  Zn  Zn4       1.0  0.041960923505321476  0.5453432620113005  0.9092604436217968  1.0000
  H   H1        1.0  0.8071393109347155  0.38707335705660734  0.22015623305908613  1.0000
  H   H2        1.0  0.7288616558789585  0.31516403022468603  0.3762829198881762  1.0000
  H   H3        1.0  0.5794491416820478  0.19881937192888435  0.6127988483746662  1.0000
  H   H4        1.0  0.7778664614564689  0.19335178366710437  0.6161517179125794  1.0000
  H   H5        1.0  0.19229587648276686  0.607609101636676  0.7799591486829343  1.0000
  H   H6        1.0  0.2709492282025038  0.692267424459203  0.62360225419296  1.0000
  H   H7        1.0  0.4205590148434907  0.8110502991714411  0.387593004160614  1.0000
  H   H8        1.0  0.2220594153488307  0.8103939200640299  0.3845281117144593  1.0000
  H   H9        1.0  0.5763494391175569  0.07210977959105949  0.13344094359227657  1.0000
  H   H10       1.0  0.6114431502334625  0.10289428954020961  0.21125741789708036  1.0000
  H   H11       1.0  0.6998051301950526  0.20292667228961392  0.8667715315110984  1.0000
  H   H12       1.0  0.9199354585917803  0.42852876519037864  0.867405251424195  1.0000
  H   H13       1.0  0.8865591469709813  0.39607166200774196  0.7892312141529063  1.0000
  H   H14       1.0  0.8005703627105164  0.2933547944102344  0.13402238100525207  1.0000
  H   H15       1.0  0.30289388418578506  0.7938617465250531  0.132189433265367  1.0000
  H   H16       1.0  0.19805363406107543  0.6839895870314832  0.2094858826861385  1.0000
  H   H17       1.0  0.4213322326817774  0.9308924511918872  0.8655624657226326  1.0000
  H   H18       1.0  0.20183322652381  0.7059727690380483  0.8639770294286464  1.0000
  H   H19       1.0  0.3055179532322185  0.8166540827050355  0.7867478225204818  1.0000
  H   H20       1.0  0.07857950434580363  0.5731089003951978  0.13036040512243838  1.0000
  H   H21       1.0  0.2993905505014922  0.0706171790931407  0.1345304152173128  1.0000
  H   H22       1.0  0.19476042653352008  0.10354290168502439  0.21168159873504777  1.0000
  H   H23       1.0  0.4232001191281611  0.20401513058733659  0.8678661694156348  1.0000
  H   H24       1.0  0.1996123756469075  0.4264689820100926  0.8651403323777133  1.0000
  H   H25       1.0  0.304926541255618  0.3947431057242312  0.7884474196421679  1.0000
  H   H26       1.0  0.07982188459795479  0.2976516169306933  0.13170583571569952  1.0000
  H   H27       1.0  0.5768987623157501  0.7930123198404005  0.1360407858881275  1.0000
  H   H28       1.0  0.6108898317197385  0.683041754963952  0.21314005943404635  1.0000
  H   H29       1.0  0.6958788007904815  0.9265600915256301  0.8693357691912099  1.0000
  H   H30       1.0  0.9225761762828456  0.7065717187335635  0.8675978269097089  1.0000
  H   H31       1.0  0.8863986604544108  0.814932424415602  0.7901260977414921  1.0000
  H   H32       1.0  0.7987101746441921  0.5689721491869124  0.13389976390190123  1.0000
  H   H33       1.0  0.039957785364535384  0.40954368315847495  0.15729021121160966  1.0000
  H   H34       1.0  0.03828996854934987  0.4007421986770865  0.24166630975488354  1.0000
  H   H35       1.0  0.9033047357755211  0.2723294944968444  0.45329743060484873  1.0000
  H   H36       1.0  0.9827279049318489  0.2965281398616781  0.3641816283509843  1.0000
  H   H37       1.0  0.46656565271099026  0.06468423844157908  0.8373291511736342  1.0000
  H   H38       1.0  0.46965092620638416  0.1230685994182252  0.7447776528601651  1.0000
  H   H39       1.0  0.6822655033585435  0.09495160094411402  0.8405280044623706  1.0000
  H   H40       1.0  0.7642383681015588  0.1309995762686924  0.7492617031968577  1.0000
  H   H41       1.0  0.9603489331022602  0.5632853885001836  0.8419698529610641  1.0000
  H   H42       1.0  0.9610769929233953  0.6386420587947015  0.7580219167821767  1.0000
  H   H43       1.0  0.09734304624278416  0.7262335073998898  0.5457720124787002  1.0000
  H   H44       1.0  0.0180906029781553  0.6603561866863856  0.6339229309722043  1.0000
  H   H45       1.0  0.5331235835495746  0.9012967341448643  0.16290410328662133  1.0000
  H   H46       1.0  0.5300719561793129  0.8667598391281928  0.25564797895195573  1.0000
  H   H47       1.0  0.3175764486922007  0.9355496251254893  0.15990113229091202  1.0000
  H   H48       1.0  0.23552893348605153  0.8807797506119995  0.25149660824055803  1.0000
  C   C1        1.0  0.41497011033217024  0.9155048977046506  0.999609052882235  1.0000
  C   C2        1.0  0.4147743661954877  0.08419949898193123  0.0005602556806109311  1.0000
  C   C3        1.0  0.5845429319970065  0.08363859786530979  0.000901827915029706  1.0000
  C   C4        1.0  0.5836040430344481  0.9136300431742012  0.0021174174145814724  1.0000
  C   C5        1.0  0.08736200910374238  0.4165414470626629  0.9967288315472231  1.0000
  C   C6        1.0  0.08701979273804022  0.5861304045859511  0.9968936199974722  1.0000
  C   C7        1.0  0.9139266669204886  0.5842094290683734  0.0006600121264527919  1.0000
  C   C8        1.0  0.9126621698476426  0.41364454733753325  0.0024033268530702116  1.0000
  C   C9        1.0  0.8303942929146543  0.3690196377162849  0.2594751300303741  1.0000
  C   C10       1.0  0.7878175785029882  0.3300568413277603  0.34452631331461  1.0000
  C   C11       1.0  0.8220396810381914  0.3077729781531247  0.39143811859078426  1.0000
  C   C12       1.0  0.8984443657861547  0.32714117481008737  0.34970975671248533  1.0000
  C   C13       1.0  0.9386612854035689  0.3691005422020551  0.26057764786325793  1.0000
  C   C14       1.0  0.6073806093259365  0.18023037634865346  0.64706780842301  1.0000
  C   C15       1.0  0.6830776027527746  0.20113685698169093  0.6044435455629439  1.0000
  C   C16       1.0  0.7189107117531252  0.17696234553209683  0.6484285253951754  1.0000
  C   C17       1.0  0.677129564783101  0.1326368314960362  0.7354757814832595  1.0000
  C   C18       1.0  0.5681986957306933  0.13360411442218387  0.734525881308315  1.0000
  C   C19       1.0  0.16930315360064438  0.6284803150876358  0.7403522286432036  1.0000
  C   C20       1.0  0.21200609929650938  0.674869134123554  0.655356132930372  1.0000
  C   C21       1.0  0.17785983673677208  0.6992095117305368  0.6084004926037283  1.0000
  C   C22       1.0  0.10153489742599218  0.6762880478236397  0.6497899358970755  1.0000
  C   C23       1.0  0.061275598512047176  0.6282156776690186  0.7387965988292962  1.0000
  C   C24       1.0  0.39265762137053867  0.8271251176179533  0.3532764203882408  1.0000
  C   C25       1.0  0.3169973160483934  0.8059419894385016  0.39590603214855946  1.0000
  C   C26       1.0  0.28101967441492076  0.8260542030088087  0.3520879695923045  1.0000
  C   C27       1.0  0.3227053998486581  0.8684787747660252  0.2650754470013296  1.0000
  C   C28       1.0  0.4316770012560978  0.867902840504854  0.26583027634202255  1.0000
  C   C29       1.0  0.6219662638895258  0.11890335128200039  0.07547105920142613  1.0000
  C   C30       1.0  0.6677579426006872  0.1641494530415741  0.07642809152389421  1.0000
  C   C31       1.0  0.6565131283328185  0.14999304591136564  0.15310070675296575  1.0000
  C   C32       1.0  0.6917646753761133  0.19282337905055164  0.9246285398128933  1.0000
  C   C33       1.0  0.7382119679513295  0.24020249678218866  0.9226206658814818  1.0000
  C   C34       1.0  0.7978665876683592  0.30337326079922616  0.8472171058987856  1.0000
  C   C35       1.0  0.8754262437720682  0.38066626977116874  0.9254718969650924  1.0000
  C   C36       1.0  0.8306174940323315  0.3346819162126167  0.92416654726226  1.0000
  C   C37       1.0  0.8418756732804553  0.3486174702429352  0.8475041976259875  1.0000
  C   C38       1.0  0.807632525832382  0.3041301200694022  0.07629474182738245  1.0000
  C   C39       1.0  0.7608342926677665  0.2574883357732745  0.07799443877557614  1.0000
  C   C40       1.0  0.7010514751046557  0.19454713555305148  0.15350418186854145  1.0000
  C   C41       1.0  0.634085321076924  0.1330125842020351  0.00021503974620871647  1.0000
  C   C42       1.0  0.72657186808361  0.2259408368072968  0.9996281289643463  1.0000
  C   C43       1.0  0.8641107521783622  0.3651982121528121  0.000998952207503328  1.0000
  C   C44       1.0  0.7722820338595966  0.2723068217611555  0.0008614514743853132  1.0000
  C   C45       1.0  0.3099971989330967  0.8052298455581878  0.07412101190623586  1.0000
  C   C46       1.0  0.2636954011150081  0.7589357900059142  0.07473688836537913  1.0000
  C   C47       1.0  0.2056881023691233  0.6956965024470776  0.1511387775032845  1.0000
  C   C48       1.0  0.3769955521230983  0.882887720319573  0.9233163149109133  1.0000
  C   C49       1.0  0.3326395638939345  0.8376468300375349  0.9209460296552126  1.0000
  C   C50       1.0  0.34153312170140987  0.8506332785306441  0.845253440229051  1.0000
  C   C51       1.0  0.19355224502189824  0.6954506876777556  0.9221603808037884  1.0000
  C   C52       1.0  0.23927946598891475  0.7423131557920468  0.9215356270890142  1.0000
  C   C53       1.0  0.2973719719649209  0.8054264481603468  0.8451245019464582  1.0000
  C   C54       1.0  0.12426534426547416  0.6199767438752061  0.07290187472236213  1.0000
  C   C55       1.0  0.16955521232870294  0.6642474626823258  0.07531968930370433  1.0000
  C   C56       1.0  0.1611792500999484  0.6508856639568278  0.1509508886549897  1.0000
  C   C57       1.0  0.36604836255347806  0.8667667488139443  0.9989679451281148  1.0000
  C   C58       1.0  0.27461408191341957  0.7744428999768188  0.9977694499791029  1.0000
  C   C59       1.0  0.13629312178214545  0.6350938932230292  0.99719692346369  1.0000
  C   C60       1.0  0.2279858219106145  0.7270887591027486  0.998521178505996  1.0000
  C   C61       1.0  0.30777554430111553  0.11804096861589389  0.07614693556966054  1.0000
  C   C62       1.0  0.2618721292618177  0.16412273771046423  0.07680731142863098  1.0000
  C   C63       1.0  0.2033198640883782  0.1507250878704767  0.1531128454795763  1.0000
  C   C64       1.0  0.37764039075918987  0.1936960715311073  0.9253014770377561  1.0000
  C   C65       1.0  0.3323600249185645  0.24035521266679896  0.922949686720955  1.0000
  C   C66       1.0  0.34148433589624005  0.3029408981914017  0.8470793952144932  1.0000
  C   C67       1.0  0.19211879500124948  0.3798809004771968  0.9234313011372848  1.0000
  C   C68       1.0  0.23830066350557635  0.33416734372068646  0.9231564455076224  1.0000
  C   C69       1.0  0.29680725432240956  0.34774061348367263  0.8468339095811575  1.0000
  C   C70       1.0  0.12425634308269198  0.3069303792156147  0.07422626601534435  1.0000
  C   C71       1.0  0.16846002626554926  0.2591005517053517  0.07694211402274219  1.0000
  C   C72       1.0  0.15919477019387782  0.19613170394843848  0.1527032273246078  1.0000
  C   C73       1.0  0.3653245689122357  0.13300136283478992  0.0010031466455657605  1.0000
  C   C74       1.0  0.2735076359043375  0.22607261085197905  0.999751563494172  1.0000
  C   C75       1.0  0.13582809772864116  0.36657064013098045  0.9982464181595461  1.0000
  C   C76       1.0  0.22686657983334868  0.2726636672221616  0.00032090879097519724  1.0000
  C   C77       1.0  0.621598508059563  0.8040124164825642  0.07760589612689026  1.0000
  C   C78       1.0  0.6667717079981799  0.7571631320799809  0.07827896147595237  1.0000
  C   C79       1.0  0.655710678413264  0.6943300931506541  0.15466204557381513  1.0000
  C   C80       1.0  0.6890845929982417  0.8792879050036716  0.9267315847957182  1.0000
  C   C81       1.0  0.7363198804202682  0.8347631157623709  0.9244301202131313  1.0000
  C   C82       1.0  0.7962440926317669  0.8477635796008158  0.8487196462587933  1.0000
  C   C83       1.0  0.8765434428453817  0.6947041031909579  0.9257016269659956  1.0000
  C   C84       1.0  0.830499378736711  0.7406872542706822  0.9249464767589616  1.0000
  C   C85       1.0  0.841311910154424  0.8033446219628929  0.8485915051883878  1.0000
  C   C86       1.0  0.8066809250480204  0.6171752333695295  0.07640018160920209  1.0000
  C   C87       1.0  0.7599856237782134  0.662249010835005  0.07873684343738319  1.0000
  C   C88       1.0  0.7001891634465237  0.6492988327610546  0.1545165342166472  1.0000
  C   C89       1.0  0.6325283248158229  0.864291108760888  0.0024917079346595005  1.0000
  C   C90       1.0  0.7252391610336986  0.7722165229378247  0.001222544764203887  1.0000
  C   C91       1.0  0.8645071899772035  0.6332897040355048  0.0007753184842728788  1.0000
  C   C92       1.0  0.7714336930706194  0.7251017370414345  0.0019390406765397766  1.0000
  Br  Br1       1.0  0.6826121941132683  0.1723568665812536  0.2580002025434355  1.0000
  Br  Br2       1.0  0.8166524427721312  0.3254632850148198  0.742441307594575  1.0000
  Br  Br3       1.0  0.08548011566051629  0.5671794172000162  0.25542807748094276  1.0000
  Br  Br4       1.0  0.4177206697225698  0.9337488937202706  0.7408283141081567  1.0000
  Br  Br5       1.0  0.0823103245084624  0.17446436207384153  0.2570739507312823  1.0000
  Br  Br6       1.0  0.4184237668699637  0.32459963466316577  0.7429708006882692  1.0000
  Br  Br7       1.0  0.682000010109803  0.5667183820729987  0.2587636484562951  1.0000
  Br  Br8       1.0  0.8137751765298515  0.9298666833377282  0.7444569515710813  1.0000
  N   N1        1.0  0.9045592745106104  0.38891874829992906  0.21798466380256792  1.0000
  N   N2        1.0  0.7866452473828359  0.2634843677464715  0.4782892151167246  1.0000
  N   N3        1.0  0.7177840246999309  0.24736229714015676  0.516571354775124  1.0000
  N   N4        1.0  0.6026251120263524  0.11085301342791348  0.7781809330257589  1.0000
  N   N5        1.0  0.09523307662202996  0.6060453345603422  0.7815220440566009  1.0000
  N   N6        1.0  0.21342810886570615  0.7420676696707247  0.5216239907167195  1.0000
  N   N7        1.0  0.2822469872853405  0.7642067427738655  0.4836986681686425  1.0000
  N   N8        1.0  0.3971622405567741  0.8890333065230674  0.22232142081236378  1.0000
  N   N9        1.0  0.012695603851156461  0.3847932613422955  0.22020084427608572  1.0000
  N   N10       1.0  0.9358079287796102  0.3082237508294624  0.390554616714553  1.0000
  N   N11       1.0  0.49429771153684504  0.1111656043401723  0.7777969161521908  1.0000
  N   N12       1.0  0.709895826469392  0.10817320355751998  0.780928251910197  1.0000
  N   N13       1.0  0.9873475634027216  0.601942092168322  0.7790419620796599  1.0000
  N   N14       1.0  0.06446977510024957  0.6985634195070888  0.6085812612816995  1.0000
  N   N15       1.0  0.5056092913817379  0.8883496087910742  0.22249176466107923  1.0000
  N   N16       1.0  0.28981291631503575  0.8893945751685663  0.2197138126079637  1.0000
  O   O1        1.0  0.45462122909835034  0.9792045246789057  0.9318138191597641  1.0000
  O   O2        1.0  0.4136044583980549  0.8903245349646056  0.06702117220333993  1.0000
  O   O3        1.0  0.3922985253303821  0.020520874375428405  0.06862901189543888  1.0000
  O   O4        1.0  0.47484352651054  0.10896618902558691  0.9335617943056816  1.0000
  O   O5        1.0  0.5244846871984592  0.04150283684652581  0.06817322354066144  1.0000
  O   O6        1.0  0.6067733181607481  0.0876377315730963  0.9331360224464406  1.0000
  O   O7        1.0  0.5846421041206112  0.9558686165346798  0.9350134258684265  1.0000
  O   O8        1.0  0.5441040155163606  0.9094320716766686  0.07013213677289808  1.0000
  O   O9        1.0  0.04450398362875059  0.40977152355344515  0.06527756920681331  1.0000
  O   O10       1.0  0.0922546897071683  0.4617131454605926  0.9276559053778753  1.0000
  O   O11       1.0  0.10697943389800456  0.5950277725253059  0.9273250512490777  1.0000
  O   O12       1.0  0.029552284001446962  0.5397078665840384  0.06608891462511933  1.0000
  O   O13       1.0  0.9713789606133859  0.6072019693193197  0.9312095368533946  1.0000
  O   O14       1.0  0.8941793189321247  0.5235086596753079  0.06994633968548672  1.0000
  O   O15       1.0  0.9080937161849434  0.3899932423511956  0.07118553644982485  1.0000
  O   O16       1.0  0.9555273311014644  0.4754239872855947  0.9336535976151696  1.0000
