data_image0
_chemical_formula_structural       K12H24C24N28O24
_chemical_formula_sum              "K12 H24 C24 N28 O24"
_cell_length_a       7.099910304
_cell_length_b       10.295253946533988
_cell_length_c       17.115
_cell_angle_alpha    90.0
_cell_angle_beta     90.0
_cell_angle_gamma    90.47566394907695

_space_group_name_H-M_alt    "P 1"
_space_group_IT_number       1

loop_
  _space_group_symop_operation_xyz
  'x, y, z'

loop_
  _atom_site_type_symbol
  _atom_site_label
  _atom_site_symmetry_multiplicity
  _atom_site_fract_x
  _atom_site_fract_y
  _atom_site_fract_z
  _atom_site_occupancy
  K   K1        1.0  0.2709011751372756  0.6261207512637057  0.9190435290680696  1.0000
  K   K2        1.0  0.2291008289677308  0.3738812724569414  0.419042944785275  1.0000
  K   K3        1.0  0.7290987182427318  0.3738832151666003  0.080957055214725  1.0000
  K   K4        1.0  0.7709018345763354  0.6261188085540468  0.580957055214725  1.0000
  K   K5        1.0  0.2565886925567114  0.9824205013490825  0.9907981302950616  1.0000
  K   K6        1.0  0.243411903079803  0.0175815223715645  0.4907975460122671  1.0000
  K   K7        1.0  0.7434069871110438  0.0175844364360458  0.0092001168565616  1.0000
  K   K8        1.0  0.7565907721575017  0.9824195299942602  0.5092018697049383  1.0000
  K   K9        1.0  0.32989559117326916  0.7782815422283633  0.6680140227870269  1.0000
  K   K10       1.0  0.1701021407533005  0.22171659607297303  0.1680116856558556  1.0000
  K   K11       1.0  0.6701028235788299  0.22171659607297303  0.3319877300613499  1.0000
  K   K12       1.0  0.8299006864960675  0.7782970839055992  0.8319900671925211  1.0000
  H   H1        1.0  0.3702755304829708  0.5006838743038173  0.0925539000876441  1.0000
  H   H2        1.0  0.1297208163615764  0.4993162067071779  0.5925539000876441  1.0000
  H   H3        1.0  0.6297214991870987  0.4993162067071779  0.9074460999123559  1.0000
  H   H4        1.0  0.8702747931467627  0.5006829029489879  0.4074460999123559  1.0000
  H   H5        1.0  0.1784983883751039  0.4714276382646432  0.0509991235758136  1.0000
  H   H6        1.0  0.3215007637132032  0.5285714713915226  0.5509997078586011  1.0000
  H   H7        1.0  0.821501458231964  0.5285724427463521  0.949000292141399  1.0000
  H   H8        1.0  0.6784962542636351  0.4714276382646432  0.4490002921413989  1.0000
  H   H9        1.0  0.6018207140705487  0.7021603498432967  0.9898042652643895  1.0000
  H   H10       1.0  0.8981783952003184  0.2978387598128691  0.4898036809815949  1.0000
  H   H11       1.0  0.3981805410050186  0.2978397311676986  0.0101963190184051  1.0000
  H   H12       1.0  0.1018200429382574  0.702161321198119  0.5101963190184051  1.0000
  H   H13       1.0  0.5002523533916872  0.7726389420374034  0.06126906222611691  1.0000
  H   H14       1.0  0.9997481994273798  0.22736308168324368  0.5612690622261169  1.0000
  H   H15       1.0  0.49974892507034957  0.22736308168324368  0.938730937773883  1.0000
  H   H16       1.0  0.0002530790346568992  0.7726389420374034  0.4387309377738831  1.0000
  H   H17       1.0  0.16995828443010202  0.9330679052908338  0.8100671925211813  1.0000
  H   H18       1.0  0.3300423112064124  0.0669341184298133  0.3100677768039759  1.0000
  H   H19       1.0  0.830043005725173  0.0669350897846357  0.1899328074788187  1.0000
  H   H20       1.0  0.6699561152389252  0.9330649912263524  0.6899328074788188  1.0000
  H   H21       1.0  0.3721387380791441  0.8900475713508342  0.8367461291264959  1.0000
  H   H22       1.0  0.12786186925060147  0.1099554237246423  0.3367461291264959  1.0000
  H   H23       1.0  0.6278611436076318  0.1099554237246423  0.1632538708735041  1.0000
  H   H24       1.0  0.8721394209046736  0.8900475713508342  0.6632538708735041  1.0000
  C   C1        1.0  0.014395646027310199  0.3947362605960265  0.8411621384750205  1.0000
  C   C2        1.0  0.4856063229979952  0.6052628490601393  0.3411633070406097  1.0000
  C   C3        1.0  0.9856070292099942  0.6052647917697911  0.1588372772421849  1.0000
  C   C4        1.0  0.5143920917541038  0.3947352892411971  0.6588396143733561  1.0000
  C   C5        1.0  0.0166108455280067  0.2474050458319965  0.9439853929301805  1.0000
  C   C6        1.0  0.4833896799490843  0.752591149759688  0.4439912357581051  1.0000
  C   C7        1.0  0.983390374467845  0.7525921211145175  0.05600934852468241  1.0000
  C   C8        1.0  0.5166101081918058  0.24740407447716709  0.5560128542214429  1.0000
  C   C9        1.0  0.0359253135046487  0.1627077616779431  0.817991820040902  1.0000
  C   C10       1.0  0.46407382689042015  0.8372903766233932  0.3179959100204499  1.0000
  C   C11       1.0  0.9640745331024193  0.837292319333045  0.1820058428279268  1.0000
  C   C12       1.0  0.535925926170755  0.1627019335489805  0.682008179959098  1.0000
  C   C13       1.0  0.0609321956158624  0.0884894533992764  0.6894133800759548  1.0000
  C   C14       1.0  0.43906705001833046  0.9115174270955038  0.1894145486415439  1.0000
  C   C15       1.0  0.9390705380876199  0.9115164557406814  0.3105848670756615  1.0000
  C   C16       1.0  0.5609271861012175  0.0884845966251433  0.8105860356412506  1.0000
  C   C17       1.0  0.0360067486438567  0.3126820329266735  0.7079199532573739  1.0000
  C   C18       1.0  0.4639924151376817  0.6873180480843217  0.2079193689745864  1.0000
  C   C19       1.0  0.9639931681226274  0.6873238762132843  0.2920806310254136  1.0000
  C   C20       1.0  0.5360073730032084  0.3126771761525404  0.7920800467426261  1.0000
  C   C21       1.0  0.0154060083312686  0.5347104338991642  0.7342827928717526  1.0000
  C   C22       1.0  0.48459033851327143  0.4652896471118311  0.2342798714577867  1.0000
  C   C23       1.0  0.9845910798049857  0.46529450388596416  0.2657195442594187  1.0000
  C   C24       1.0  0.5154080411591124  0.5347055771250311  0.765717791411042  1.0000
  N   N1        1.0  0.02858936300436451  0.2899513586163494  0.7888279287175024  1.0000
  N   N2        1.0  0.4714111975524418  0.7100477510398164  0.2888273444347078  1.0000
  N   N3        1.0  0.9714118920712025  0.7100487223946459  0.2111720712824976  1.0000
  N   N4        1.0  0.5285885672019717  0.2899455304873868  0.7111709027169155  1.0000
  N   N5        1.0  0.0094963983810175  0.3733926809788812  0.9177592754893382  1.0000
  N   N6        1.0  0.4905069206466024  0.6266015719031444  0.4177575226409616  1.0000
  N   N7        1.0  0.9905048216148415  0.6266044859676256  0.0822424773590384  1.0000
  N   N8        1.0  0.5094956259651015  0.3733887955595705  0.5822401402278673  1.0000
  N   N9        1.0  0.028869225697278  0.1422607425662648  0.8943867952088809  1.0000
  N   N10       1.0  0.47112991469778354  0.8577373957350716  0.3943856266432988  1.0000
  N   N11       1.0  0.9711292007480522  0.8577383670899011  0.1056137890739137  1.0000
  N   N12       1.0  0.5288684766678386  0.1422587998566129  0.6056108676599479  1.0000
  N   N13       1.0  0.0516363471471166  0.063688821952276  0.7681104294478516  1.0000
  N   N14       1.0  0.4483599880041922  0.9363102877038899  0.2681127665790228  1.0000
  N   N15       1.0  0.9483635111531897  0.9363122304135415  0.2318872334209772  1.0000
  N   N16       1.0  0.5516341662627013  0.0636849365329653  0.7318878177037718  1.0000
  N   N17       1.0  0.051433351985110703  0.21214875102546674  0.6594846625766877  1.0000
  N   N18       1.0  0.4485672553446349  0.7878542440500098  0.1594846625766877  1.0000
  N   N19       1.0  0.9485679615566411  0.7878561867596616  0.3405147531405177  1.0000
  N   N20       1.0  0.5514325561827248  0.21214292289650416  0.8405147531405177  1.0000
  N   N21       1.0  0.0279340397045118  0.4337138157453992  0.6811761612620515  1.0000
  N   N22       1.0  0.472067976093733  0.5662891793300702  0.1811749926964623  1.0000
  N   N23       1.0  0.9720658536755025  0.5662901506848996  0.3188250073035377  1.0000
  N   N24       1.0  0.527936049145886  0.4337070162616072  0.8188261758691198  1.0000
  N   N25       1.0  0.007629724643607  0.5152775092270403  0.8135483494011098  1.0000
  N   N26       1.0  0.4923708476064306  0.4847225717839549  0.3135460122699385  1.0000
  N   N27       1.0  0.9923729505936905  0.48472354313877736  0.1864539877300615  1.0000
  N   N28       1.0  0.5076275437591988  0.5152736238077296  0.6864498977505136  1.0000
  O   O1        1.0  0.0096403560430218  0.6490719231197986  0.7082962313759893  1.0000
  O   O2        1.0  0.490356014187995  0.3509301006008485  0.2082921413964343  1.0000
  O   O3        1.0  0.9903581171752549  0.350931071955678  0.2917066900379766  1.0000
  O   O4        1.0  0.5096437973393648  0.6490670663456584  0.7917049371895999  1.0000
  O   O5        1.0  0.0093645850379929  0.2244985562979522  0.0166631609699124  1.0000
  O   O6        1.0  0.49063591705262877  0.7754956965840734  0.5166608238387411  1.0000
  O   O7        1.0  0.9906309543109304  0.775494725229251  0.9833380075956769  1.0000
  O   O8        1.0  0.5093666763320215  0.2244985562979522  0.48333742331288215  1.0000
  O   O9        1.0  0.07711084529535131  0.9939261992767712  0.6422827928717467  1.0000
  O   O10       1.0  0.4228926023578623  0.006078738508357201  0.142289219982473  1.0000
  O   O11       1.0  0.922893296876623  0.0060797098631795  0.3577125328659037  1.0000
  O   O12       1.0  0.5771058357807136  0.9939213425026382  0.857714869997082  1.0000
  O   O13       1.0  0.3136834922981464  0.4532001649330155  0.0470300905638297  1.0000
  O   O14       1.0  0.1863171033383679  0.5468018587876244  0.5470312591294189  1.0000
  O   O15       1.0  0.68631636600216  0.5468008874328021  0.9529693251533757  1.0000
  O   O16       1.0  0.8136813581866775  0.4532001649330155  0.4529693251533757  1.0000
  O   O17       1.0  0.5290197932888178  0.7804340645253519  0.0038071866783511  1.0000
  O   O18       1.0  0.9709807478370179  0.2195669878404729  0.5038066023955565  1.0000
  O   O19       1.0  0.4709814851732261  0.2195679591952953  0.9961928133216488  1.0000
  O   O20       1.0  0.02901909877004979  0.7804330931705223  0.49619339760444353  1.0000
  O   O21       1.0  0.24049396806419307  0.8586203572729616  0.833567046450483  1.0000
  O   O22       1.0  0.2595080477340517  0.1413826378025149  0.333567046450483  1.0000
  O   O23       1.0  0.7595059136225828  0.1413826378025149  0.166432953549517  1.0000
  O   O24       1.0  0.740496035971745  0.8586184145633027  0.666432953549517  1.0000
