data_image0
_chemical_formula_structural       Cd4H76C68N36O16
_chemical_formula_sum              "Cd4 H76 C68 N36 O16"
_cell_length_a       11.07418211234915
_cell_length_b       12.49371132011089
_cell_length_c       18.181598318032417
_cell_angle_alpha    90.00013147603416
_cell_angle_beta     89.99980284817029
_cell_angle_gamma    102.02036205668276

_space_group_name_H-M_alt    "P 1"
_space_group_IT_number       1

loop_
  _space_group_symop_operation_xyz
  'x, y, z'

loop_
  _atom_site_type_symbol
  _atom_site_label
  _atom_site_symmetry_multiplicity
  _atom_site_fract_x
  _atom_site_fract_y
  _atom_site_fract_z
  _atom_site_occupancy
  Cd  Cd1       1.0  0.1504303240028975  0.6188856171438034  0.2062676898572491  1.0000
  Cd  Cd2       1.0  0.3495581854022872  0.3811184494340552  0.7062667847028266  1.0000
  Cd  Cd3       1.0  0.8495676628979679  0.38110640469159307  0.7937332695699766  1.0000
  Cd  Cd4       1.0  0.6504317969247139  0.6188958227811484  0.2937363747774527  1.0000
  H   H1        1.0  0.6193788899590089  0.9427786043420027  0.21154752653667688  1.0000
  H   H2        1.0  0.8806125976001624  0.05722599420493418  0.7115548302079446  1.0000
  H   H3        1.0  0.3806095140836873  0.057218452632461905  0.7884473828314994  1.0000
  H   H4        1.0  0.11939208134305795  0.9427856454224751  0.2884483292548268  1.0000
  H   H5        1.0  0.6293475181172709  0.9672101115065744  0.3074928961847334  1.0000
  H   H6        1.0  0.8706474541341507  0.03278891620631441  0.8074990809788645  1.0000
  H   H7        1.0  0.3706468669156778  0.03278195214544869  0.692502013173133  1.0000
  H   H8        1.0  0.12934740492038804  0.9672195548612311  0.1925024284716415  1.0000
  H   H9        1.0  0.5209439136735341  0.12412789452100273  0.2911494268815744  1.0000
  H   H10       1.0  0.9790535546568149  0.8758735296601117  0.7911496049416016  1.0000
  H   H11       1.0  0.47905959456489466  0.8758681664297824  0.7088504325298572  1.0000
  H   H12       1.0  0.020937176409674397  0.1241292448218232  0.2088530045219059  1.0000
  H   H13       1.0  0.5084231109936822  0.09724849359510297  0.1957133640719277  1.0000
  H   H14       1.0  0.9915861780395616  0.9027583248369949  0.695714659633694  1.0000
  H   H15       1.0  0.49158812712325073  0.9027532221145833  0.8042826452894616  1.0000
  H   H16       1.0  0.008418960560582901  0.09724428235070089  0.3042879498146078  1.0000
  H   H17       1.0  0.7540614701337772  0.16155387247004427  0.28051813498285577  1.0000
  H   H18       1.0  0.7459413369916347  0.8384433627571467  0.7805137896586203  1.0000
  H   H19       1.0  0.24594990530899707  0.8384338906800577  0.719487224480119  1.0000
  H   H20       1.0  0.25405642727577776  0.16156589522005765  0.2194860697695376  1.0000
  H   H21       1.0  0.740566746855393  0.13054644440853017  0.1856073261890998  1.0000
  H   H22       1.0  0.7594327740692036  0.8694571823044939  0.685605753074725  1.0000
  H   H23       1.0  0.2594434722669731  0.8694511799113582  0.8143941832365371  1.0000
  H   H24       1.0  0.2405644120302668  0.13055700626107133  0.3143952063713513  1.0000
  H   H25       1.0  0.6297645980279897  0.2891868860875348  0.1684798138275028  1.0000
  H   H26       1.0  0.870238001156153  0.7108142047106443  0.6684728011360335  1.0000
  H   H27       1.0  0.3702441092183263  0.710808293858143  0.8315282956775363  1.0000
  H   H28       1.0  0.1297727772911799  0.28919654344442597  0.3315287082996861  1.0000
  H   H29       1.0  0.6635880761896686  0.3258349065371887  0.2617064855830336  1.0000
  H   H30       1.0  0.8364186662156855  0.6741704474645972  0.7617027841085928  1.0000
  H   H31       1.0  0.3364236215517735  0.6741577767472718  0.738301623916854  1.0000
  H   H32       1.0  0.163579216552904  0.32584291236837964  0.2383003753626767  1.0000
  H   H33       1.0  0.20798381076087946  0.8087402215061985  0.353374212825848  1.0000
  H   H34       1.0  0.2920189827308306  0.19124841528268627  0.8533714694587288  1.0000
  H   H35       1.0  0.7920113894592686  0.19125511526144828  0.646619596520516  1.0000
  H   H36       1.0  0.7079823169737054  0.8087460300214387  0.1466283899537046  1.0000
  H   H37       1.0  0.43757434280529134  0.794266660794122  0.1718118154597548  1.0000
  H   H38       1.0  0.06241668900149481  0.2057249899104789  0.6718156258286143  1.0000
  H   H39       1.0  0.5624289284138869  0.20572119645268566  0.8281880439452607  1.0000
  H   H40       1.0  0.9375839140254597  0.7942702841300218  0.328185333598519  1.0000
  H   H41       1.0  0.04219032070579939  0.3992704762256166  0.0851308597446163  1.0000
  H   H42       1.0  0.45781185671330593  0.6007421883796767  0.5851383352128394  1.0000
  H   H43       1.0  0.9578158368635529  0.6007362223632171  0.9148761497591521  1.0000
  H   H44       1.0  0.5421914288620898  0.399271108726147  0.4148719743391922  1.0000
  H   H45       1.0  0.8613406867770407  0.46450100266675065  0.2790233508845644  1.0000
  H   H46       1.0  0.638659800945547  0.5354905116444045  0.7790258876865295  1.0000
  H   H47       1.0  0.13864277407773065  0.535487084612157  0.7209787085679551  1.0000
  H   H48       1.0  0.3613542238535103  0.46450788913240615  0.22097672174906083  1.0000
  H   H49       1.0  0.965845469279351  0.005375383718700303  0.9186602533830309  1.0000
  H   H50       1.0  0.5341574452849612  0.9946254411725022  0.4186532121985493  1.0000
  H   H51       1.0  0.03416847023041205  0.9946263006321415  0.08134345606862328  1.0000
  H   H52       1.0  0.4658393000273405  0.0053797253972618  0.5813367471076347  1.0000
  H   H53       1.0  0.8702494692501545  0.9286531645106347  0.987373434430559  1.0000
  H   H54       1.0  0.6297589889768319  0.071346108085244  0.48736579296635807  1.0000
  H   H55       1.0  0.12976647499178276  0.07134931721015651  0.0126324750462459  1.0000
  H   H56       1.0  0.370240168666875  0.9286614924097664  0.5126236163326254  1.0000
  H   H57       1.0  0.9887792793133199  0.8180274891993375  0.9078164085660488  1.0000
  H   H58       1.0  0.511218491783609  0.18197419185585056  0.4078075447409617  1.0000
  H   H59       1.0  0.011227627009610306  0.1819677116499321  0.0921845508544337  1.0000
  H   H60       1.0  0.48877689340796576  0.8180400176063641  0.5921802145473904  1.0000
  H   H61       1.0  0.12798351605020034  0.893024428458858  0.9454213242923545  1.0000
  H   H62       1.0  0.3720177680366348  0.10697838227756051  0.4454159841351455  1.0000
  H   H63       1.0  0.8720264992676121  0.10697237758559201  0.05458348517273489  1.0000
  H   H64       1.0  0.6279793848664496  0.8930284208512657  0.5545745251785945  1.0000
  H   H65       1.0  0.8548166972220841  0.6133391149915469  0.1219707294788819  1.0000
  H   H66       1.0  0.6451949932082571  0.38665027740185565  0.6219686107016855  1.0000
  H   H67       1.0  0.14519749816259522  0.3866527186340535  0.8780269298913339  1.0000
  H   H68       1.0  0.35480148183488314  0.6133393000511447  0.3780317987184816  1.0000
  H   H69       1.0  0.19828732430757876  0.8108647148116649  0.0654913934648533  1.0000
  H   H70       1.0  0.3017163471370026  0.18914624729494983  0.5654770762452443  1.0000
  H   H71       1.0  0.801716880597155  0.18913051740778997  0.9345117659850786  1.0000
  H   H72       1.0  0.6982784266705123  0.8108655073277119  0.4345090330217971  1.0000
  H   H73       1.0  0.29991801551323494  0.532638116650247  0.9546697635343478  1.0000
  H   H74       1.0  0.20008060508733647  0.46736146306344745  0.4546554684587178  1.0000
  H   H75       1.0  0.7000765732735416  0.467354765299909  0.0453416460235019  1.0000
  H   H76       1.0  0.799917533584349  0.5326420460316825  0.545330640798106  1.0000
  C   C1        1.0  0.5744883799999483  0.9747913607619905  0.2579918111132358  1.0000
  C   C2        1.0  0.925506760578827  0.02521083709203249  0.757997318859843  1.0000
  C   C3        1.0  0.42550653113481474  0.025206441300468896  0.7420030982487376  1.0000
  C   C4        1.0  0.07449190415099588  0.9747984104330597  0.2420058406072698  1.0000
  C   C5        1.0  0.5669578768166659  0.09371794379195109  0.24429593748430986  1.0000
  C   C6        1.0  0.9330441633463522  0.9062898878895921  0.7442946111685131  1.0000
  C   C7        1.0  0.4330491480172967  0.9062813589086787  0.7557044719327307  1.0000
  C   C8        1.0  0.06695531657207708  0.0937226327504916  0.255706898280458  1.0000
  C   C9        1.0  0.6956082097696097  0.16405192407570723  0.23170895790611468  1.0000
  C   C10       1.0  0.8043932835022645  0.8359534239210975  0.7317039362842266  1.0000
  C   C11       1.0  0.30439489085690496  0.8359425003254658  0.7682986015975216  1.0000
  C   C12       1.0  0.1956050921590702  0.16405828889124052  0.2682937231186884  1.0000
  C   C13       1.0  0.6928497043199044  0.2831243261065167  0.2142567964980984  1.0000
  C   C14       1.0  0.8071548688543474  0.7168784852406772  0.7142543256369294  1.0000
  C   C15       1.0  0.3071576095797184  0.716872511308125  0.7857502129964473  1.0000
  C   C16       1.0  0.19284649729085146  0.283130730915488  0.2857477338140341  1.0000
  C   C17       1.0  0.2842050995173863  0.8298828985108242  0.31490228508506146  1.0000
  C   C18       1.0  0.2157907537521311  0.17012050462025025  0.814902416809197  1.0000
  C   C19       1.0  0.7157920201484559  0.17011651919955278  0.6850937242892172  1.0000
  C   C20       1.0  0.7842118872428259  0.8298829522092958  0.18509579258920184  1.0000
  C   C21       1.0  0.3994093412567423  0.8205298459426088  0.22215728550759908  1.0000
  C   C22       1.0  0.10058800614914527  0.1794774360657385  0.7221615233982277  1.0000
  C   C23       1.0  0.6005855698752073  0.17946795612110833  0.7778387238676814  1.0000
  C   C24       1.0  0.8994181514371108  0.8205292625155352  0.2778388860257266  1.0000
  C   C25       1.0  0.9742165301792481  0.3939572214589688  0.1288213092234471  1.0000
  C   C26       1.0  0.525783196370213  0.606049558713451  0.6288291467855628  1.0000
  C   C27       1.0  0.025778499445415486  0.6060446824642938  0.8711813002348521  1.0000
  C   C28       1.0  0.47421747307767964  0.39396048618790047  0.3711817127732147  1.0000
  C   C29       1.0  0.8868259310929291  0.4286809144215198  0.2280239284216776  1.0000
  C   C30       1.0  0.6131795572915025  0.571318634450016  0.7280265767300094  1.0000
  C   C31       1.0  0.11317316006784493  0.571311915240358  0.7719797810382971  1.0000
  C   C32       1.0  0.3868289461714056  0.4286757272107735  0.2719765827147214  1.0000
  C   C33       1.0  0.9666218547502295  0.9610870268360401  0.9707626091495386  1.0000
  C   C34       1.0  0.5333848023543196  0.0389155121798836  0.47075401650727133  1.0000
  C   C35       1.0  0.0333927814357011  0.0389138287790587  0.0292405502940554  1.0000
  C   C36       1.0  0.4666143552978354  0.9610920883113392  0.5292320927518119  1.0000
  C   C37       1.0  0.02877253690932234  0.8652888901816523  0.9559127823603717  1.0000
  C   C38       1.0  0.47123299198876384  0.13471307403501237  0.45590562977621124  1.0000
  C   C39       1.0  0.9712358812642848  0.1347087550531612  0.0440914771004159  1.0000
  C   C40       1.0  0.5287654689787687  0.865295355195741  0.5440843295308326  1.0000
  C   C41       1.0  0.9262175532707673  0.6724868917998917  0.0940815156296537  1.0000
  C   C42       1.0  0.5737889104468864  0.3275098848447655  0.5940783500485267  1.0000
  C   C43       1.0  0.0737909501977754  0.32750746985837503  0.905919443788477  1.0000
  C   C44       1.0  0.426204403540858  0.6724887564093223  0.4059171093224521  1.0000
  C   C45       1.0  0.10035189657457977  0.7749431877925373  0.06774759396297719  1.0000
  C   C46       1.0  0.399651763301179  0.22506777948836995  0.5677369803581769  1.0000
  C   C47       1.0  0.8996551614712588  0.22506350033788894  0.9322572155132391  1.0000
  C   C48       1.0  0.6003421953163226  0.7749407020199397  0.43225132893365986  1.0000
  C   C49       1.0  0.5412385237351102  0.5334072885131532  0.0712042785181666  1.0000
  C   C50       1.0  0.9587557396830632  0.46658711679696546  0.571200533877402  1.0000
  C   C51       1.0  0.45875652473254297  0.46657656098656725  0.9287972309121387  1.0000
  C   C52       1.0  0.04123556957251399  0.5334107270871583  0.4287927254684192  1.0000
  C   C53       1.0  0.4268917291586191  0.5517133446395589  0.0460938593056994  1.0000
  C   C54       1.0  0.073108169521575  0.448282025721376  0.5460870413566142  1.0000
  C   C55       1.0  0.5731108974420849  0.4482646723479887  0.953908750125251  1.0000
  C   C56       1.0  0.926887964392577  0.5517206860151377  0.4539067679947735  1.0000
  C   C57       1.0  0.3878273785399741  0.5185494120665766  0.975138707689503  1.0000
  C   C58       1.0  0.11216570111517397  0.4814428918741385  0.4751350694741348  1.0000
  C   C59       1.0  0.6121664471454764  0.48142952776034775  0.024865001764695204  1.0000
  C   C60       1.0  0.8878299399231369  0.5185614668754469  0.5248576398658074  1.0000
  C   C61       1.0  0.5898984937637907  0.5689015213770644  0.1462334137692238  1.0000
  C   C62       1.0  0.9101081435759966  0.43110439675595563  0.6462302632110806  1.0000
  C   C63       1.0  0.4101132039917417  0.4310911619010939  0.8537691956641567  1.0000
  C   C64       1.0  0.08987506143768091  0.5688935412330665  0.353764646163242  1.0000
  C   C65       1.0  0.3416667752314382  0.6021772558913269  0.0932829100540857  1.0000
  C   C66       1.0  0.15833206649834608  0.39781494948530133  0.5932758318717433  1.0000
  C   C67       1.0  0.658344685499216  0.39780722368537613  0.9067218993994786  1.0000
  C   C68       1.0  0.841647010525868  0.6021772919187425  0.4067207275222273  1.0000
  N   N1        1.0  0.45425895514650694  0.9025344800662932  0.2665362314394102  1.0000
  N   N2        1.0  0.045725321267461504  0.0974648463191272  0.7665448508322967  1.0000
  N   N3        1.0  0.5457362782982073  0.09746824212547979  0.7334570279062689  1.0000
  N   N4        1.0  0.9542629974591749  0.9025354942413415  0.2334616086783043  1.0000
  N   N5        1.0  0.3816600012594833  0.9103751804150876  0.32619883519056  1.0000
  N   N6        1.0  0.1183348936499726  0.08962825906346689  0.8262039899727611  1.0000
  N   N7        1.0  0.6183341279140535  0.08962673395524232  0.6737960741755771  1.0000
  N   N8        1.0  0.8816665577774642  0.9103776735218148  0.1737997194953991  1.0000
  N   N9        1.0  0.29050588525025484  0.7734977839649702  0.2512422628737241  1.0000
  N   N10       1.0  0.20948616617879878  0.22649977670732113  0.7512457994420245  1.0000
  N   N11       1.0  0.7094868173449811  0.22649840245334465  0.7487548465158581  1.0000
  N   N12       1.0  0.7905193467946179  0.7734970816121703  0.2487551599812576  1.0000
  N   N13       1.0  0.8146784552073071  0.34385388817003804  0.1933185152606569  1.0000
  N   N14       1.0  0.6853279076603868  0.6561447524395375  0.6933211505381109  1.0000
  N   N15       1.0  0.1853207212371187  0.6561356579203376  0.806686294209868  1.0000
  N   N16       1.0  0.31468524988532914  0.3438610442204393  0.306683658931  1.0000
  N   N17       1.0  0.868580056826957  0.3201743577470849  0.12967607006399362  1.0000
  N   N18       1.0  0.6314253572554237  0.6798298963531125  0.6296821565882526  1.0000
  N   N19       1.0  0.1314233661179571  0.6798249867796216  0.8703265393834486  1.0000
  N   N20       1.0  0.36857121743179994  0.3201818373855048  0.3703281529695275  1.0000
  N   N21       1.0  0.9894755784778583  0.4620028380751577  0.1883364682442519  1.0000
  N   N22       1.0  0.5105259331796503  0.5380015922691469  0.6883436771286924  1.0000
  N   N23       1.0  0.01051564546447283  0.5379982893937055  0.8116672412307012  1.0000
  N   N24       1.0  0.4894862053855887  0.4620001129947298  0.3116611323381591  1.0000
  N   N25       1.0  0.015932853441590667  0.7897963847334781  0.0178345907269062  1.0000
  N   N26       1.0  0.4840753274781093  0.2102062121953096  0.5178292764998247  1.0000
  N   N27       1.0  0.9840725742523945  0.21020375715562514  0.9821636186658794  1.0000
  N   N28       1.0  0.5159253087973569  0.7897964472586025  0.4821617828135559  1.0000
  N   N29       1.0  0.9039043693386615  0.7249110747736934  0.0336050502436009  1.0000
  N   N30       1.0  0.5961025747867764  0.2750789961483093  0.5336050528424181  1.0000
  N   N31       1.0  0.09610131422319058  0.2750792163933227  0.9663898591010067  1.0000
  N   N32       1.0  0.40389753536855727  0.724917924903366  0.46639315655331604  1.0000
  N   N33       1.0  0.04618033083642811  0.7012570556378109  0.11725368938690649  1.0000
  N   N34       1.0  0.4538192697178189  0.29875324863167657  0.6172447322638986  1.0000
  N   N35       1.0  0.9538231253259966  0.29874967431617694  0.8827511200931113  1.0000
  N   N36       1.0  0.5461699827450842  0.7012544668787513  0.3827452270521974  1.0000
  O   O1        1.0  0.27504044350531126  0.5354946951747763  0.1390902294637968  1.0000
  O   O2        1.0  0.22495790768037685  0.464507465885525  0.6390820203078889  1.0000
  O   O3        1.0  0.7249748561181377  0.46449794628675534  0.8609184300389359  1.0000
  O   O4        1.0  0.7750189087254853  0.5354938288788419  0.3609227891955626  1.0000
  O   O5        1.0  0.3347688708489541  0.6999190920415898  0.0830506729498524  1.0000
  O   O6        1.0  0.16523382898426317  0.30007386634351  0.5830434215036036  1.0000
  O   O7        1.0  0.6652604287145536  0.30007174556789096  0.916958536543433  1.0000
  O   O8        1.0  0.8347337789141562  0.6999267147017959  0.4169624880222003  1.0000
  O   O9        1.0  0.5405327998941941  0.637516964516621  0.1816896998928144  1.0000
  O   O10       1.0  0.9594688975544515  0.3624989378714504  0.6816951347155822  1.0000
  O   O11       1.0  0.4594758221022844  0.36248149898544557  0.8183041094420674  1.0000
  O   O12       1.0  0.040521492360518524  0.6375169709040803  0.3183096747855529  1.0000
  O   O13       1.0  0.6780048560375108  0.5293007668004678  0.1724422063986495  1.0000
  O   O14       1.0  0.8219854385702235  0.4707053995863858  0.6724310543623631  1.0000
  O   O15       1.0  0.3219903441629128  0.47069456997599707  0.8275593030408288  1.0000
  O   O16       1.0  0.17798471906997554  0.5292836627867744  0.32755065485877577  1.0000
