data_image0
_chemical_formula_structural       La2H40C40N4Cl12O18
_chemical_formula_sum              "La2 H40 C40 N4 Cl12 O18"
_cell_length_a       10.08142905566877
_cell_length_b       13.051729219103082
_cell_length_c       13.6696
_cell_angle_alpha    97.09452331708759
_cell_angle_beta     109.89565857884004
_cell_angle_gamma    95.58029731481852

_space_group_name_H-M_alt    "P 1"
_space_group_IT_number       1

loop_
  _space_group_symop_operation_xyz
  'x, y, z'

loop_
  _atom_site_type_symbol
  _atom_site_label
  _atom_site_symmetry_multiplicity
  _atom_site_fract_x
  _atom_site_fract_y
  _atom_site_fract_z
  _atom_site_occupancy
  La  La1       1.0  0.0329524257058296  0.11534250222436532  0.1389383898885228  1.0000
  La  La2       1.0  0.9670450547154346  0.8846561280268048  0.8610614746169175  1.0000
  H   H1        1.0  0.4087164609799956  0.4096838933125824  0.2852857564196399  1.0000
  H   H2        1.0  0.5912846617833054  0.5903170794573924  0.714714566929281  1.0000
  H   H3        1.0  0.3555297900596912  0.2811787779657564  0.30489060624812947  1.0000
  H   H4        1.0  0.6444723875884151  0.7188221948042113  0.6951092503053147  1.0000
  H   H5        1.0  0.3966165204911292  0.3896053838606761  0.4087123044895762  1.0000
  H   H6        1.0  0.6033846022721647  0.6103955889092987  0.5912872873090507  1.0000
  H   H7        1.0  0.2563046298385956  0.5740826433519857  0.4434552039006121  1.0000
  H   H8        1.0  0.7436944826646866  0.4259136443803939  0.5565484517366387  1.0000
  H   H9        1.0  0.22737236224523372  0.6326518600031577  0.3284022003705545  1.0000
  H   H10       1.0  0.7726302333708831  0.3673459894084132  0.6716039767179751  1.0000
  H   H11       1.0  0.3650062185961572  0.5552214628351138  0.3652114372239126  1.0000
  H   H12       1.0  0.6349932123655223  0.44477638657646423  0.6347939456001583  1.0000
  H   H13       1.0  0.9491908381611297  0.4246283824002361  0.1880551420039964  1.0000
  H   H14       1.0  0.05081191668418231  0.575370247850941  0.8119445831749346  1.0000
  H   H15       1.0  0.996823357586159  0.5627440715330891  0.23487482947386687  1.0000
  H   H16       1.0  0.0031772874895353007  0.437254558718088  0.7651243661954226  1.0000
  H   H17       1.0  0.9573098564875409  0.4769461972208191  0.31717813674455186  1.0000
  H   H18       1.0  0.0426885195893334  0.5230516521907589  0.6828203973719911  1.0000
  H   H19       1.0  0.6900012226342086  0.2821727867754475  0.09636913534912847  1.0000
  H   H20       1.0  0.3099973723914573  0.717831309352924  0.9036301903574753  1.0000
  H   H21       1.0  0.7006178942861608  0.3491235356836313  0.22109528292292416  1.0000
  H   H22       1.0  0.2993826512799274  0.6508797796051341  0.7789044402502086  1.0000
  H   H23       1.0  0.547969199578823  0.2562083084253359  0.14464364941723326  1.0000
  H   H24       1.0  0.45202939544685006  0.7437957877030286  0.8553542131887754  1.0000
  H   H25       1.0  0.5918392208901083  0.2736491417113953  0.3200301415699585  1.0000
  H   H26       1.0  0.40816132467598015  0.7263541735773771  0.679968850052873  1.0000
  H   H27       1.0  0.6612815635725156  0.2094328930793452  0.430137780800962  1.0000
  H   H28       1.0  0.3387188227643705  0.790569641369828  0.5698603472284631  1.0000
  H   H29       1.0  0.5129238891198329  0.1448801025800748  0.31711749463082134  1.0000
  H   H30       1.0  0.48707860698667826  0.8551224318690984  0.6828804313579369  1.0000
  H   H31       1.0  0.7347831120429902  0.9961732970550586  0.29200824768967243  1.0000
  H   H32       1.0  0.2652151645242782  0.0038292373941076  0.7079908139307136  1.0000
  H   H33       1.0  0.7707798617983954  0.0671654797979429  0.42089351549979875  1.0000
  H   H34       1.0  0.2292197881120899  0.9328386163304216  0.5791053434113281  1.0000
  H   H35       1.0  0.8975189041568399  0.0829220420686951  0.358077100283225  1.0000
  H   H36       1.0  0.1024834327204616  0.9170797115408789  0.6419221567630302  1.0000
  H   H37       1.0  0.0060149693280066915  0.9623887101197113  0.2770946232278888  1.0000
  H   H38       1.0  0.9939921642857429  0.037610700971058  0.7229033668122256  1.0000
  H   H39       1.0  0.9775939645465357  0.8739586255187958  0.17694614058736846  1.0000
  H   H40       1.0  0.0224137462644265  0.1260384430531829  0.8230546442794378  1.0000
  C   C1        1.0  0.9972464658682302  0.2768989961229522  0.9353712947633568  1.0000
  C   C2        1.0  0.0027564482062842686  0.7231004149678171  0.06462929400898076  1.0000
  C   C3        1.0  0.9980499234504805  0.39217278446260195  0.9703565878524927  1.0000
  C   C4        1.0  0.0019520949684306065  0.6078274074677736  0.029646794409345006  1.0000
  C   C5        1.0  0.1278211993455116  0.4590267092604918  0.02000700704099501  1.0000
  C   C6        1.0  0.8721817147290027  0.5409727018302775  0.9799965079325546  1.0000
  C   C7        1.0  0.8703231867360159  0.4337368763240264  0.9506841874178633  1.0000
  C   C8        1.0  0.1296776175688805  0.5662625347667429  0.0493187980460448  1.0000
  C   C9        1.0  0.2209909387986144  0.0566702147461058  0.3858075844428512  1.0000
  C   C10       1.0  0.7790065416226498  0.9433284155050714  0.6141922800625893  1.0000
  C   C11       1.0  0.36556361092795703  0.0283358882126521  0.44672120518460906  1.0000
  C   C12       1.0  0.6344362977213295  0.9716643037177235  0.553280916017286  1.0000
  C   C13       1.0  0.4724338934214956  0.1009594368084805  0.5236859494861933  1.0000
  C   C14       1.0  0.527565537540184  0.8990384126030904  0.47631650713667983  1.0000
  C   C15       1.0  0.6065280973843841  0.073342701866622  0.5757168870471149  1.0000
  C   C16       1.0  0.39347197049410454  0.9266582709033457  0.4242875608488035  1.0000
  C   C17       1.0  0.7306385129345827  0.9268136579835726  0.941132196455854  1.0000
  C   C18       1.0  0.2693587087478804  0.0731888764656006  0.058865868859413716  1.0000
  C   C19       1.0  0.6094442694325863  0.962188815182337  0.9711382965307891  1.0000
  C   C20       1.0  0.39055231533306783  0.0378105959084394  0.028860703712638325  1.0000
  C   C21       1.0  0.5672829008574141  0.9197868824310474  0.04700826888650774  1.0000
  C   C22       1.0  0.43270866822300047  0.0802086244617328  0.9529875490214863  1.0000
  C   C23       1.0  0.5408319869847915  0.04106825871598829  0.9233843084142351  1.0000
  C   C24       1.0  0.4591620103236452  0.9589288098559906  0.07661376619022779  1.0000
  C   C25       1.0  0.1932341700810909  0.3766028428560446  0.2811919148272111  1.0000
  C   C26       1.0  0.8067701173366331  0.6233981299139302  0.7188055450346625  1.0000
  C   C27       1.0  0.3484943441890422  0.3638829657862956  0.32294745631555344  1.0000
  C   C28       1.0  0.6515076742298618  0.63611722614408  0.6770522681947782  1.0000
  C   C29       1.0  0.2568115925819043  0.5627877985506373  0.3622708442477532  1.0000
  C   C30       1.0  0.74318767915058  0.4372092700213415  0.6377336749829113  1.0000
  C   C31       1.0  0.005922894077450304  0.4849950918085995  0.2569307216437764  1.0000
  C   C32       1.0  0.9940777509982439  0.5150035384425777  0.7430692055758216  1.0000
  C   C33       1.0  0.7391017948017479  0.1888975924619558  0.21713394683121123  1.0000
  C   C34       1.0  0.2608955861099105  0.8111057228268166  0.782862055876258  1.0000
  C   C35       1.0  0.6642105890383193  0.2740161363229845  0.16685176339895944  1.0000
  C   C36       1.0  0.33578995652776916  0.7259871789657879  0.8331472282238792  1.0000
  C   C37       1.0  0.6143339962343006  0.1984199313732873  0.3437153506431869  1.0000
  C   C38       1.0  0.38566670856098983  0.8015841647550844  0.6562830414724559  1.0000
  C   C39       1.0  0.7833518260236688  0.0709306883449301  0.34495795348480135  1.0000
  C   C40       1.0  0.2166499336564272  0.9290734077834414  0.6550407033856586  1.0000
  N   N1        1.0  0.15612025773961594  0.4721128001022308  0.2970987062149817  1.0000
  N   N2        1.0  0.8438793324512731  0.5278858301489393  0.7029024193503944  1.0000
  N   N3        1.0  0.7147599757582839  0.15688004553942392  0.2997359796687604  1.0000
  N   N4        1.0  0.285241783921812  0.8431240505889407  0.7002619456513984  1.0000
  Cl  Cl1       1.0  0.2852584725601091  0.4081807770842616  0.043931809581024994  1.0000
  Cl  Cl2       1.0  0.7147424909739899  0.5918194148461069  0.9560735025768992  1.0000
  Cl  Cl3       1.0  0.7103795040041733  0.3516620452203867  0.8898399488942348  1.0000
  Cl  Cl4       1.0  0.289621141071521  0.6483365850307834  0.11016070987565742  1.0000
  Cl  Cl5       1.0  0.4369112728535783  0.2250684252122284  0.5554498484352095  1.0000
  Cl  Cl6       1.0  0.5630931140737517  0.7749278625201513  0.4445558625264426  1.0000
  Cl  Cl7       1.0  0.7397794862067641  0.16362962303426798  0.6682542198888016  1.0000
  Cl  Cl8       1.0  0.2602184121825033  0.8363658838585125  0.3317578175541414  1.0000
  Cl  Cl9       1.0  0.646463780764293  0.8197777274147029  0.10214675355626925  1.0000
  Cl  Cl10      1.0  0.3535215585168672  0.1802130944404823  0.8978418274668627  1.0000
  Cl  Cl11      1.0  0.5902433285554737  0.0885230045132133  0.8271924665204794  1.0000
  Cl  Cl12      1.0  0.40975172363776846  0.9114740640587584  0.17280733593940312  1.0000
  O   O1        1.0  0.9815536974349399  0.2152868475539904  0.997010560069313  1.0000
  O   O2        1.0  0.018438986249883303  0.7847141252159844  0.0029934976434731046  1.0000
  O   O3        1.0  0.012592482646375908  0.2526156654297651  0.848504883185278  1.0000
  O   O4        1.0  0.987418711277414  0.7473829648214121  0.1515028124346216  1.0000
  O   O5        1.0  0.2190278664239997  0.1094198338650045  0.312584239967137  1.0000
  O   O6        1.0  0.7809761025353199  0.8905795772257719  0.687414418909121  1.0000
  O   O7        1.0  0.11685058314955651  0.0223936988633113  0.4087323961411613  1.0000
  O   O8        1.0  0.883148847812123  0.9776041505482667  0.5912656711799045  1.0000
  O   O9        1.0  0.8512323290563658  0.9873763581313142  0.980000788028278  1.0000
  O   O10       1.0  0.1487674203637184  0.0126230529594551  0.0200063219826205  1.0000
  O   O11       1.0  0.7100996470236042  0.843495730238125  0.8776803738340035  1.0000
  O   O12       1.0  0.2898884588735697  0.15651383176744096  0.12230672216714572  1.0000
  O   O13       1.0  0.0987492033635178  0.299695608219416  0.2312152515409238  1.0000
  O   O14       1.0  0.901254029169401  0.7003053645505588  0.7687790173649276  1.0000
  O   O15       1.0  0.8248659905612783  0.1476528639965693  0.18069277935437353  1.0000
  O   O16       1.0  0.17512864366396033  0.8523473279338063  0.8193007025704163  1.0000
  O   O17       1.0  0.9729440592994297  0.9496555587767829  0.19900448150197286  1.0000
  O   O18       1.0  0.027064865625540304  0.050342290634795  0.8009930424112568  1.0000
