data_image0
_chemical_formula_structural       Zn2H68C56N22O8
_chemical_formula_sum              "Zn2 H68 C56 N22 O8"
_cell_length_a       10.9440893773507
_cell_length_b       16.35859104104651
_cell_length_c       17.484215792991883
_cell_angle_alpha    89.90813555687048
_cell_angle_beta     90.6147943043492
_cell_angle_gamma    91.21739850689785

_space_group_name_H-M_alt    "P 1"
_space_group_IT_number       1

loop_
  _space_group_symop_operation_xyz
  'x, y, z'

loop_
  _atom_site_type_symbol
  _atom_site_label
  _atom_site_symmetry_multiplicity
  _atom_site_fract_x
  _atom_site_fract_y
  _atom_site_fract_z
  _atom_site_occupancy
  Zn  Zn1       1.0  0.5202462447496146  0.4149669230744096  0.5115281512740637  1.0000
  Zn  Zn2       1.0  0.5261759952388729  0.5847970744811376  0.49991193322148325  1.0000
  H   H1        1.0  0.415896066826889  0.2870429423584327  0.6113138703882441  1.0000
  H   H2        1.0  0.9394103988843411  0.17051149740593272  0.4269103137020522  1.0000
  H   H3        1.0  0.07239288854798791  0.10829718150201732  0.4230771959441597  1.0000
  H   H4        1.0  0.0784490883923894  0.21112574119116095  0.3895009128809477  1.0000
  H   H5        1.0  0.21962904447282477  0.7857569665958695  0.5348977727454951  1.0000
  H   H6        1.0  0.017559890364317706  0.9012405731357662  0.5117230387498071  1.0000
  H   H7        1.0  0.1489817611393747  0.9079816387552028  0.5715863547748015  1.0000
  H   H8        1.0  0.023550839527764805  0.8421684199558116  0.5972733652617495  1.0000
  H   H9        1.0  0.958362256714686  0.18975160128935903  0.6463477143430225  1.0000
  H   H10       1.0  0.8062932682995624  0.156272036659189  0.5384406929733103  1.0000
  H   H11       1.0  0.7195743677272473  0.23521113231831242  0.5796304714311021  1.0000
  H   H12       1.0  0.4128810830084362  0.7023804389320107  0.3940894794442045  1.0000
  H   H13       1.0  0.7497750565301047  0.14589744647214087  0.6339434548188835  1.0000
  H   H14       1.0  0.7912461719785283  0.33415824633423336  0.6668864265680696  1.0000
  H   H15       1.0  0.7354740915510688  0.45282304462438117  0.7258982376370755  1.0000
  H   H16       1.0  0.7995496815401566  0.5149129687209495  0.6537214281682466  1.0000
  H   H17       1.0  0.8983546752009702  0.4648648104592041  0.7197559780556091  1.0000
  H   H18       1.0  0.31614531359312537  0.6358220966640715  0.5566550025635308  1.0000
  H   H19       1.0  0.14702094582541747  0.7039244342549152  0.6689696049679484  1.0000
  H   H20       1.0  0.2956986955898627  0.6639940739211313  0.6860033812224061  1.0000
  H   H21       1.0  0.17042965357587997  0.5966227121823026  0.6624890546691162  1.0000
  H   H22       1.0  0.23595729407267638  0.26811999357294525  0.4503080278593288  1.0000
  H   H23       1.0  0.6069289995689359  0.2919722049573252  0.4082823066476777  1.0000
  H   H24       1.0  0.3034576532985511  0.3469418685547652  0.3444428160305293  1.0000
  H   H25       1.0  0.21916550145981256  0.43095490073196885  0.3753680116679378  1.0000
  H   H26       1.0  0.1395030258319991  0.3456267787738626  0.33447493859594607  1.0000
  H   H27       1.0  0.7717976606779685  0.5722935095283432  0.397161903941516  1.0000
  H   H28       1.0  0.7004029120473803  0.7200827514030053  0.34366093276998555  1.0000
  H   H29       1.0  0.7256755486055653  0.6326297257317749  0.2874928864259303  1.0000
  H   H30       1.0  0.8453891166780634  0.7079668236939441  0.2999631497140669  1.0000
  H   H31       1.0  0.6478972582715555  0.3666870039385658  0.11380592853699062  1.0000
  H   H32       1.0  0.564591583535659  0.40771467147542517  0.0389748700243473  1.0000
  H   H33       1.0  0.6377586580067102  0.6234123926779349  0.9014847513202184  1.0000
  H   H34       1.0  0.622543673056981  0.7179793879033551  0.5921607629690726  1.0000
  H   H35       1.0  0.5311303914273039  0.6042823454055933  0.9678667747146007  1.0000
  H   H36       1.0  0.24677725132056588  0.3405658882697935  0.8395751863054244  1.0000
  H   H37       1.0  0.24297393498520853  0.3924928910690397  0.9226397892888586  1.0000
  H   H38       1.0  0.24295231652418886  0.5917645268697314  0.08882784272895348  1.0000
  H   H39       1.0  0.2402434863858005  0.640494769371081  0.1740678339366184  1.0000
  H   H40       1.0  0.7246330639188726  0.41696036951648097  0.22903353411443564  1.0000
  H   H41       1.0  0.6480252327253878  0.3935865924876722  0.307213174935626  1.0000
  H   H42       1.0  0.5952961788928306  0.6764385118013864  0.7877923873769177  1.0000
  H   H43       1.0  0.5923790487197138  0.6324769201927796  0.7011993182519802  1.0000
  H   H44       1.0  0.21198331647728  0.3929136696212652  0.7230113323899872  1.0000
  H   H45       1.0  0.9979891949531774  0.8324679134822547  0.4077122972329832  1.0000
  H   H46       1.0  0.31457514425714084  0.4079204424802541  0.6545123780616464  1.0000
  H   H47       1.0  0.3229165388819126  0.5775191664478713  0.3570624011889407  1.0000
  H   H48       1.0  0.2170496600328633  0.5834474723655133  0.288422064363111  1.0000
  H   H49       1.0  0.36146240289012593  0.0627452550647547  0.6073729818260746  1.0000
  H   H50       1.0  0.2640095053447311  0.1152139422825087  0.7125003305580294  1.0000
  H   H51       1.0  0.23132765646190734  0.19755931233484605  0.647951605338875  1.0000
  H   H52       1.0  0.3592084690093812  0.20466414574594446  0.7112679874074601  1.0000
  H   H53       1.0  0.3528370833077687  0.9238152646088126  0.38641811893155886  1.0000
  H   H54       1.0  0.252305016240129  0.8609758486369474  0.28465450346485  1.0000
  H   H55       1.0  0.221163086767561  0.7849249804625559  0.35612307724063913  1.0000
  H   H56       1.0  0.8312886414599702  0.8478914840078743  0.5038095288135622  1.0000
  H   H57       1.0  0.34573497621776983  0.7735972033489987  0.2924015400431301  1.0000
  H   H58       1.0  0.5999485582661707  0.0670111127180988  0.38302538662834007  1.0000
  H   H59       1.0  0.6997347277498562  0.12542623939818043  0.28039363589184774  1.0000
  H   H60       1.0  0.7571158827145295  0.19999222170010006  0.3466208227008991  1.0000
  H   H61       1.0  0.6200560721781159  0.21788621573005432  0.2938165655814445  1.0000
  H   H62       1.0  0.6117211955281191  0.9440050213726893  0.6044522133410198  1.0000
  H   H63       1.0  0.7711020876012357  0.8157346380715467  0.6436322332261142  1.0000
  H   H64       1.0  0.6418521792612211  0.8036241321063003  0.7042801663542164  1.0000
  H   H65       1.0  0.7281906337531652  0.8969340880592046  0.705206135841344  1.0000
  H   H66       1.0  0.7429228930003048  0.783448290616022  0.4425247720821162  1.0000
  H   H67       1.0  0.7930355484956308  0.8807579819971281  0.4088088425596794  1.0000
  H   H68       1.0  0.0478451996270337  0.1582197499314262  0.5494790127117426  1.0000
  C   C1        1.0  0.492685250587364  0.5069560914362299  0.6527726514755656  1.0000
  C   C2        1.0  0.560768451328677  0.8373290467425749  0.5529933449927854  1.0000
  C   C3        1.0  0.45296383378659033  0.25064162306664883  0.5653302417145056  1.0000
  C   C4        1.0  0.4531925774672843  0.7430327409887031  0.4370759534802745  1.0000
  C   C5        1.0  0.5613209385427992  0.2533438859479347  0.450262279043983  1.0000
  C   C6        1.0  0.5703342924152253  0.7519493664039915  0.5500140272210743  1.0000
  C   C7        1.0  0.49162357675184143  0.12271793527633432  0.5006861727012719  1.0000
  C   C8        1.0  0.4930585749472485  0.8762921838638678  0.4937323139167162  1.0000
  C   C9        1.0  0.4852782412667053  0.03690487831360661  0.4973114918583192  1.0000
  C   C10       1.0  0.48468143721955664  0.9619031388120124  0.4937778622112035  1.0000
  C   C11       1.0  0.7565161406555915  0.5045069361284646  0.5124162500754537  1.0000
  C   C12       1.0  0.5115483804651432  0.4930715427966277  0.3573311897603376  1.0000
  C   C13       1.0  0.2844860147418943  0.49864077917512645  0.5037123181555785  1.0000
  C   C14       1.0  0.9047250960004404  0.37262447277405647  0.586812223940264  1.0000
  C   C15       1.0  0.14185585260592856  0.6558084267218053  0.5192793642275149  1.0000
  C   C16       1.0  0.1156894083099047  0.3446004918464426  0.4957888517047522  1.0000
  C   C17       1.0  0.9105185547801894  0.6431668113557408  0.4407401387641415  1.0000
  C   C18       1.0  0.9527543550943206  0.2939522051319017  0.5808886020513528  1.0000
  C   C19       1.0  0.08066914104432499  0.725148100341869  0.4936248728427728  1.0000
  C   C20       1.0  0.04852944357985929  0.2793010283187273  0.5285947332943692  1.0000
  C   C21       1.0  0.9707810434995493  0.7193470662617829  0.4485855132820404  1.0000
  C   C22       1.0  0.07894722244431308  0.42640565469546493  0.5123748739004981  1.0000
  C   C23       1.0  0.41380865206452455  0.49302218683521903  0.1198255308262475  1.0000
  C   C24       1.0  0.9597799267922795  0.574467183861465  0.4844574539553578  1.0000
  C   C25       1.0  0.9559651457617591  0.4359148684384736  0.5392903111485694  1.0000
  C   C26       1.0  0.0890092026870093  0.5770845010782182  0.502869307055029  1.0000
  C   C27       1.0  0.1493977098861308  0.5007538012758419  0.5054470812580192  1.0000
  C   C28       1.0  0.8938425995255201  0.5062926787466465  0.5127348117055491  1.0000
  C   C29       1.0  0.5108450369693144  0.4432377967378329  0.1459646981025671  1.0000
  C   C30       1.0  0.48633657533844843  0.5621873668070166  0.8625241902533105  1.0000
  C   C31       1.0  0.3366109736610525  0.450520438100071  0.838646508957041  1.0000
  C   C32       1.0  0.34685267492822897  0.540327597820337  0.17181140552997223  1.0000
  C   C33       1.0  0.5434575727088671  0.444639526303213  0.22385056756728974  1.0000
  C   C34       1.0  0.3995584099917551  0.5039064482740232  0.8899108442192087  1.0000
  C   C35       1.0  0.5119479404061168  0.5653422377844636  0.7842210646497849  1.0000
  C   C36       1.0  0.3654380110710491  0.4518164346849645  0.7604190150408955  1.0000
  C   C37       1.0  0.3770640236463477  0.5396536023422129  0.2502090222736157  1.0000
  C   C38       1.0  0.4768707875406832  0.4929602112827426  0.2744033638892631  1.0000
  C   C39       1.0  0.4556075728789608  0.5078743088352767  0.7346265765394051  1.0000
  C   C40       1.0  0.819239451816422  0.8277789511567806  0.44363391788952816  1.0000
  C   C41       1.0  0.0401027843957351  0.1704502527383198  0.43348493724688103  1.0000
  C   C42       1.0  0.0783047712401128  0.8656447839288647  0.5487924885222242  1.0000
  C   C43       1.0  0.7887286426739165  0.1893436885737287  0.5922780674415763  1.0000
  C   C44       1.0  0.8122547084729702  0.45855934824177785  0.6863876160162121  1.0000
  C   C45       1.0  0.39048939399228993  0.49733216037954986  0.04030151709213211  1.0000
  C   C46       1.0  0.2121776367634212  0.657534646484237  0.6509888753585287  1.0000
  C   C47       1.0  0.21805331072285838  0.3639823416981259  0.37175257867052386  1.0000
  C   C48       1.0  0.7698351911295019  0.6753771157754971  0.3279482272939873  1.0000
  C   C49       1.0  0.3046652534307909  0.16220723271519694  0.6753258576327497  1.0000
  C   C50       1.0  0.29395938686349143  0.8182873241578648  0.325125272572734  1.0000
  C   C51       1.0  0.6732120802018998  0.170487411653923  0.323095691427291  1.0000
  C   C52       1.0  0.692853977585912  0.8476393935344931  0.6682879773266422  1.0000
  C   C53       1.0  0.38520461108605275  0.49682531329743546  0.9700234963436075  1.0000
  C   C54       1.0  0.43957627680741496  0.16497551156031423  0.563137871015023  1.0000
  C   C55       1.0  0.43782517727616  0.8282428094951868  0.4344959699219828  1.0000
  C   C56       1.0  0.5532940933680237  0.16788725121656262  0.4424436252814843  1.0000
  N   N1        1.0  0.5124415759000485  0.2913185903767612  0.5100364594202489  1.0000
  N   N2        1.0  0.813165282902922  0.6278826172352084  0.3926257490584106  1.0000
  N   N3        1.0  0.5708007273127861  0.3936461848485777  0.09530926246664963  1.0000
  N   N4        1.0  0.5463993653368675  0.6179788136453297  0.9118293588997589  1.0000
  N   N5        1.0  0.2444039031791192  0.39677620156484755  0.864503613359247  1.0000
  N   N6        1.0  0.24750618331930246  0.5858957095675167  0.1467660179387522  1.0000
  N   N7        1.0  0.6425210707297139  0.3954884425295263  0.2489855169057051  1.0000
  N   N8        1.0  0.6005223880654283  0.6227085594071937  0.758642717874217  1.0000
  N   N9        1.0  0.3032157874349792  0.3959956236570648  0.7115053975163691  1.0000
  N   N10       1.0  0.3085097611365057  0.5883552187983627  0.2999372818103794  1.0000
  N   N11       1.0  0.3804105943549769  0.12238532348578704  0.619470106855367  1.0000
  N   N12       1.0  0.5176307815967647  0.708269788309849  0.49343215386310396  1.0000
  N   N13       1.0  0.3739418734686878  0.8646077033919967  0.3767940675474081  1.0000
  N   N14       1.0  0.6026514084898408  0.12897540522649106  0.3817257654698807  1.0000
  N   N15       1.0  0.6148122506320276  0.8823892067603369  0.610011053215544  1.0000
  N   N16       1.0  0.9276806533607953  0.7908756648710523  0.4113112099778463  1.0000
  N   N17       1.0  0.08212425426765439  0.19788401954819076  0.5097554821801964  1.0000
  N   N18       1.0  0.13964138255369107  0.8010672766628205  0.5071382863719337  1.0000
  N   N19       1.0  0.8971484662851096  0.2304250382557811  0.6256496374122449  1.0000
  N   N20       1.0  0.8104847427782788  0.38631119126545604  0.6370581759831071  1.0000
  N   N21       1.0  0.24334361516494596  0.6702849995626964  0.5701938395183676  1.0000
  N   N22       1.0  0.21216171181135476  0.32771022935210675  0.44761857637507774  1.0000
  O   O1        1.0  0.5319742419048196  0.4401714390789097  0.6266916206831326  1.0000
  O   O2        1.0  0.5531238587911389  0.5600457131570452  0.38555135217891495  1.0000
  O   O3        1.0  0.49584097079101486  0.4262325497067324  0.3935473212499474  1.0000
  O   O4        1.0  0.48280096049239757  0.5738054672700486  0.6151059564377732  1.0000
  O   O5        1.0  0.7023921865833386  0.43945695705469495  0.4890994626105821  1.0000
  O   O6        1.0  0.3440001397746783  0.5576713442876978  0.4704699582463406  1.0000
  O   O7        1.0  0.33818077281927117  0.4385741950819479  0.5347631801911561  1.0000
  O   O8        1.0  0.7032333956333403  0.5693438659495271  0.5331869602392132  1.0000
