data_image0
_chemical_formula_structural       Nd4H56C60O28
_chemical_formula_sum              "Nd4 H56 C60 O28"
_cell_length_a       7.767597669883151
_cell_length_b       15.372845853175264
_cell_length_c       15.372704918628056
_cell_angle_alpha    62.71252783705322
_cell_angle_beta     86.81870588912408
_cell_angle_gamma    86.81873651160107

_space_group_name_H-M_alt    "P 1"
_space_group_IT_number       1

loop_
  _space_group_symop_operation_xyz
  'x, y, z'

loop_
  _atom_site_type_symbol
  _atom_site_label
  _atom_site_symmetry_multiplicity
  _atom_site_fract_x
  _atom_site_fract_y
  _atom_site_fract_z
  _atom_site_occupancy
  Nd  Nd1       1.0  0.030918556802561205  0.3600126420229799  0.2814145539245416  1.0000
  Nd  Nd2       1.0  0.46907529873296044  0.7185848407176394  0.6399805398460642  1.0000
  Nd  Nd3       1.0  0.9690820234631587  0.6399868768825525  0.7185877869315861  1.0000
  Nd  Nd4       1.0  0.530922652061342  0.2814161578257098  0.3600172915272283  1.0000
  H   H1        1.0  0.34329800362999663  0.4804958968436919  0.16278129292627605  1.0000
  H   H2        1.0  0.15669099059298472  0.8372194124543237  0.5194998960852362  1.0000
  H   H3        1.0  0.6566999774910088  0.5195043655900163  0.8372181743965684  1.0000
  H   H4        1.0  0.8433055796311706  0.16278304891636708  0.4804986050727181  1.0000
  H   H5        1.0  0.18016657914807874  0.556102098152273  0.12895623606792136  1.0000
  H   H6        1.0  0.31981502286162566  0.8710441689307656  0.44388431455466565  1.0000
  H   H7        1.0  0.8198338847748732  0.4438996197241634  0.8710444544221616  1.0000
  H   H8        1.0  0.6801816789229065  0.1289560990838153  0.5561138824797851  1.0000
  H   H9        1.0  0.3038803975303282  0.19910356832286163  0.6063838275789096  1.0000
  H   H10       1.0  0.1961188113209431  0.39361994765165764  0.8008971128930753  1.0000
  H   H11       1.0  0.6961201068643916  0.8008974171871441  0.39361719586768373  1.0000
  H   H12       1.0  0.8038767122522901  0.6063781213580766  0.19910341870858875  1.0000
  H   H13       1.0  0.4251483332487211  0.18705579907684458  0.7552157657296094  1.0000
  H   H14       1.0  0.07485125476637931  0.24478451051336944  0.812946972234208  1.0000
  H   H15       1.0  0.574854760254148  0.8129451865010252  0.24478388931465386  1.0000
  H   H16       1.0  0.9251456998853342  0.7552106197065453  0.18705746447493254  1.0000
  H   H17       1.0  0.4081972503798568  0.03183155753797709  0.9112755819668692  1.0000
  H   H18       1.0  0.09181461013459108  0.08872420967124127  0.9681702229196105  1.0000
  H   H19       1.0  0.5918110364484194  0.9681686864511714  0.08872492671184054  1.0000
  H   H20       1.0  0.9081847919198296  0.9112731102294445  0.031834452503737475  1.0000
  H   H21       1.0  0.26068028498323775  0.8897489691597112  0.9152997900558832  1.0000
  H   H22       1.0  0.23934107849969885  0.0846948099943035  0.11024751608490388  1.0000
  H   H23       1.0  0.7393267781979419  0.11025055365868036  0.08469782680139562  1.0000
  H   H24       1.0  0.7606596282538689  0.9153025136835137  0.8897551721442413  1.0000
  H   H25       1.0  0.08924069660708513  0.8205490540735522  0.8410706783449913  1.0000
  H   H26       1.0  0.41078998855648763  0.15892550115101048  0.1794524625371992  1.0000
  H   H27       1.0  0.9107648595160998  0.17945412679988945  0.15892726092392453  1.0000
  H   H28       1.0  0.5892131454181495  0.8410747520604214  0.8205475254635745  1.0000
  H   H29       1.0  0.002687496826489214  0.8917584276227684  0.7263860514538011  1.0000
  H   H30       1.0  0.49732608362619163  0.27360964432011764  0.10824582563856917  1.0000
  H   H31       1.0  0.9973154449343723  0.10824549116404816  0.27361096877137925  1.0000
  H   H32       1.0  0.5026771920538947  0.7263884192784072  0.891752555245674  1.0000
  H   H33       1.0  0.9993759231311756  0.04217627416988279  0.5938576942360783  1.0000
  H   H34       1.0  0.5006262334924472  0.40614296311401415  0.9578209095176149  1.0000
  H   H35       1.0  0.0006181338558306274  0.9578247205284708  0.4061434927337403  1.0000
  H   H36       1.0  0.49937311805364015  0.5938558327491492  0.042179191013609174  1.0000
  H   H37       1.0  0.19979545904077162  0.9951792027803203  0.5700789983322921  1.0000
  H   H38       1.0  0.30020775679594186  0.42991989434483435  0.004825227959351368  1.0000
  H   H39       1.0  0.8002011465826158  0.0048225243523348  0.4299204872786859  1.0000
  H   H40       1.0  0.6997864823682817  0.5700781783741745  0.995174684850447  1.0000
  H   H41       1.0  0.429501930382628  0.6675175116289719  0.16980641273595867  1.0000
  H   H42       1.0  0.07050729076620853  0.8301972254810006  0.33245685270467384  1.0000
  H   H43       1.0  0.5705051023633415  0.33248199995981037  0.8301951131004303  1.0000
  H   H44       1.0  0.929490730826565  0.16980230458627685  0.6675429475746811  1.0000
  H   H45       1.0  0.3412016395354769  0.8419680828584999  0.07552064480281473  1.0000
  H   H46       1.0  0.15883313114534306  0.924469892511375  0.15801071936775216  1.0000
  H   H47       1.0  0.6588027687031043  0.15803216290046143  0.924481264982866  1.0000
  H   H48       1.0  0.8411687082752266  0.0755303606661215  0.8419899528341902  1.0000
  H   H49       1.0  0.37251913377263424  0.5155878582189145  0.4354447878064179  1.0000
  H   H50       1.0  0.12746171947198803  0.5645557754870437  0.4844056836963731  1.0000
  H   H51       1.0  0.6274788372033059  0.48441240047159784  0.5645559825094537  1.0000
  H   H52       1.0  0.8725311441946176  0.4354437619309051  0.5155942474015589  1.0000
  H   H53       1.0  0.48028499116595924  0.5290218087581947  0.327282518247337  1.0000
  H   H54       1.0  0.01969904056974773  0.6727230652288223  0.47096411279477496  1.0000
  H   H55       1.0  0.519718168062852  0.4709777064719986  0.672719757199502  1.0000
  H   H56       1.0  0.9802950771791642  0.3272772045894994  0.5290348011454854  1.0000
  C   C1        1.0  0.20067908628568187  0.9634850272160163  0.762775459566278  1.0000
  C   C2        1.0  0.29933990882834394  0.23721752155262968  0.036521986458595314  1.0000
  C   C3        1.0  0.7993238453301074  0.036518887827604395  0.2372228636519438  1.0000
  C   C4        1.0  0.7006645703172084  0.7627820030694958  0.9634763473044928  1.0000
  C   C5        1.0  0.2125953229640771  0.0508532407838658  0.6743489097458025  1.0000
  C   C6        1.0  0.28741199309094156  0.3256488892514469  0.9491520741025922  1.0000
  C   C7        1.0  0.7874050195435629  0.9491506741918909  0.32565078187474233  1.0000
  C   C8        1.0  0.7125874141445153  0.674349179860087  0.050846404895587054  1.0000
  C   C9        1.0  0.292523169467387  0.13066056663279108  0.6736564500231097  1.0000
  C   C10       1.0  0.2074804749280261  0.3263396626672303  0.8693421814718221  1.0000
  C   C11       1.0  0.7074823765107325  0.8693426104974477  0.32634279223884727  1.0000
  C   C12       1.0  0.792516307800042  0.6736591406144755  0.13065668147565654  1.0000
  C   C13       1.0  0.36291631745046254  0.12405798256273926  0.758033676058723  1.0000
  C   C14       1.0  0.1370807588053253  0.2419630169717378  0.8759442127069336  1.0000
  C   C15       1.0  0.6370855270426361  0.875942272486362  0.24196634464669847  1.0000
  C   C16       1.0  0.8629148355663787  0.758033583561925  0.1240582878007928  1.0000
  C   C17       1.0  0.35300997953908103  0.03721467601182839  0.8452238405044312  1.0000
  C   C18       1.0  0.14700061138078985  0.1547794677047135  0.9627822773183539  1.0000
  C   C19       1.0  0.6469943579010364  0.9627870382232043  0.1547761003751944  1.0000
  C   C20       1.0  0.8530012381848452  0.8452207892159859  0.037217091890546894  1.0000
  C   C21       1.0  0.27047822285074113  0.9579778010715639  0.8472761563554982  1.0000
  C   C22       1.0  0.2295373289113058  0.15272174392659815  0.042026374263755904  1.0000
  C   C23       1.0  0.7295209161914329  0.04202465288058478  0.1527235823862014  1.0000
  C   C24       1.0  0.7704647179406409  0.8472748492903149  0.9579753112242245  1.0000
  C   C25       1.0  0.12390763231903892  0.8745886755075816  0.7658384024620304  1.0000
  C   C26       1.0  0.3761095534264527  0.2341554713938904  0.12541556359765593  1.0000
  C   C27       1.0  0.8760940250328063  0.12541524698850984  0.23415799897128411  1.0000
  C   C28       1.0  0.6238922809215808  0.7658447799120081  0.8745857601007998  1.0000
  C   C29       1.0  0.2449456500851781  0.8225890033857793  0.7223345260407329  1.0000
  C   C30       1.0  0.2550789431218162  0.27765578620419257  0.17741871836016543  1.0000
  C   C31       1.0  0.7550663635907852  0.1774141720425176  0.2776619467119303  1.0000
  C   C32       1.0  0.7449151038286247  0.7223459520902081  0.8225782266740324  1.0000
  C   C33       1.0  0.13876844198603072  0.05488876620072598  0.5831472080844122  1.0000
  C   C34       1.0  0.36123201162264723  0.41685622534849626  0.9451099868784425  1.0000
  C   C35       1.0  0.8612283204519072  0.9451100295945803  0.416854260849128  1.0000
  C   C36       1.0  0.6387660605869672  0.5831425760955468  0.05488884336438103  1.0000
  C   C37       1.0  0.17373851026188453  0.14837592358623647  0.49043732635748694  1.0000
  C   C38       1.0  0.32626728280796163  0.5095574293128916  0.8516244187685587  1.0000
  C   C39       1.0  0.8262544040215548  0.8516228852084778  0.5095616347039283  1.0000
  C   C40       1.0  0.6737372215917644  0.4904413573279952  0.14837620244059485  1.0000
  C   C41       1.0  0.30044066336252934  0.6488143005914181  0.3047214668552556  1.0000
  C   C42       1.0  0.19955874597182088  0.6952784776966752  0.3511733906011827  1.0000
  C   C43       1.0  0.6995586678934275  0.35118448778534617  0.6952812396620374  1.0000
  C   C44       1.0  0.8004393059476556  0.3047203162609619  0.6488280456277167  1.0000
  C   C45       1.0  0.3487759830809552  0.7030071729408218  0.20551655125506588  1.0000
  C   C46       1.0  0.1512407091513452  0.7944838273418141  0.2969773603460553  1.0000
  C   C47       1.0  0.6512258461945422  0.29699307649347156  0.7944854239399107  1.0000
  C   C48       1.0  0.8487598458602077  0.2055164295449571  0.7030226930640069  1.0000
  C   C49       1.0  0.2998727691106566  0.8015810087126096  0.15225735428042253  1.0000
  C   C50       1.0  0.200144752919428  0.8477335125950417  0.19840507938944538  1.0000
  C   C51       1.0  0.7001277352840632  0.19841997679739617  0.8477436691661708  1.0000
  C   C52       1.0  0.7998558374913642  0.1522660100536867  0.801595958473655  1.0000
  C   C53       1.0  0.35460773003924123  0.5419741980449401  0.3567225294514032  1.0000
  C   C54       1.0  0.14537819112376843  0.643278799837688  0.4580166752501568  1.0000
  C   C55       1.0  0.6453929008433192  0.4580245922373506  0.6432788413682006  1.0000
  C   C56       1.0  0.8546159518793104  0.35672073199938836  0.5419845261361688  1.0000
  C   C57       1.0  0.22803416522894082  0.47476369932127915  0.34736896677245  1.0000
  C   C58       1.0  0.271955035474825  0.65263095187332  0.5252292456254821  1.0000
  C   C59       1.0  0.7719652166438493  0.5252343604322501  0.6526327697083192  1.0000
  C   C60       1.0  0.7280403717556324  0.34736931610732563  0.47476963561013014  1.0000
  O   O1        1.0  0.3961445685303033  0.8502598934056774  0.6933406063461263  1.0000
  O   O2        1.0  0.1038591349547957  0.30664479286759405  0.14975247579253906  1.0000
  O   O3        1.0  0.6038557385781046  0.1497447558081149  0.3066581008213873  1.0000
  O   O4        1.0  0.896143978838211  0.6933562001966748  0.8502445732656554  1.0000
  O   O5        1.0  0.1903068335020066  0.7475182322250618  0.7161042348176566  1.0000
  O   O6        1.0  0.30971003083646315  0.28389491110605275  0.2524832701430456  1.0000
  O   O7        1.0  0.8096962246016306  0.2524834875908438  0.28389443577357554  1.0000
  O   O8        1.0  0.6902853814665234  0.7161053587461974  0.7475149595960534  1.0000
  O   O9        1.0  0.3298895843745768  0.16791419821784354  0.46548222851431126  1.0000
  O   O10       1.0  0.17009574112832132  0.5345174939367537  0.8320945540142263  1.0000
  O   O11       1.0  0.670109650828735  0.8320867966162381  0.5345162216508541  1.0000
  O   O12       1.0  0.8299021843033144  0.46548349524859123  0.16790653484165574  1.0000
  O   O13       1.0  0.045890850247261  0.20211621248030545  0.4418854214309463  1.0000
  O   O14       1.0  0.45409336618989465  0.5581085951822543  0.7978802611379123  1.0000
  O   O15       1.0  0.9541058869365031  0.7978833212962396  0.5581137600565357  1.0000
  O   O16       1.0  0.5459033659213333  0.4418909367226929  0.20211957184608315  1.0000
  O   O17       1.0  0.28203133031999533  0.3868827996271519  0.365804075057035  1.0000
  O   O18       1.0  0.21794463848184617  0.6341959591335494  0.6131109406479567  1.0000
  O   O19       1.0  0.71797317915226  0.613115988885333  0.6341958946556048  1.0000
  O   O20       1.0  0.7820496360816094  0.3658013793474238  0.3868899566148657  1.0000
  O   O21       1.0  0.07608067873916013  0.503427965361105  0.3203454365881059  1.0000
  O   O22       1.0  0.42390023917329234  0.6796451985466446  0.49657198194636015  1.0000
  O   O23       1.0  0.9239253073558799  0.49656715386672784  0.6796581196919932  1.0000
  O   O24       1.0  0.5760888167020894  0.3203528721650385  0.503431319164605  1.0000
  O   O25       1.0  0.21856718238445447  0.48923070265481505  0.1453006431700175  1.0000
  O   O26       1.0  0.28142514916485345  0.8546970532128026  0.510760731469766  1.0000
  O   O27       1.0  0.781432037601256  0.5107702865644581  0.8546997614847031  1.0000
  O   O28       1.0  0.7185701771220608  0.14530467950071815  0.48923748385282556  1.0000
