data_image0
_chemical_formula_structural       Cu2H32C24S2N16O8
_chemical_formula_sum              "Cu2 H32 C24 S2 N16 O8"
_cell_length_a       8.07328357004772
_cell_length_b       8.636751112513098
_cell_length_c       13.809413987187504
_cell_angle_alpha    92.13337056651719
_cell_angle_beta     99.8771127926444
_cell_angle_gamma    91.99530768341198

_space_group_name_H-M_alt    "P 1"
_space_group_IT_number       1

loop_
  _space_group_symop_operation_xyz
  'x, y, z'

loop_
  _atom_site_type_symbol
  _atom_site_label
  _atom_site_symmetry_multiplicity
  _atom_site_fract_x
  _atom_site_fract_y
  _atom_site_fract_z
  _atom_site_occupancy
  Cu  Cu1       1.0  0.5000002244760823  2.2894101899980817e-07  0.4999993948746281  1.0000
  Cu  Cu2       1.0  0.5000002834861305  1.6949641974000296e-06  5.458773557812508e-07  1.0000
  H   H1        1.0  0.2758321436067632  0.8118970585009962  0.624267520870916  1.0000
  H   H2        1.0  0.7241688535208083  0.1880985328799412  0.3757296281749873  1.0000
  H   H3        1.0  0.6457351213556562  0.724339456819628  0.5782309998565155  1.0000
  H   H4        1.0  0.3542685213252383  0.2756596219870247  0.4217686733028573  1.0000
  H   H5        1.0  0.3292167701589436  0.7264861897423316  0.84537018749068  1.0000
  H   H6        1.0  0.6707843291485462  0.27351291286951346  0.1546306619603968  1.0000
  H   H7        1.0  0.24525578569168968  0.1905255251441318  0.0833574100771415  1.0000
  H   H8        1.0  0.7547418360077103  0.8094793919289246  0.9166431799627334  1.0000
  H   H9        1.0  0.16006750112212845  0.9729076620834294  0.34405405981068077  1.0000
  H   H10       1.0  0.8399289517779065  0.0270984071209526  0.6559449790002106  1.0000
  H   H11       1.0  0.8850374920046208  0.7879605114729672  0.3731132133727969  1.0000
  H   H12       1.0  0.11496235071859222  0.21203741107290597  0.6268845815820044  1.0000
  H   H13       1.0  0.9827924450718866  0.6912038740280978  0.5627571025243939  1.0000
  H   H14       1.0  0.017212117802380095  0.3087870495878491  0.437238889309981  1.0000
  H   H15       1.0  0.4847315750157506  0.8048033592182833  0.29037127091247333  1.0000
  H   H16       1.0  0.5152696710715289  0.19519804972095045  0.709628190797403  1.0000
  H   H17       1.0  0.5950998548868398  0.5000443086605627  0.2936419640365245  1.0000
  H   H18       1.0  0.40490390543011046  0.499955903907349  0.7063548469958791  1.0000
  H   H19       1.0  0.7105253113275792  0.4622504782875225  0.49051745303622607  1.0000
  H   H20       1.0  0.28947847813310545  0.5377509068465259  0.5094808323819394  1.0000
  H   H21       1.0  0.45057846926404466  0.7466178268255064  0.1466315182151448  1.0000
  H   H22       1.0  0.5494204827632388  0.25338823797611804  0.8533685125604009  1.0000
  H   H23       1.0  0.2895431313632741  0.4614120173691135  0.09563180199731391  1.0000
  H   H24       1.0  0.7104605548563683  0.5385894130372788  0.904371542685695  1.0000
  H   H25       1.0  0.2045910488307214  0.46678030913231794  0.8917215022338923  1.0000
  H   H26       1.0  0.795413806541994  0.533218783641658  0.10828047378810621  1.0000
  H   H27       1.0  0.21361610928742178  0.9958844769270885  0.8030779428458956  1.0000
  H   H28       1.0  0.7863836888359187  0.004114650522303999  0.196924940255272  1.0000
  H   H29       1.0  0.9107888941988448  0.1388805002896305  0.809302437802586  1.0000
  H   H30       1.0  0.08920292231093901  0.8611105552872048  0.1907008809945765  1.0000
  H   H31       1.0  0.9514562913125175  0.26122417536697645  0.9992649312692663  1.0000
  H   H32       1.0  0.048539574822072516  0.738771483026774  0.0007367386164177076  1.0000
  C   C1        1.0  0.13954493396184378  0.908058151941816  0.4069890687842772  1.0000
  C   C2        1.0  0.8604513430146737  0.09194443836904749  0.5930098833820524  1.0000
  C   C3        1.0  0.002199044003127414  0.8143281210867813  0.4231296825105347  1.0000
  C   C4        1.0  0.9978007987200853  0.18566980145909182  0.5768681124442736  1.0000
  C   C5        1.0  0.0485758529481899  0.7637893404124513  0.5181039254485  1.0000
  C   C6        1.0  0.9514251733231092  0.23620742353460863  0.48189469798316514  1.0000
  C   C7        1.0  0.5389951689115405  0.7360548409981791  0.35131010836374094  1.0000
  C   C8        1.0  0.46100724632881906  0.2639442303086311  0.6486879846851183  1.0000
  C   C9        1.0  0.597785747713054  0.5843576050636373  0.3540908406043428  1.0000
  C   C10       1.0  0.4022180417476307  0.415643780070404  0.6459074448138297  1.0000
  C   C11       1.0  0.6562609194301389  0.5615161165847553  0.4531906532990179  1.0000
  C   C12       1.0  0.3437391431090474  0.43848645095328453  0.5468079799339876  1.0000
  C   C13       1.0  0.3966465275189394  0.6961425965572445  0.07486952134429713  1.0000
  C   C14       1.0  0.6033533882404568  0.30385766465341396  0.9251304996299154  1.0000
  C   C15       1.0  0.31134527689761177  0.55294454229184  0.04721302422084511  1.0000
  C   C16       1.0  0.6886571379890326  0.4470557145160612  0.952787988718022  1.0000
  C   C17       1.0  0.26853339351201555  0.5537223390896884  0.9452419157729466  1.0000
  C   C18       1.0  0.7314702635638922  0.4462779187505674  0.0547599545243003  1.0000
  C   C19       1.0  0.17096190004419035  0.0593625449822781  0.8629313441984579  1.0000
  C   C20       1.0  0.8290365091100965  0.9406342751073635  0.1370720692855159  1.0000
  C   C21       1.0  0.019608430704749897  0.1331260647290904  0.8668145701281631  1.0000
  C   C22       1.0  0.9803886484753763  0.8668684221308849  0.13318648273014597  1.0000
  C   C23       1.0  0.036029977402819185  0.19475819397749922  0.9627310779496199  1.0000
  C   C24       1.0  0.9639658887317708  0.805237464416244  0.037270591936064135  1.0000
  S   S1        1.0  0.4501884460224801  0.1520238552094568  0.24461211158438093  1.0000
  S   S2        1.0  0.5498102275476598  0.8479764049688328  0.7553870520314376  1.0000
  N   N1        1.0  0.2610773073932222  0.9132194416330037  0.48700114995376254  1.0000
  N   N2        1.0  0.7389214539618222  0.08678315074258339  0.512999516929341  1.0000
  N   N3        1.0  0.2044429660361331  0.8248023638783053  0.5538032169083209  1.0000
  N   N4        1.0  0.7955580749838874  0.17519439360128078  0.44619468377123195  1.0000
  N   N5        1.0  0.5612508775645607  0.7997619984215307  0.4428742971131001  1.0000
  N   N6        1.0  0.4387515963169689  0.20023823251645473  0.5571238248172818  1.0000
  N   N7        1.0  0.6326623709780248  0.6934898379804862  0.5038370809356394  1.0000
  N   N8        1.0  0.3673401762933963  0.30651154612119313  0.49616034712413903  1.0000
  N   N9        1.0  0.4044583760480192  0.7789089839140003  0.995212543239454  1.0000
  N   N10       1.0  0.5955390697278632  0.22109245426553056  0.004787960155859143  1.0000
  N   N11       1.0  0.32426980872114797  0.6915500037678867  0.9168507604080105  1.0000
  N   N12       1.0  0.6757314078686817  0.30845141810630144  0.08315014680610489  1.0000
  N   N13       1.0  0.2720461243470211  0.076072325950868  0.951254874963091  1.0000
  N   N14       1.0  0.7279540990132529  0.9239349124492479  0.048747487556610715  1.0000
  N   N15       1.0  0.18845922716880645  0.1582768186141195  0.010778134562286806  1.0000
  N   N16       1.0  0.8115384384230567  0.8417292645575786  0.9892232071112378  1.0000
  O   O1        1.0  0.6296749496061054  0.2208894340156888  0.2634733814828749  1.0000
  O   O2        1.0  0.3703235480405097  0.7791073472690825  0.7365256954883819  1.0000
  O   O3        1.0  0.33652183672207764  0.2662768607911161  0.1935995180249037  1.0000
  O   O4        1.0  0.6634806659494713  0.7337257282140826  0.8064029981812411  1.0000
  O   O5        1.0  0.40355758367708455  0.1216220006248179  0.3425256757685561  1.0000
  O   O6        1.0  0.5964434130967717  0.8783747762572034  0.6574743931673553  1.0000
  O   O7        1.0  0.443980629221464  0.006748282337511599  0.18364216388692972  1.0000
  O   O8        1.0  0.5560157211449449  0.9932554611370464  0.8163560944087964  1.0000
