data_image0
_chemical_formula_structural       Gd6Cu3H12C30N12O27
_chemical_formula_sum              "Gd6 Cu3 H12 C30 N12 O27"
_cell_length_a       6.803380462295738
_cell_length_b       16.291598170656183
_cell_length_c       16.293391063920147
_cell_angle_alpha    118.13467120209158
_cell_angle_beta     97.9331611220286
_cell_angle_gamma    98.16199637199672

_space_group_name_H-M_alt    "P 1"
_space_group_IT_number       1

loop_
  _space_group_symop_operation_xyz
  'x, y, z'

loop_
  _atom_site_type_symbol
  _atom_site_label
  _atom_site_symmetry_multiplicity
  _atom_site_fract_x
  _atom_site_fract_y
  _atom_site_fract_z
  _atom_site_occupancy
  Gd  Gd1       1.0  0.22448543277056393  0.8454183215116872  0.9352324329088688  1.0000
  Gd  Gd2       1.0  0.37902410733463643  0.08899601517631343  0.15471005783326316  1.0000
  Gd  Gd3       1.0  0.2879364638939137  0.06512584053943732  0.9104075492303351  1.0000
  Gd  Gd4       1.0  0.7755140378297724  0.15458516905709976  0.06477131920073018  1.0000
  Gd  Gd5       1.0  0.6209601626045185  0.9110038846391221  0.8452935438336339  1.0000
  Gd  Gd6       1.0  0.7120638000367163  0.934870488876676  0.08959656794155511  1.0000
  Cu  Cu1       1.0  0.9999966664850889  0.4999935303566474  0.9999879404951032  1.0000
  Cu  Cu2       1.0  0.5000024577544053  0.5000038937745402  0.49999323000651685  1.0000
  Cu  Cu3       1.0  4.846053421703147e-06  1.5072396592999716e-06  0.5000032254728379  1.0000
  H   H1        1.0  0.6522839216178866  0.57002582224289  0.09474408785490589  1.0000
  H   H2        1.0  0.5236150409635344  0.7224880780105852  0.13515408886046032  1.0000
  H   H3        1.0  0.08300513116964942  0.5241269337012184  0.42945006092551097  1.0000
  H   H4        1.0  0.802552020561002  0.4119959319175877  0.27598115261934447  1.0000
  H   H5        1.0  0.555809046015341  0.904963452029108  0.4753673429592168  1.0000
  H   H6        1.0  0.38583702603655473  0.8653259838500561  0.5879849053144992  1.0000
  H   H7        1.0  0.3477104961632875  0.42995832358708713  0.9052367652793406  1.0000
  H   H8        1.0  0.4763994314199279  0.2775039628169012  0.8648464159124742  1.0000
  H   H9        1.0  0.9169818757418681  0.47587225001978345  0.570545390628176  1.0000
  H   H10       1.0  0.19742040224154786  0.5879982308825263  0.7240227200069286  1.0000
  H   H11       1.0  0.4441971710319592  0.09503574553146883  0.5246347990683589  1.0000
  H   H12       1.0  0.6141668442126474  0.1346803747298821  0.4120210740877326  1.0000
  C   C1        1.0  0.9549600059738593  0.6686167639686148  0.006723575416209775  1.0000
  C   C2        1.0  0.7144282817575344  0.6227268414196631  0.07624766899152029  1.0000
  C   C3        1.0  0.12982903449003658  0.6429608579282301  0.9615445017742273  1.0000
  C   C4        1.0  0.6451113184874442  0.7057423698917089  0.09687556422180399  1.0000
  C   C5        1.0  0.8800517252297481  0.7524161449884729  0.025832432108423058  1.0000
  C   C6        1.0  0.28668847108383494  0.33774314513185283  0.3311727235657996  1.0000
  C   C7        1.0  0.09225338993109485  0.45294999503555994  0.37668768718324214  1.0000
  C   C8        1.0  0.4872869420519235  0.31859696710513663  0.3570801529122603  1.0000
  C   C9        1.0  0.9403414596668185  0.3905398458900251  0.29324201389848525  1.0000
  C   C10       1.0  0.12812425720667156  0.2728528249214436  0.24707330869941294  1.0000
  C   C11       1.0  0.9465456597402948  0.9932374220230001  0.6617937917342542  1.0000
  C   C12       1.0  0.6364306596910154  0.9236954314196596  0.5465738041038719  1.0000
  C   C13       1.0  0.16683675922672586  0.038375261055300314  0.6813453973302188  1.0000
  C   C14       1.0  0.5459804954584939  0.9033792274823398  0.6091649877812698  1.0000
  C   C15       1.0  0.8523520735412405  0.9741145314853058  0.726523543732135  1.0000
  C   C16       1.0  0.045048178570972715  0.33138028513857887  0.9932727656841677  1.0000
  C   C17       1.0  0.28556863194039295  0.37725945568494273  0.9237386421899244  1.0000
  C   C18       1.0  0.8701684672359632  0.35703546698398736  0.038446557517573914  1.0000
  C   C19       1.0  0.3549016989227809  0.29424966959182103  0.9031230107726529  1.0000
  C   C20       1.0  0.11995664731943381  0.24758448712246664  0.9741735830624092  1.0000
  C   C21       1.0  0.7133111576199196  0.6622660723058756  0.6688183854643482  1.0000
  C   C22       1.0  0.9077387565557656  0.5470534894187367  0.6233094821416997  1.0000
  C   C23       1.0  0.5127104523542981  0.6814108167507412  0.6429119887469594  1.0000
  C   C24       1.0  0.05965099250575177  0.6094614913092755  0.7067603023731761  1.0000
  C   C25       1.0  0.8718697437650319  0.7271513768746942  0.7529236959786798  1.0000
  C   C26       1.0  0.05345827894298339  0.006763206903514201  0.3382107266519512  1.0000
  C   C27       1.0  0.36357811236977255  0.07630591668916513  0.4534301166416411  1.0000
  C   C28       1.0  0.8331682152192741  0.9616246534594239  0.31866437170286566  1.0000
  C   C29       1.0  0.45402336494124995  0.0966271312186606  0.3908416048425066  1.0000
  C   C30       1.0  0.1476547507209389  0.025888964834777504  0.2734849514974939  1.0000
  N   N1        1.0  0.8687297417873409  0.6072988990237037  0.03218871069237394  1.0000
  N   N2        1.0  0.7246321521479328  0.7680359211179489  0.07289197935626365  1.0000
  N   N3        1.0  0.26169464667114534  0.42442613135698787  0.39244340264271926  1.0000
  N   N4        1.0  0.9575773661251931  0.30429709889083506  0.23103948659624504  1.0000
  N   N5        1.0  0.8350633779017755  0.9677251086534396  0.5750431015092089  1.0000
  N   N6        1.0  0.6494184775768589  0.9274101782053848  0.6953652559472231  1.0000
  N   N7        1.0  0.13127014613458238  0.39269026438489624  0.9677960583385995  1.0000
  N   N8        1.0  0.275387741129002  0.23196113789349235  0.9271155074211066  1.0000
  N   N9        1.0  0.7383038819923584  0.5755809368764631  0.6075478574479546  1.0000
  N   N10       1.0  0.042411002445795994  0.6957049517272295  0.7689623045731792  1.0000
  N   N11       1.0  0.1649397721198724  0.0322798169622232  0.4249621609713188  1.0000
  N   N12       1.0  0.3505857673042456  0.0725940322721073  0.30464157785092977  1.0000
  O   O1        1.0  0.948171943116428  0.8149664136569613  0.004511818546433161  1.0000
  O   O2        1.0  0.22821931093420728  0.6948139211473786  0.936825295875856  1.0000
  O   O3        1.0  0.17322507829349826  0.5635142835986926  0.9506172005528126  1.0000
  O   O4        1.0  0.3819969400607733  0.9311479674278618  0.09263483030225927  1.0000
  O   O5        1.0  0.13351511150182202  0.18896645510272952  0.18468834504418646  1.0000
  O   O6        1.0  0.5341039041388242  0.24225872699953044  0.30513631546589437  1.0000
  O   O7        1.0  0.6098845657898762  0.3871836053119182  0.4368527275923879  1.0000
  O   O8        1.0  0.44877524154211557  0.1608370007891864  0.06870431363694957  1.0000
  O   O9        1.0  0.9418655900061663  0.9951702625541115  0.8102299647712312  1.0000
  O   O10       1.0  0.2894934485707665  0.0628771449889385  0.7578192015605723  1.0000
  O   O11       1.0  0.22190792253481817  0.0494601964907773  0.6129569402398899  1.0000
  O   O12       1.0  0.2875568229617542  0.9073503171607626  0.8390281330538653  1.0000
  O   O13       1.0  0.0518492387172245  0.1850421063684919  0.9955023597060871  1.0000
  O   O14       1.0  0.7717957302905347  0.30519387653583163  0.06317835191574521  1.0000
  O   O15       1.0  0.82675636896748  0.4364762983292819  0.04935852881826001  1.0000
  O   O16       1.0  0.6179954426534807  0.0688476418129085  0.9073746100549724  1.0000
  O   O17       1.0  0.8664800040282541  0.8110370313130986  0.8153090045084493  1.0000
  O   O18       1.0  0.4658894305212725  0.7577411767634884  0.6948580153394059  1.0000
  O   O19       1.0  0.39012181454162925  0.6128241834600556  0.5631350489775782  1.0000
  O   O20       1.0  0.5512260145968709  0.8391672079688918  0.9313035663765986  1.0000
  O   O21       1.0  0.058140977305463096  0.004829651609668401  0.18977314893873395  1.0000
  O   O22       1.0  0.7105020706274627  0.9371184641552759  0.24217999425812992  1.0000
  O   O23       1.0  0.7780964203287368  0.95053828397009  0.38704659287761695  1.0000
  O   O24       1.0  0.7124393034513403  0.09264959074295828  0.16097741596689016  1.0000
  O   O25       1.0  0.4999923061734393  0.9999965864402328  9.581218769404687e-06  1.0000
  O   O26       1.0  0.10120455613673582  0.0006299161644776  0.9992461495872859  1.0000
  O   O27       1.0  0.8988004281587223  0.9993699982291775  0.0007630062242609863  1.0000
