data_image0
_chemical_formula_structural       Al4H9C29Br3O21
_chemical_formula_sum              "Al4 H9 C29 Br3 O21"
_cell_length_a       6.660939458251372
_cell_length_b       16.516733293213516
_cell_length_c       19.022262338850094
_cell_angle_alpha    104.52036349181162
_cell_angle_beta     90.06235328980628
_cell_angle_gamma    89.73275884672496

_space_group_name_H-M_alt    "P 1"
_space_group_IT_number       1

loop_
  _space_group_symop_operation_xyz
  'x, y, z'

loop_
  _atom_site_type_symbol
  _atom_site_label
  _atom_site_symmetry_multiplicity
  _atom_site_fract_x
  _atom_site_fract_y
  _atom_site_fract_z
  _atom_site_occupancy
  Al  Al1       1.0  0.8866560312091992  0.5036247864665386  0.5002107498201696  1.0000
  Al  Al2       1.0  0.38721234509693403  0.4999260381950138  0.4993019045539454  1.0000
  Al  Al3       1.0  0.3715639748716272  0.0010155429052645024  0.995963255470812  1.0000
  Al  Al4       1.0  0.8718360473450986  0.0018210770656069003  0.9993333967815728  1.0000
  H   H1        1.0  0.40206679643345206  0.834125637411205  0.7865046964977365  1.0000
  H   H2        1.0  0.9555440022882494  0.7992558352739397  0.8083622791584943  1.0000
  H   H3        1.0  0.9138266985045647  0.2057427312540057  0.1849229576601132  1.0000
  H   H4        1.0  0.4512592195217309  0.20550973335414116  0.19086400095100936  1.0000
  H   H5        1.0  0.5192490512948142  0.7984932067734862  0.6700901579028553  1.0000
  H   H6        1.0  0.6280268508062363  0.607209410190997  0.4954218936756475  1.0000
  H   H7        1.0  0.1320295271231302  0.3938618675601476  0.46002543470188323  1.0000
  H   H8        1.0  0.6208735646685498  0.9018837674436145  0.012566206434961211  1.0000
  H   H9        1.0  0.12332616974797621  0.109217212638228  0.034724064983237185  1.0000
  C   C1        1.0  0.6478120120181216  0.4157976619211326  0.5839963734653111  1.0000
  C   C2        1.0  0.6323778761817493  0.3864726482492955  0.3923942456829009  1.0000
  C   C3        1.0  0.13032363652054363  0.5907748396362467  0.4166829764030808  1.0000
  C   C4        1.0  0.1462118112609971  0.6078204784473087  0.6104104495605468  1.0000
  C   C5        1.0  0.2587813509106526  0.8014874143190485  0.7728555135877712  1.0000
  C   C6        1.0  0.1054325708796497  0.8250689667498892  0.819743817852668  1.0000
  C   C7        1.0  0.25003403053722206  0.7408836513617562  0.7026451708766998  1.0000
  C   C8        1.0  0.14007904637671234  0.6694548346893685  0.6839032336454806  1.0000
  C   C9        1.0  0.12792330365940782  0.8643505932924145  0.1362830264681563  1.0000
  C   C10       1.0  0.1318769554155708  0.821301624956661  0.18028794261710604  1.0000
  C   C11       1.0  0.1349407884757881  0.774139499956455  0.2283097101810228  1.0000
  C   C12       1.0  0.1366297615732606  0.7306692963757587  0.2724333490189537  1.0000
  C   C13       1.0  0.13680668535344154  0.6836743475709783  0.3205796737661544  1.0000
  C   C14       1.0  0.1354885946054409  0.6407306263101094  0.36465988997976945  1.0000
  C   C15       1.0  0.6442352397816649  0.36678405644136103  0.6366875269264938  1.0000
  C   C16       1.0  0.6402851937441484  0.32322299429239376  0.6802499760649211  1.0000
  C   C17       1.0  0.6361368242748641  0.2748678208134124  0.7272586769300486  1.0000
  C   C18       1.0  0.6329950397308437  0.22964494355287005  0.7699357009671741  1.0000
  C   C19       1.0  0.6301412261107515  0.18073083401997544  0.8164983758869582  1.0000
  C   C20       1.0  0.6275039253301743  0.1361796379091871  0.8592677164260465  1.0000
  C   C21       1.0  0.7653823149533422  0.2251723413712838  0.20756949450525744  1.0000
  C   C22       1.0  0.6029433890123314  0.18678299673577212  0.17249543937954567  1.0000
  C   C23       1.0  0.7601493609828581  0.2952169492461963  0.27161631174783446  1.0000
  C   C24       1.0  0.6337773061218642  0.31063888156211317  0.32913469357919917  1.0000
  C   C25       1.0  0.6155276837627923  0.11770747087108194  0.10604514520300508  1.0000
  C   C26       1.0  0.6257949739295514  0.08598402602987681  0.9111908920816346  1.0000
  C   C27       1.0  0.12314105233908629  0.8902251553782251  0.8884321516842419  1.0000
  C   C28       1.0  0.12168256807407829  0.9139820694769515  0.08392587787292177  1.0000
  C   C29       1.0  0.3857860748205796  0.7605398112766439  0.6464965561978884  1.0000
  Br  Br1       1.0  0.9714116479060949  0.6304342713277863  0.7479593379177203  1.0000
  Br  Br2       1.0  0.9644458066651111  0.37499873477347034  0.2664092752070673  1.0000
  Br  Br3       1.0  0.43282627816711283  0.23273506377181974  0.3398337810955496  1.0000
  O   O1        1.0  0.46241730756145233  0.42046253307945164  0.4098890870695938  1.0000
  O   O2        1.0  0.8161926090871745  0.4464898314976581  0.5729906544693575  1.0000
  O   O3        1.0  0.9809903556607794  0.5948768541994556  0.5765416687353806  1.0000
  O   O4        1.0  0.7984767339093606  0.40800098005976804  0.42413585818064087  1.0000
  O   O5        1.0  0.9577288685036722  0.564795852831715  0.4298074705892033  1.0000
  O   O6        1.0  0.4822883595045227  0.4227166535358224  0.5523943547275891  1.0000
  O   O7        1.0  0.6344932091711044  0.5526768832201655  0.505887695966237  1.0000
  O   O8        1.0  0.29761590367153457  0.5776635216204868  0.4444733122890199  1.0000
  O   O9        1.0  0.31272497497983665  0.5722390159395021  0.5911883343815204  1.0000
  O   O10       1.0  0.13597447504218252  0.4505496568105017  0.4904705475843583  1.0000
  O   O11       1.0  0.7959538991078149  0.06298254350020473  0.9296833052509893  1.0000
  O   O12       1.0  0.44601526415166154  0.0881037369404893  0.0805503608220022  1.0000
  O   O13       1.0  0.2897477902561008  0.9280648569619249  0.057401127594793926  1.0000
  O   O14       1.0  0.45462472114125774  0.07047416196864023  0.9341728132648724  1.0000
  O   O15       1.0  0.29556964267277414  0.9191167979432819  0.9103120210432676  1.0000
  O   O16       1.0  0.7875965432909096  0.09366926011712452  0.07899244883829938  1.0000
  O   O17       1.0  0.6222001605063667  0.9516023382405834  0.9941920242173196  1.0000
  O   O18       1.0  0.9573852148523941  0.9121009726451065  0.9215732137997037  1.0000
  O   O19       1.0  0.9485209183404778  0.9382253259852507  0.06901286558161257  1.0000
  O   O20       1.0  0.12124741968909093  0.051821579480041194  0.005896825388198598  1.0000
  O   O21       1.0  0.3576541882014936  0.7401233879579298  0.5810222922957209  1.0000
