data_image0
_chemical_formula_structural       Zn12H132C204N12O48
_chemical_formula_sum              "Zn12 H132 C204 N12 O48"
_cell_length_a       18.295626663473293
_cell_length_b       18.485323895189783
_cell_length_c       18.485284478571003
_cell_angle_alpha    109.67796811991343
_cell_angle_beta     109.26326200177147
_cell_angle_gamma    109.26351971251769

_space_group_name_H-M_alt    "P 1"
_space_group_IT_number       1

loop_
  _space_group_symop_operation_xyz
  'x, y, z'

loop_
  _atom_site_type_symbol
  _atom_site_label
  _atom_site_symmetry_multiplicity
  _atom_site_fract_x
  _atom_site_fract_y
  _atom_site_fract_z
  _atom_site_occupancy
  Zn  Zn1       1.0  0.5124280893609452  0.5787373140555658  0.07325178985384191  1.0000
  Zn  Zn2       1.0  0.9337046926629212  0.49453381000006397  0.4212560072406219  1.0000
  Zn  Zn3       1.0  0.439180288652487  0.926743350928021  0.5054892565697318  1.0000
  Zn  Zn4       1.0  0.06082114166521539  0.49451118436558517  0.0732576728788601  1.0000
  Zn  Zn5       1.0  0.9875730628655146  0.9267489044082138  0.4212631572497115  1.0000
  Zn  Zn6       1.0  0.5662970934905116  0.578743733334555  0.5054657855036595  1.0000
  Zn  Zn7       1.0  0.48757268379944196  0.42126331562101876  0.926748401207661  1.0000
  Zn  Zn8       1.0  0.06629599754074884  0.5054654962681582  0.5787431698922987  1.0000
  Zn  Zn9       1.0  0.5608204850044132  0.07325727874670919  0.4945120165948607  1.0000
  Zn  Zn10      1.0  0.9391807067751826  0.5054881218985087  0.9267424229511577  1.0000
  Zn  Zn11      1.0  0.012427958437761798  0.07325106356292109  0.5787368917846649  1.0000
  Zn  Zn12      1.0  0.4337050858012432  0.4212562346333825  0.49453464117625867  1.0000
  H   H1        1.0  0.7801505422032662  0.655600027711877  0.2869112864766521  1.0000
  H   H2        1.0  0.3639167708623958  0.22391321919246823  0.9955900536785336  1.0000
  H   H3        1.0  0.7304547683298638  0.0200481911682147  0.30772943046365947  1.0000
  H   H4        1.0  0.4346517438763868  0.8534705403653362  0.2505740797983409  1.0000
  H   H5        1.0  0.3280908543038733  0.6904909413025491  0.17565534020927484  1.0000
  H   H6        1.0  0.3742479554450282  0.58379894191804  0.10776411643441713  1.0000
  H   H7        1.0  0.7709841519595881  0.9065378942525866  0.24833303869416304  1.0000
  H   H8        1.0  0.5818446154647174  0.9736946793018217  0.2989020876211581  1.0000
  H   H9        1.0  0.662899637203189  0.7464023053514165  0.17452590568450416  1.0000
  H   H10       1.0  0.1245608779701257  0.6313148093300143  0.34439145513204744  1.0000
  H   H11       1.0  0.14000773170788244  0.7716802242453722  0.7760930622645148  1.0000
  H   H12       1.0  0.7104211845113326  0.28768100750768605  0.9799636485576144  1.0000
  H   H13       1.0  0.5811767919924691  0.397101621688023  0.14653217735315852  1.0000
  H   H14       1.0  0.6375873345661559  0.48514968972608574  0.3095085302601531  1.0000
  H   H15       1.0  0.7904415710440063  0.5239614854044843  0.4162053833517517  1.0000
  H   H16       1.0  0.8644602277859192  0.34180305141544653  0.09348230570036972  1.0000
  H   H17       1.0  0.6081508808404691  0.32519030006996985  0.02630212843237701  1.0000
  H   H18       1.0  0.9165066728918132  0.4281492283127691  0.25361267396445447  1.0000
  H   H19       1.0  0.493241175301115  0.7130517452954946  0.3686749047459585  1.0000
  H   H20       1.0  0.3683301517396842  0.0044044301909381  0.22832117422707654  1.0000
  H   H21       1.0  0.4227233975319108  0.6922784020089237  0.7123213453644367  1.0000
  H   H22       1.0  0.18404676521049618  0.7493948566127386  0.6028556303717636  1.0000
  H   H23       1.0  0.15242460405958974  0.8243437720443437  0.5148247817171239  1.0000
  H   H24       1.0  0.2664885700954399  0.8922563713564029  0.4760455746688804  1.0000
  H   H25       1.0  0.5226506239626969  0.7516788837647609  0.6582078069178507  1.0000
  H   H26       1.0  0.2829286941756095  0.7010840846418773  0.6747766677690308  1.0000
  H   H27       1.0  0.48835974617325906  0.8254645245436832  0.5718613481610646  1.0000
  H   H28       1.0  0.006759324834746338  0.6313257545487402  0.28694924208072337  1.0000
  H   H29       1.0  0.1316699599007548  0.7716792046757416  0.9955952278742757  1.0000
  H   H30       1.0  0.07727584111047746  0.2876789224236446  0.30772162581860135  1.0000
  H   H31       1.0  0.315954107701657  0.39714503834029796  0.2506058941120557  1.0000
  H   H32       1.0  0.34757607375677674  0.4851750410444636  0.17565622305983913  1.0000
  H   H33       1.0  0.2335124993347577  0.5239539769790156  0.10774379043750318  1.0000
  H   H34       1.0  0.9773496153300343  0.3417926117819903  0.2483214752084919  1.0000
  H   H35       1.0  0.2170704679656764  0.32522311778522794  0.2989155342907636  1.0000
  H   H36       1.0  0.011641371265234585  0.4281387845858474  0.17453609476608992  1.0000
  H   H37       1.0  0.719848620599322  0.7130883432470938  0.3443996618913303  1.0000
  H   H38       1.0  0.13608326418781758  0.0044092965180482  0.7760880583052909  1.0000
  H   H39       1.0  0.7695454403559265  0.6922705622950927  0.9799520469693233  1.0000
  H   H40       1.0  0.06534839264928384  0.7494250152443128  0.146529241397694  1.0000
  H   H41       1.0  0.17190905184690308  0.8243440810420636  0.3095081189955949  1.0000
  H   H42       1.0  0.12575224705763327  0.8922356093640076  0.4162009546862535  1.0000
  H   H43       1.0  0.7290167702846089  0.7516674864946749  0.09346243875386752  1.0000
  H   H44       1.0  0.9181550001425973  0.701097031032077  0.026304930222089202  1.0000
  H   H45       1.0  0.837100812968785  0.8254742274620668  0.2535982831844309  1.0000
  H   H46       1.0  0.3754415889736788  0.6556093811633442  0.36868501180054364  1.0000
  H   H47       1.0  0.3599926104896056  0.22390594078413528  0.22831847825816007  1.0000
  H   H48       1.0  0.789579159690099  0.020036118474756396  0.7123196558913564  1.0000
  H   H49       1.0  0.9188242357432442  0.8534701934070126  0.6028986667883133  1.0000
  H   H50       1.0  0.8624158606230808  0.6904944766081939  0.5148509617621145  1.0000
  H   H51       1.0  0.7095611813258245  0.5837955869847773  0.47603906243784877  1.0000
  H   H52       1.0  0.6355401204302139  0.9065169772217627  0.6581963257109037  1.0000
  H   H53       1.0  0.891849931213684  0.9736986457865411  0.6748105384897229  1.0000
  H   H54       1.0  0.5834936477944764  0.7463865800203137  0.5718498266968979  1.0000
  H   H55       1.0  0.21984990035402768  0.34439994025993304  0.7130891147864986  1.0000
  H   H56       1.0  0.6360846637524347  0.7760887338927416  0.004410258031228332  1.0000
  H   H57       1.0  0.2695450954814475  0.9799517768042633  0.6922713230282653  1.0000
  H   H58       1.0  0.5653480362334448  0.14652810420155754  0.7494240366103567  1.0000
  H   H59       1.0  0.6719085949546156  0.30950704156049363  0.8243424453495151  1.0000
  H   H60       1.0  0.6257527345103923  0.41620036435110547  0.8922345196469621  1.0000
  H   H61       1.0  0.22901662144905538  0.09346273542307419  0.751667693418888  1.0000
  H   H62       1.0  0.4181545863956444  0.026303965263885197  0.7010974631194031  1.0000
  H   H63       1.0  0.3371011362054546  0.25359832432423696  0.8254748264285466  1.0000
  H   H64       1.0  0.87544039147604  0.36868449693567124  0.6556084518751958  1.0000
  H   H65       1.0  0.8599914694077099  0.22831842032312008  0.22390486532140844  1.0000
  H   H66       1.0  0.28957900990307184  0.7123196221695736  0.020036894732662208  1.0000
  H   H67       1.0  0.4188245609069199  0.6028990079841847  0.8534698256857567  1.0000
  H   H68       1.0  0.3624145975757216  0.5148509399435851  0.6904942026530847  1.0000
  H   H69       1.0  0.20956093934734804  0.47603914426637317  0.583795915229615  1.0000
  H   H70       1.0  0.13554021452311815  0.6581969165572871  0.9065175545112325  1.0000
  H   H71       1.0  0.3918493138221919  0.674810329606359  0.9736989559094482  1.0000
  H   H72       1.0  0.08349401780836961  0.5718500779535912  0.7463875852715559  1.0000
  H   H73       1.0  0.5067586877654334  0.2869482226797686  0.631324225591321  1.0000
  H   H74       1.0  0.6316699599662597  0.9955948760770209  0.7716788961861595  1.0000
  H   H75       1.0  0.5772764660311438  0.30772156596448497  0.2876788670759396  1.0000
  H   H76       1.0  0.8159537595587448  0.2506064347702193  0.3971441616653236  1.0000
  H   H77       1.0  0.8475752592552084  0.17565619592999576  0.4851748896717042  1.0000
  H   H78       1.0  0.7335118719653406  0.10774359661726152  0.5239537444911733  1.0000
  H   H79       1.0  0.4773492393521011  0.2483210842095787  0.34179186447097015  1.0000
  H   H80       1.0  0.7170718308418811  0.29891720674014977  0.325223665319605  1.0000
  H   H81       1.0  0.5116406961357781  0.17453544342905758  0.4281385120505306  1.0000
  H   H82       1.0  0.9932429371654621  0.3686755368284977  0.7130516574762281  1.0000
  H   H83       1.0  0.8683293246680676  0.22832076329926554  0.004404795743326282  1.0000
  H   H84       1.0  0.9227237743096877  0.7123217072552063  0.6922787286489082  1.0000
  H   H85       1.0  0.6840469140981326  0.6028549296289825  0.7493952370254107  1.0000
  H   H86       1.0  0.652425196185902  0.5148242652193743  0.8243447660504941  1.0000
  H   H87       1.0  0.7664891012110074  0.47604599098959705  0.8922569884711891  1.0000
  H   H88       1.0  0.0226509096874637  0.658208679600044  0.7516788578801441  1.0000
  H   H89       1.0  0.7829293955973782  0.6747768501881809  0.7010846781496127  1.0000
  H   H90       1.0  0.9883599806411354  0.5718618450900621  0.8254637440666387  1.0000
  H   H91       1.0  0.28015206985260477  0.2869109630201904  0.6556000562931387  1.0000
  H   H92       1.0  0.8639156068211946  0.995588686343815  0.22391116158537014  1.0000
  H   H93       1.0  0.23045442345538444  0.3077294056773923  0.020048706522594287  1.0000
  H   H94       1.0  0.9346520501562665  0.2505749527265663  0.8534717009169981  1.0000
  H   H95       1.0  0.8280911425675014  0.17565654863518884  0.6904924242946818  1.0000
  H   H96       1.0  0.8742476167536778  0.10776435860847758  0.5837997988056642  1.0000
  H   H97       1.0  0.2709833416695914  0.24833181977236043  0.9065381727109241  1.0000
  H   H98       1.0  0.08184486366871366  0.2989029369404078  0.9736958232698284  1.0000
  H   H99       1.0  0.16289929898541539  0.17452507880496873  0.7464023282803609  1.0000
  H   H100      1.0  0.6245600113238368  0.34439058680619167  0.6313152260566071  1.0000
  H   H101      1.0  0.6400066730861907  0.7760940271945813  0.7716793811532554  1.0000
  H   H102      1.0  0.2104203732698692  0.9799631877938778  0.2876807667506611  1.0000
  H   H103      1.0  0.08117595842291081  0.14653043627117063  0.3971013354504152  1.0000
  H   H104      1.0  0.1375854912832892  0.3095061530677228  0.4851488770706213  1.0000
  H   H105      1.0  0.29043983972919557  0.4162043809872883  0.5239604455449793  1.0000
  H   H106      1.0  0.3644599910274735  0.09348232904712009  0.341803203650791  1.0000
  H   H107      1.0  0.10814993234937728  0.0263013221868675  0.3251896739506535  1.0000
  H   H108      1.0  0.41650646366321803  0.2536127262485762  0.4281497026647969  1.0000
  H   H109      1.0  0.7706355743523118  0.520613943696915  0.04123954095219759  1.0000
  H   H110      1.0  0.9348479191195267  0.684871395490319  0.36972698886803107  1.0000
  H   H111      1.0  0.25000097175982455  0.520614339502927  0.47938484070839144  1.0000
  H   H112      1.0  0.25000115231824066  0.6848624102758546  0.31513774556276525  1.0000
  H   H113      1.0  0.7293665599531848  0.9587606833043195  0.47938664964664895  1.0000
  H   H114      1.0  0.5651517084020838  0.6302736885157785  0.31512960110492827  1.0000
  H   H115      1.0  0.22936660518769264  0.4793860242700916  0.9587614267792618  1.0000
  H   H116      1.0  0.065153763638186  0.31512989588944146  0.6302731808146049  1.0000
  H   H117      1.0  0.7500008764323238  0.4793849667620903  0.5206147140700708  1.0000
  H   H118      1.0  0.749999868736779  0.315137557696211  0.6848617624200557  1.0000
  H   H119      1.0  0.27063379989564845  0.0412379612581972  0.5206132787394608  1.0000
  H   H120      1.0  0.43484848551580774  0.36972694116333565  0.6848698600822588  1.0000
  H   H121      1.0  0.48463713678519577  0.4692732017181598  0.23463919596197513  1.0000
  H   H122      1.0  0.3204943363675524  0.1409800861944674  0.07048936281555027  1.0000
  H   H123      1.0  0.015363200352375303  0.7653616352303415  0.5307264697175853  1.0000
  H   H124      1.0  0.179505508626569  0.9295092444556373  0.8590204474253653  1.0000
  H   H125      1.0  0.2499999316316631  0.7653583173675499  0.2346417922228312  1.0000
  H   H126      1.0  0.25000033881484274  0.9295071321983384  0.0704938659787686  1.0000
  H   H127      1.0  0.5153645469655429  0.5307280896578914  0.7653631379268475  1.0000
  H   H128      1.0  0.679506436048065  0.8590205434849024  0.9295092050913212  1.0000
  H   H129      1.0  0.9846357523720711  0.23463767104453126  0.4692710588439297  1.0000
  H   H130      1.0  0.8204942722280251  0.07048940010847096  0.14097929213797036  1.0000
  H   H131      1.0  0.7499999319313914  0.23464165060585163  0.7653584202175451  1.0000
  H   H132      1.0  0.7499995247482188  0.07049283577507028  0.9295063464616078  1.0000
  C   C1        1.0  0.6682544145594419  0.5573148687434466  0.10809943455402043  1.0000
  C   C2        1.0  0.7642429526843699  0.582939102067584  0.15883554065830907  1.0000
  C   C3        1.0  0.8119252413539044  0.6318183354286758  0.2515567942278594  1.0000
  C   C4        1.0  0.44614929697942063  0.40518015201821106  0.06689239231060647  1.0000
  C   C5        1.0  0.4229905637688133  0.35178714189959237  0.10949642853764621  1.0000
  C   C6        1.0  0.37961881437524164  0.2590903651408567  0.06399895157598931  1.0000
  C   C7        1.0  0.681696615197893  0.9501179460766593  0.27497338024337387  1.0000
  C   C8        1.0  0.4520596644253912  0.8044481257736177  0.22176490875071397  1.0000
  C   C9        1.0  0.3936538474624526  0.7151657727956006  0.1808648044976521  1.0000
  C   C10       1.0  0.4194483589058535  0.6550134736717652  0.14361310680155986  1.0000
  C   C11       1.0  0.7043197973293824  0.8853773863502139  0.2401232912057053  1.0000
  C   C12       1.0  0.5364182497353696  0.8338051410433067  0.22722219450881193  1.0000
  C   C13       1.0  0.5993923897129748  0.9248820260214573  0.2694577935850263  1.0000
  C   C14       1.0  0.5588914975430582  0.7685200023323872  0.19002722896360782  1.0000
  C   C15       1.0  0.6446365288844615  0.7962882550893936  0.19863906652034302  1.0000
  C   C16       1.0  0.11091845974694078  0.5507772144091163  0.4426572214085951  1.0000
  C   C17       1.0  0.18129640911772776  0.5758954305565638  0.4170539787627377  1.0000
  C   C18       1.0  0.18011385534316562  0.6197414232149825  0.36817938480771073  1.0000
  C   C19       1.0  0.04098102859631323  0.6617113134090076  0.5948220906510429  1.0000
  C   C20       1.0  0.07120739808862442  0.757705382325646  0.6482145025033219  1.0000
  C   C21       1.0  0.12052882901207332  0.8049078512802268  0.7409123887298463  1.0000
  C   C22       1.0  0.7315893234686255  0.32485847346207214  0.049892724358308244  1.0000
  C   C23       1.0  0.647609272835588  0.417315821792485  0.1955537547287278  1.0000
  C   C24       1.0  0.6784823082086858  0.4656941872776058  0.28483693562176876  1.0000
  C   C25       1.0  0.7644302280303137  0.48860146525197473  0.34499124913000406  1.0000
  C   C26       1.0  0.8189528441686987  0.3547559935975499  0.11463672194925315  1.0000
  C   C27       1.0  0.7026141692076208  0.3934215781837124  0.1661981782657875  1.0000
  C   C28       1.0  0.6745161654504913  0.34457406070898594  0.07512368935507406  1.0000
  C   C29       1.0  0.7903743626536439  0.4215199202253074  0.23148614459942957  1.0000
  C   C30       1.0  0.848356560851549  0.4023687698022869  0.20372428175615906  1.0000
  C   C31       1.0  0.560134235410494  0.8918680112991024  0.44922784689590856  1.0000
  C   C32       1.0  0.6053918045440979  0.8411442851212102  0.4241034743684652  1.0000
  C   C33       1.0  0.5603686123591273  0.7484243494965951  0.38025325794111337  1.0000
  C   C34       1.0  0.3792864364032339  0.9331047410040794  0.3382823141631163  1.0000
  C   C35       1.0  0.3135039276940644  0.8904985178843957  0.2422921787938107  1.0000
  C   C36       1.0  0.31562330821146384  0.9359967781440799  0.1950927841948839  1.0000
  C   C37       1.0  0.4067133753155758  0.725024965198692  0.675136148751527  1.0000
  C   C38       1.0  0.23027342420376568  0.7782140335718635  0.5826542763183724  1.0000
  C   C39       1.0  0.21277571765440223  0.8191293692155381  0.5342855628218998  1.0000
  C   C40       1.0  0.27582831914809697  0.8563918713628239  0.5113962748487779  1.0000
  C   C41       1.0  0.4641884321810821  0.7598768997875637  0.6452473490553174  1.0000
  C   C42       1.0  0.3091753100400751  0.772757398184808  0.6065571943664878  1.0000
  C   C43       1.0  0.32991805577385225  0.7305285698617607  0.655404220375452  1.0000
  C   C44       1.0  0.36884852210951635  0.8099603632136336  0.5784749437470822  1.0000
  C   C45       1.0  0.44598297973652007  0.8013526999517991  0.5976345959850562  1.0000
  C   C46       1.0  0.9398678296899234  0.5507726533477141  0.10813391967258225  1.0000
  C   C47       1.0  0.8946084447580345  0.5758962870268576  0.15885555540602073  1.0000
  C   C48       1.0  0.9396318627257967  0.6197472288525316  0.25157643523257883  1.0000
  C   C49       1.0  0.1207146311266668  0.6617173362969877  0.0668950594585098  1.0000
  C   C50       1.0  0.18649520296960975  0.7577073751568546  0.10950064798549863  1.0000
  C   C51       1.0  0.1843770780639104  0.8049082091683244  0.06400415047180269  1.0000
  C   C52       1.0  0.09328661454403425  0.32486412558259287  0.274975202652378  1.0000
  C   C53       1.0  0.2697267161886145  0.4173457242131846  0.22178547053457015  1.0000
  C   C54       1.0  0.287225138462233  0.465715078447431  0.18087077044503994  1.0000
  C   C55       1.0  0.22417246028231114  0.48860300044346877  0.14360775130671047  1.0000
  C   C56       1.0  0.035811543144326656  0.3547528715887579  0.2401231860836575  1.0000
  C   C57       1.0  0.19082484002214534  0.3934424520183768  0.22724191937588503  1.0000
  C   C58       1.0  0.1700814098327682  0.3445953515642086  0.269471285794303  1.0000
  C   C59       1.0  0.13115202212546953  0.4215247518490486  0.19003991204346704  1.0000
  C   C60       1.0  0.05401683940197441  0.4023652345425859  0.19864731326885024  1.0000
  C   C61       1.0  0.8317461556431381  0.8919024946076205  0.44268699235674813  1.0000
  C   C62       1.0  0.735758643847447  0.8411638611897415  0.41706085354746136  1.0000
  C   C63       1.0  0.6880753795379204  0.7484439400436071  0.368181983279328  1.0000
  C   C64       1.0  0.053851405737461326  0.9331096500573608  0.594822269542327  1.0000
  C   C65       1.0  0.0770101749237071  0.8905029749889833  0.648211913335615  1.0000
  C   C66       1.0  0.12038128491079182  0.9360009045970015  0.7409104577381598  1.0000
  C   C67       1.0  0.8183036929418748  0.7250264537003301  0.049882052453775146  1.0000
  C   C68       1.0  0.04794029470934894  0.778234949848027  0.1955517075908233  1.0000
  C   C69       1.0  0.10634578832564041  0.8191353248509896  0.28483451927249354  1.0000
  C   C70       1.0  0.08055151736734704  0.8563872930843458  0.3449860620777443  1.0000
  C   C71       1.0  0.7956806827708005  0.7598764174085627  0.11462250721579886  1.0000
  C   C72       1.0  0.9635818672938754  0.7727778860867004  0.16619450683862888  1.0000
  C   C73       1.0  0.9006071886615884  0.7305415415368228  0.07511750527517336  1.0000
  C   C74       1.0  0.9411090862774073  0.8099735932668609  0.2314800314538061  1.0000
  C   C75       1.0  0.8553639749172602  0.8013610755712364  0.20371177563832518  1.0000
  C   C76       1.0  0.38908371343190123  0.557343352300684  0.44922182262367727  1.0000
  C   C77       1.0  0.3187058021328255  0.5829462458213966  0.42410467206488534  1.0000
  C   C78       1.0  0.3198895138277606  0.6318211837471849  0.38025824122870217  1.0000
  C   C79       1.0  0.45902153526717615  0.405177673371348  0.338289080739429  1.0000
  C   C80       1.0  0.428792937008005  0.35178425468113517  0.24229404433507545  1.0000
  C   C81       1.0  0.37947121996840133  0.2590868322460905  0.195091251133789  1.0000
  C   C82       1.0  0.7684109543991298  0.950107143599517  0.6751424248917743  1.0000
  C   C83       1.0  0.8523926643143226  0.8044486104604044  0.5826844897950421  1.0000
  C   C84       1.0  0.821520561972548  0.715165547947052  0.5343061062131227  1.0000
  C   C85       1.0  0.7355720622921776  0.6550108235493182  0.5113996011230383  1.0000
  C   C86       1.0  0.6810465291133738  0.8853615240137528  0.6452433523557846  1.0000
  C   C87       1.0  0.797386630357181  0.8338025925791399  0.6065788741237413  1.0000
  C   C88       1.0  0.8254859451814409  0.9248775579259599  0.6554270867373334  1.0000
  C   C89       1.0  0.709626813399275  0.7685143725603112  0.578479984182664  1.0000
  C   C90       1.0  0.6516441798679152  0.7962756450832272  0.5976309023502895  1.0000
  C   C91       1.0  0.33174561394153557  0.4426831141170737  0.8918990808790922  1.0000
  C   C92       1.0  0.23575955770698434  0.41706152760327336  0.8411657579230649  1.0000
  C   C93       1.0  0.18807635894361138  0.36818163254086034  0.7484434436292915  1.0000
  C   C94       1.0  0.5538508139817608  0.5948191542525334  0.9331060549479985  1.0000
  C   C95       1.0  0.5770106231996336  0.6482154728892056  0.8905051073023387  1.0000
  C   C96       1.0  0.6203813795426567  0.7409102645382571  0.9360005096111906  1.0000
  C   C97       1.0  0.3183041582107505  0.04988268359900159  0.7250273518696773  1.0000
  C   C98       1.0  0.5479398680380638  0.1955511804968708  0.7782344317882064  1.0000
  C   C99       1.0  0.6063465945983282  0.2848341951780641  0.8191345146624017  1.0000
  C   C100      1.0  0.5805517525518411  0.3449858325971249  0.856386422560135  1.0000
  C   C101      1.0  0.2956809760792609  0.11462324332544678  0.7598774409073458  1.0000
  C   C102      1.0  0.4635812827280858  0.16619416522718208  0.7727771460301156  1.0000
  C   C103      1.0  0.40060747385008005  0.07511794195195168  0.7305424188553502  1.0000
  C   C104      1.0  0.4411092758655784  0.23148062734326658  0.8099735031494435  1.0000
  C   C105      1.0  0.355364244524182  0.20371237458626715  0.801361665592708  1.0000
  C   C106      1.0  0.8890845476749618  0.44922209184806416  0.5573454162731509  1.0000
  C   C107      1.0  0.8187034537005574  0.4241045374196303  0.5829446105229933  1.0000
  C   C108      1.0  0.819888572339735  0.38025788304658187  0.6318214408966227  1.0000
  C   C109      1.0  0.9590228889194207  0.3382886545495011  0.40518160775492623  1.0000
  C   C110      1.0  0.9287903136906336  0.24229260054405438  0.35178163448406957  1.0000
  C   C111      1.0  0.8794709518425208  0.19509079328388162  0.25908735083349654  1.0000
  C   C112      1.0  0.2684114496917616  0.6751421562145126  0.9501074667032015  1.0000
  C   C113      1.0  0.3523920798155442  0.5826848078806462  0.8044477072586461  1.0000
  C   C114      1.0  0.3215196234366857  0.5343064423939267  0.7151647151883722  1.0000
  C   C115      1.0  0.23557170361505791  0.5113991644195508  0.655010401680137  1.0000
  C   C116      1.0  0.18104668804650004  0.6452433126738626  0.885362077538126  1.0000
  C   C117      1.0  0.2973866042010229  0.6065790514919414  0.8338025538472638  1.0000
  C   C118      1.0  0.32548518720064823  0.6554265689641453  0.9248777726322928  1.0000
  C   C119      1.0  0.20962632804653933  0.5784793860410529  0.7685141146365879  1.0000
  C   C120      1.0  0.15164388170574472  0.597631198169523  0.7962761195069845  1.0000
  C   C121      1.0  0.4398687705043542  0.1081359268969848  0.5507731051347946  1.0000
  C   C122      1.0  0.39460764521089686  0.15885369773997837  0.5758953932934219  1.0000
  C   C123      1.0  0.43963249140435307  0.25157694188476387  0.6197467229187481  1.0000
  C   C124      1.0  0.6207162384120152  0.06689853548908788  0.661717765966138  1.0000
  C   C125      1.0  0.686494365065478  0.109499464976281  0.7577084754287142  1.0000
  C   C126      1.0  0.6843774651971728  0.0640038515315737  0.8049079479181671  1.0000
  C   C127      1.0  0.5932873978448114  0.2749756644778998  0.3248640423099758  1.0000
  C   C128      1.0  0.7697264391110323  0.22178593440246888  0.4173453950704555  1.0000
  C   C129      1.0  0.7872247246546349  0.1808705987572026  0.4657142973896954  1.0000
  C   C130      1.0  0.7241715439184446  0.14360809661243923  0.48860285548850163  1.0000
  C   C131      1.0  0.5358120103762118  0.24012306818424625  0.35475305220782616  1.0000
  C   C132      1.0  0.690825132268962  0.22724256978792567  0.3934426658451144  1.0000
  C   C133      1.0  0.6700821383922956  0.2694720598164224  0.3445957818632833  1.0000
  C   C134      1.0  0.6311519204477776  0.1900396047581693  0.42152545751606135  1.0000
  C   C135      1.0  0.5540163048322952  0.19864726802320828  0.40236542763254596  1.0000
  C   C136      1.0  0.06013319111684007  0.4492273146252828  0.8918650472586975  1.0000
  C   C137      1.0  0.10539348663908031  0.42410434264560576  0.8411455543525718  1.0000
  C   C138      1.0  0.0603689101863338  0.38025340082498355  0.7484232147773754  1.0000
  C   C139      1.0  0.8792837421070344  0.3382819699813381  0.9331011981771411  1.0000
  C   C140      1.0  0.813505819078436  0.24229259281149498  0.890501024203509  1.0000
  C   C141      1.0  0.815622537107998  0.19509242051145748  0.9359956629441513  1.0000
  C   C142      1.0  0.9067135796221137  0.6751365040955902  0.7250247995863504  1.0000
  C   C143      1.0  0.7302743053629185  0.5826542437570267  0.7782151195513478  1.0000
  C   C144      1.0  0.7127758830893  0.5342848895227802  0.819129819640878  1.0000
  C   C145      1.0  0.7758291400152045  0.5113969675260746  0.8563924865504333  1.0000
  C   C146      1.0  0.9641886510218214  0.6452477580894254  0.7598768161550706  1.0000
  C   C147      1.0  0.8091752714355421  0.6065568542505062  0.7727576099858098  1.0000
  C   C148      1.0  0.8299181228789364  0.6554039547053493  0.7305285957961658  1.0000
  C   C149      1.0  0.8688486685747134  0.5784745544173118  0.8099603471925506  1.0000
  C   C150      1.0  0.9459839337584125  0.5976353951339987  0.8013528777926523  1.0000
  C   C151      1.0  0.16825552883485528  0.10810342869898187  0.5573185253449466  1.0000
  C   C152      1.0  0.26424105405043713  0.15883345996600437  0.5829378720872924  1.0000
  C   C153      1.0  0.3119251457278338  0.251557351337496  0.6318188908608562  1.0000
  C   C154      1.0  0.9461500308458994  0.0668969349537605  0.4051839312380423  1.0000
  C   C155      1.0  0.9229891908815516  0.10949368446755159  0.3517837761915104  1.0000
  C   C156      1.0  0.8796189095036124  0.06399972508025799  0.25909008555211693  1.0000
  C   C157      1.0  0.18169641876406925  0.27497285256762877  0.9501180179594684  1.0000
  C   C158      1.0  0.9520601478479449  0.22176501812378288  0.8044486936723202  1.0000
  C   C159      1.0  0.8936544063370205  0.18086530482533897  0.7151665650693246  1.0000
  C   C160      1.0  0.9194492560412895  0.14361333659131495  0.6550146700353067  1.0000
  C   C161      1.0  0.2043194289351432  0.24012288885939626  0.8853775631974442  1.0000
  C   C162      1.0  0.0364185752634185  0.22722208188510962  0.8338058944245219  1.0000
  C   C163      1.0  0.09939267490146614  0.2694584264365857  0.9248827071652032  1.0000
  C   C164      1.0  0.058890198043151494  0.1900263747090776  0.7685194511122475  1.0000
  C   C165      1.0  0.14463555804270095  0.19863823069739783  0.7962886470036922  1.0000
  C   C166      1.0  0.6109175562625211  0.4426559539640777  0.5507786254351075  1.0000
  C   C167      1.0  0.6812976176076048  0.41705504555357453  0.5758960640860664  1.0000
  C   C168      1.0  0.6801126654639946  0.3681787842207527  0.6197421854512158  1.0000
  C   C169      1.0  0.5409784115183598  0.594818986076163  0.66171112602283  1.0000
  C   C170      1.0  0.5712087457497076  0.6482170366986251  0.7577061253475605  1.0000
  C   C171      1.0  0.6205283124950468  0.740912474024398  0.8049080894051386  1.0000
  C   C172      1.0  0.2315889094121815  0.049892824372960776  0.3248583286001505  1.0000
  C   C173      1.0  0.14760786045491864  0.19555268092255315  0.4173153022420522  1.0000
  C   C174      1.0  0.1784805415426689  0.284835743435238  0.46569333359519055  1.0000
  C   C175      1.0  0.2644290417195591  0.344990467831117  0.4886009207883716  1.0000
  C   C176      1.0  0.31895300359833806  0.11463778225580508  0.3547565292346846  1.0000
  C   C177      1.0  0.20261323295761707  0.16619737539519258  0.3934207972650867  1.0000
  C   C178      1.0  0.17451482822719563  0.07512307174969378  0.3445736453757107  1.0000
  C   C179      1.0  0.29037453875535135  0.2314862571146747  0.4215203957016129  1.0000
  C   C180      1.0  0.3483562626893715  0.20372432288858275  0.40236949891286133  1.0000
  C   C181      1.0  0.806589720258863  0.5565780775277673  0.11316410910245621  1.0000
  C   C182      1.0  0.8987846095308568  0.6487967575085706  0.2975878527608631  1.0000
  C   C183      1.0  0.2500009378042377  0.5565793991574493  0.4434207098432664  1.0000
  C   C184      1.0  0.25000158281912377  0.6487914776144024  0.3512086086948756  1.0000
  C   C185      1.0  0.6934116186132826  0.8868367834676788  0.4434228567602077  1.0000
  C   C186      1.0  0.6012159146541193  0.7024126420937762  0.3512041919363186  1.0000
  C   C187      1.0  0.19341072180192492  0.44342189044589725  0.8868352100575976  1.0000
  C   C188      1.0  0.10121707372336887  0.3512045338693354  0.7024133990248629  1.0000
  C   C189      1.0  0.7500009108844166  0.44341990710571366  0.5565799270382925  1.0000
  C   C190      1.0  0.7500000172301354  0.35120849035606466  0.6487910881107197  1.0000
  C   C191      1.0  0.30658981649805384  0.11316516961567658  0.5565785370526513  1.0000
  C   C192      1.0  0.39878444494646464  0.2975860024696644  0.6487951953982503  1.0000
  C   C193      1.0  0.44865184176322254  0.3973036443293337  0.19865444814846  1.0000
  C   C194      1.0  0.3565798800752589  0.2131547717799761  0.10657754196294175  1.0000
  C   C195      1.0  0.05134928698618777  0.8013456200657741  0.6026973554138165  1.0000
  C   C196      1.0  0.14341960689543495  0.8934207107789263  0.7868443768842326  1.0000
  C   C197      1.0  0.24999971901406315  0.8013438899193444  0.19865584316289633  1.0000
  C   C198      1.0  0.24999970478074113  0.8934189951761338  0.10658184692588427  1.0000
  C   C199      1.0  0.5513486005458147  0.6026963236434071  0.8013454120631422  1.0000
  C   C200      1.0  0.6434206444457261  0.7868465196039125  0.8934217090226042  1.0000
  C   C201      1.0  0.9486517350618583  0.19865434790257547  0.3973043167751982  1.0000
  C   C202      1.0  0.8565786843745754  0.10657727208731418  0.21315303102901584  1.0000
  C   C203      1.0  0.750000474903828  0.19865673975976955  0.8013436180242905  1.0000
  C   C204      1.0  0.7499998284274767  0.10658031109156947  0.8934191167676744  1.0000
  N   N1        1.0  0.49829634843297294  0.679827898163566  0.14737805455403927  1.0000
  N   N2        1.0  0.8184689881036815  0.46756313538941896  0.3201778433513311  1.0000
  N   N3        1.0  0.35090676090990747  0.8526179654821245  0.5324391390393399  1.0000
  N   N4        1.0  0.14909436720976285  0.46756027404849476  0.14738221717037447  1.0000
  N   N5        1.0  0.0017036854515593764  0.8526224070205896  0.32017220177290534  1.0000
  N   N6        1.0  0.6815332049919078  0.6798228643226808  0.5324372148571898  1.0000
  N   N7        1.0  0.5017049207649362  0.32017140810305017  0.8526213114016556  1.0000
  N   N8        1.0  0.18153377067881846  0.5324368325750654  0.6798238542544509  1.0000
  N   N9        1.0  0.6490940117539735  0.14738266419631424  0.4675599699190728  1.0000
  N   N10       1.0  0.8509066540935137  0.5324396939226405  0.8526178318640022  1.0000
  N   N11       1.0  0.9982959304651118  0.14737822265641398  0.679829234797687  1.0000
  N   N12       1.0  0.3184678165596182  0.3201771036475307  0.46756337522872826  1.0000
  O   O1        1.0  0.6402272162134394  0.6046082560008443  0.14576662302486196  1.0000
  O   O2        1.0  0.4656155074381231  0.4855414828355506  0.10731104772092681  1.0000
  O   O3        1.0  0.6212832822323405  0.4892243213789128  0.031117856304298575  1.0000
  O   O4        1.0  0.44621540716848773  0.36617236517626844  0.9956130670448715  1.0000
  O   O5        1.0  0.0356037350428694  0.5411556068855036  0.39534879159484865  1.0000
  O   O6        1.0  0.9800815956066415  0.6217728303196709  0.5144605049447719  1.0000
  O   O7        1.0  0.13201011293219986  0.5418757936527854  0.510739994726869  1.0000
  O   O8        1.0  0.08006028275728726  0.6294398005914699  0.6338201386282591  1.0000
  O   O9        1.0  0.4944587138543993  0.8541985889554269  0.45887921724470715  1.0000
  O   O10       1.0  0.35833974607132285  0.8927016642378759  0.3782410639198588  1.0000
  O   O11       1.0  0.5901227126050443  0.9688447511799225  0.4581096732028912  1.0000
  O   O12       1.0  0.4506379181202788  0.0043669496506310995  0.3705335982937256  1.0000
  O   O13       1.0  0.005541273660561743  0.5411203687533827  0.14580160694715252  1.0000
  O   O14       1.0  0.14166014299130572  0.6217588323536275  0.10729659667475734  1.0000
  O   O15       1.0  0.9098799138250653  0.5418907831881797  0.031156421439561724  1.0000
  O   O16       1.0  0.04936290799880536  0.6294657162640362  0.9956313771545596  1.0000
  O   O17       1.0  0.8597749375347306  0.8542342868809809  0.39539152591918025  1.0000
  O   O18       1.0  0.034384110092382396  0.892686925117232  0.5144558985456769  1.0000
  O   O19       1.0  0.8787154385998689  0.9688797573100912  0.5107749251297236  1.0000
  O   O20       1.0  0.0537845821269798  0.0043839151346248  0.6338260401021643  1.0000
  O   O21       1.0  0.4643971761704292  0.6046504558086665  0.45884410740682563  1.0000
  O   O22       1.0  0.5199192807345341  0.4855375903411882  0.37822736310759103  1.0000
  O   O23       1.0  0.36799069998699707  0.48925789437257083  0.4581224735996869  1.0000
  O   O24       1.0  0.41994194311560307  0.3661768029214513  0.3705616992003016  1.0000
  O   O25       1.0  0.35977364064842715  0.3953936970813244  0.8542362051198608  1.0000
  O   O26       1.0  0.5343849353499123  0.514463117068665  0.8926914552519988  1.0000
  O   O27       1.0  0.3787184847233647  0.5107782934045773  0.9688860325646474  1.0000
  O   O28       1.0  0.5537858635014388  0.6338315730181208  0.004391105878333706  1.0000
  O   O29       1.0  0.9643941419050533  0.45884502280372164  0.6046477500950616  1.0000
  O   O30       1.0  0.019914047842043148  0.37822449085282966  0.4855336526212994  1.0000
  O   O31       1.0  0.8679874324196033  0.4581241743353743  0.4892545929584955  1.0000
  O   O32       1.0  0.919937675657813  0.3705621525116811  0.36617417068096353  1.0000
  O   O33       1.0  0.5055374283626151  0.14579740879690203  0.5411200667825611  1.0000
  O   O34       1.0  0.6416578857302824  0.10729499521232097  0.6217605517574967  1.0000
  O   O35       1.0  0.4098751665946878  0.031151246567610296  0.5418901772927001  1.0000
  O   O36       1.0  0.5493575626422994  0.9956277246930724  0.629465565085276  1.0000
  O   O37       1.0  0.9944632226011546  0.45887959920445087  0.8542017392300352  1.0000
  O   O38       1.0  0.8583413753425193  0.37823981220383013  0.8927047914599912  1.0000
  O   O39       1.0  0.09012458293316428  0.45810918476779955  0.968848006840723  1.0000
  O   O40       1.0  0.9506407603810273  0.37053491340362393  0.004370299072355945  1.0000
  O   O41       1.0  0.14022707460232203  0.1457630342748573  0.6046041676458458  1.0000
  O   O42       1.0  0.9656150885581739  0.10730708752720369  0.48553505786655654  1.0000
  O   O43       1.0  0.1212810324999722  0.031112270220169998  0.4892188006768449  1.0000
  O   O44       1.0  0.9462141217448448  0.99560678898181  0.366166886015364  1.0000
  O   O45       1.0  0.535606326030198  0.3953521589765217  0.5411565605696183  1.0000
  O   O46       1.0  0.4800835602599135  0.5144637010344509  0.6217737252721349  1.0000
  O   O47       1.0  0.6320130493635076  0.5107440587108768  0.5418758881434442  1.0000
  O   O48       1.0  0.5800616415627501  0.6338225033406316  0.6294373399433936  1.0000
