data_image0
_chemical_formula_structural       Al2H48C42N30O12
_chemical_formula_sum              "Al2 H48 C42 N30 O12"
_cell_length_a       3.851997271062942
_cell_length_b       28.1658788494997
_cell_length_c       28.16591155580173
_cell_angle_alpha    120.00022799377288
_cell_angle_beta     90.00029113141822
_cell_angle_gamma    90.00034784415732

_space_group_name_H-M_alt    "P 1"
_space_group_IT_number       1

loop_
  _space_group_symop_operation_xyz
  'x, y, z'

loop_
  _atom_site_type_symbol
  _atom_site_label
  _atom_site_symmetry_multiplicity
  _atom_site_fract_x
  _atom_site_fract_y
  _atom_site_fract_z
  _atom_site_occupancy
  Al  Al1       1.0  0.9602723820460638  0.5000000215999023  0.5000008350533491  1.0000
  Al  Al2       1.0  0.9602578057241901  0.166666926382405  0.8333345763506373  1.0000
  H   H1        1.0  0.7482830728231206  0.30260836705532057  0.8666009814480304  1.0000
  H   H2        1.0  0.71776530960134  0.36536504422898025  0.8706643733130265  1.0000
  H   H3        1.0  0.8064585988856904  0.40028291140399125  0.7713921534329131  1.0000
  H   H4        1.0  0.008553535979253  0.386974713077862  0.8161762210116876  1.0000
  H   H5        1.0  0.1823730615144967  0.15224097939621126  0.7045907654291241  1.0000
  H   H6        1.0  0.2638647985066385  0.15220661501832214  0.6444992125277693  1.0000
  H   H7        1.0  0.29730894632186283  0.25427841171273974  0.6149119862207115  1.0000
  H   H8        1.0  0.029247248374986202  0.2116339396536946  0.6257571269114665  1.0000
  H   H9        1.0  0.8064597405035557  0.2663799262853885  0.5619412068937564  1.0000
  H   H10       1.0  0.008548511841063101  0.2796870033715991  0.5171564767792489  1.0000
  H   H11       1.0  0.7482982163057982  0.3640538728554645  0.4667313746902551  1.0000
  H   H12       1.0  0.7177567462382798  0.30129755700338734  0.46266752608453743  1.0000
  H   H13       1.0  0.29733245145958154  0.41238223482084635  0.7184212638696224  1.0000
  H   H14       1.0  0.029290446748795797  0.4550301450313228  0.7075775278842045  1.0000
  H   H15       1.0  0.18241614854313326  0.5144215740590923  0.6287423487843924  1.0000
  H   H16       1.0  0.26391777726223614  0.5144553582034349  0.6888333164744651  1.0000
  H   H17       1.0  0.7482592208534556  0.06399008302679482  0.6973905146559575  1.0000
  H   H18       1.0  0.7177194108552242  0.005298989556919757  0.6346342699600029  1.0000
  H   H19       1.0  0.8064479130662862  0.8711055692880975  0.5997160338285283  1.0000
  H   H20       1.0  0.0085231219477038  0.929200581776243  0.6130241583394849  1.0000
  H   H21       1.0  0.18238891638159774  0.052345968913165696  0.847757833953061  1.0000
  H   H22       1.0  0.2639104346079436  0.9922911951570725  0.8477942902956032  1.0000
  H   H23       1.0  0.2973351270797409  0.8606293801816423  0.7457208685162017  1.0000
  H   H24       1.0  0.029289107416253995  0.914120403250763  0.788368734994144  1.0000
  H   H25       1.0  0.8064719365762444  0.7955586859560242  0.7336228167516694  1.0000
  H   H26       1.0  0.0085492835717602  0.7374660074746373  0.7203162550595793  1.0000
  H   H27       1.0  0.748288319658613  0.6026741772543005  0.6359455017059191  1.0000
  H   H28       1.0  0.7177377437257276  0.6613663421022764  0.6987019997180752  1.0000
  H   H29       1.0  0.29733633768805123  0.8060367541470655  0.5876194822833014  1.0000
  H   H30       1.0  0.029299422967213197  0.7525440888296941  0.5449695799681182  1.0000
  H   H31       1.0  0.18241327410661506  0.6143196700716872  0.4855800056410331  1.0000
  H   H32       1.0  0.26394114898777593  0.6743768808369596  0.4855447245009259  1.0000
  H   H33       1.0  0.7482805170494872  0.13339836716692596  0.9360095203665608  1.0000
  H   H34       1.0  0.7177336639873816  0.1293331753744767  0.9947011280525402  1.0000
  H   H35       1.0  0.8064435365785985  0.22860541127312226  0.12889266876111802  1.0000
  H   H36       1.0  0.008528184871480002  0.1838194353369005  0.07080015811661163  1.0000
  H   H37       1.0  0.18239088659535702  0.29540906181105003  0.9476541215917892  1.0000
  H   H38       1.0  0.2639101110085066  0.3554998106122084  0.007710311804388031  1.0000
  H   H39       1.0  0.2973398879288922  0.3850870537585891  0.13937105143918427  1.0000
  H   H40       1.0  0.0292881574392965  0.37424464241814803  0.0858797487170619  1.0000
  H   H41       1.0  0.8064521203300075  0.4380587752339835  0.20444114781049197  1.0000
  H   H42       1.0  0.008530412063855396  0.4828446950357517  0.26253406102454585  1.0000
  H   H43       1.0  0.7482800037496204  0.5332675329808582  0.3973248561527143  1.0000
  H   H44       1.0  0.7177364708372737  0.5373325260473507  0.338632641643322  1.0000
  H   H45       1.0  0.297325556422294  0.2815766216980933  0.19396310510838793  1.0000
  H   H46       1.0  0.029276180208285003  0.2924193709612055  0.24745394219975483  1.0000
  H   H47       1.0  0.1824113037857842  0.37125496674069314  0.3856796477897291  1.0000
  H   H48       1.0  0.2639198758306663  0.3111647815871664  0.32562353363611163  1.0000
  C   C1        1.0  0.4637354186967571  0.46231853571877224  0.4140011009588349  1.0000
  C   C2        1.0  0.463729556768854  0.45168100854692034  0.5376819578959129  1.0000
  C   C3        1.0  0.4637327352355812  0.5859992789132137  0.5483190701087324  1.0000
  C   C4        1.0  0.46372100735156613  0.21498417831698913  0.7956529526123148  1.0000
  C   C5        1.0  0.46371782892425273  0.0806663581265782  0.785017520465388  1.0000
  C   C6        1.0  0.4637229336564843  0.20434991615242395  0.9193333848828333  1.0000
  C   C7        1.0  0.4808240507293818  0.2470268732278883  0.767846697565787  1.0000
  C   C8        1.0  0.34958160139652955  0.22485450810665958  0.7136127518259769  1.0000
  C   C9        1.0  0.38339799589520845  0.2545033565752847  0.6856334237041324  1.0000
  C   C10       1.0  0.5268499339627867  0.3081770914220813  0.7133572459763116  1.0000
  C   C11       1.0  0.6489439013348032  0.33079429167757013  0.7680999810840419  1.0000
  C   C12       1.0  0.6353741057317349  0.3002938579991294  0.7948439982451418  1.0000
  C   C13       1.0  0.6489352739655203  0.3358654949239651  0.5652323875964242  1.0000
  C   C14       1.0  0.5268364411699339  0.3584847956588393  0.6199747708594004  1.0000
  C   C15       1.0  0.3834060368204034  0.4121579469216672  0.6476980183101021  1.0000
  C   C16       1.0  0.34957700438389594  0.44180730152364595  0.6197187884238105  1.0000
  C   C17       1.0  0.4808295488768978  0.419634080395639  0.5654839786606942  1.0000
  C   C18       1.0  0.6353529216144337  0.3663679970040192  0.538488389847366  1.0000
  C   C19       1.0  0.48081615488789  0.02081787108578952  0.7529715707196445  1.0000
  C   C20       1.0  0.3495737357412949  0.9887571177604143  0.7751461143573338  1.0000
  C   C21       1.0  0.3834037329301552  0.9311280611495861  0.7454962870603908  1.0000
  C   C22       1.0  0.5268394931454947  0.9051776956175815  0.6918233886304109  1.0000
  C   C23       1.0  0.6489193389868079  0.9373031496089086  0.6692047543088435  1.0000
  C   C24       1.0  0.6353437757884349  0.9945487882416798  0.6997059732259318  1.0000
  C   C25       1.0  0.6489561546012367  0.7293626298601552  0.6641356301172935  1.0000
  C   C26       1.0  0.5268535844661314  0.7614886543296251  0.6415167538044031  1.0000
  C   C27       1.0  0.38341479046010823  0.7355384153012069  0.587843990639712  1.0000
  C   C28       1.0  0.3495915725794205  0.6779115998090788  0.5581939467453054  1.0000
  C   C29       1.0  0.48083744492429054  0.6458471782555364  0.5803656610021833  1.0000
  C   C30       1.0  0.6353639934296353  0.672117749300746  0.6336314804316672  1.0000
  C   C31       1.0  0.4808300117556286  0.23215275877292643  0.9791822286374625  1.0000
  C   C32       1.0  0.3495810717536187  0.28638686956844595  0.011243765423493814  1.0000
  C   C33       1.0  0.38341190662751506  0.3143651234431246  0.06887219336727672  1.0000
  C   C34       1.0  0.5268464238919462  0.2866411818788492  0.09482109409647423  1.0000
  C   C35       1.0  0.6489449366131695  0.23189851930366961  0.06269615386825932  1.0000
  C   C36       1.0  0.6353581793608926  0.2051548119098356  0.005450776739650131  1.0000
  C   C37       1.0  0.6489297286787732  0.4347666461358984  0.2706361914758091  1.0000
  C   C38       1.0  0.5268432294061753  0.3800247992306324  0.23851289430174213  1.0000
  C   C39       1.0  0.38340059637634727  0.3523000141810756  0.2644621901985503  1.0000
  C   C40       1.0  0.3495808121790703  0.3802788840317888  0.3220891863668384  1.0000
  C   C41       1.0  0.4808209919540474  0.4345129202240869  0.35415153310511727  1.0000
  C   C42       1.0  0.6353617418777233  0.4615111518252277  0.3278807278748488  1.0000
  N   N1        1.0  0.5415025099333306  0.34380090113850764  0.6929562421257457  1.0000
  N   N2        1.0  0.5415037198370457  0.32286095437649454  0.6403765621754899  1.0000
  N   N3        1.0  0.5415027413381637  0.849152591545341  0.6561997487532523  1.0000
  N   N4        1.0  0.5415049987994394  0.8175137268318197  0.6771411811431136  1.0000
  N   N5        1.0  0.5415077856232954  0.30704245634542815  0.15084653651872773  1.0000
  N   N6        1.0  0.5415043183147789  0.3596226879836594  0.18248620424071052  1.0000
  N   N7        1.0  0.7758170005610483  0.32481874071386596  0.8474312659935919  1.0000
  N   N8        1.0  0.7795064405543641  0.38453343495407927  0.7967915416886768  1.0000
  N   N9        1.0  0.19097132934420813  0.17384606227924596  0.6845550234901339  1.0000
  N   N10       1.0  0.2684665005090423  0.22939513293556507  0.6314297068019812  1.0000
  N   N11       1.0  0.7795047993449344  0.2821282397450702  0.5365414772220163  1.0000
  N   N12       1.0  0.7758162486377175  0.3418431880131081  0.4859007772797029  1.0000
  N   N13       1.0  0.2684905366358024  0.43726893762720903  0.701902869442172  1.0000
  N   N14       1.0  0.19100377035382368  0.4928160949030131  0.6487785138526548  1.0000
  N   N15       1.0  0.7757812944952106  0.022610802319462702  0.6751799263092266  1.0000
  N   N16       1.0  0.7794812772595279  0.9122557942650362  0.6154653021950838  1.0000
  N   N17       1.0  0.19098574778554683  0.01070660093605378  0.8261538218552573  1.0000
  N   N18       1.0  0.2684865162556562  0.902033465609037  0.7706070852904006  1.0000
  N   N19       1.0  0.7795107045832526  0.7544125431587857  0.7178743525011129  1.0000
  N   N20       1.0  0.7758259943661867  0.6440557821273459  0.6581588224983578  1.0000
  N   N21       1.0  0.26850058783846714  0.7646335378291199  0.5627337264162408  1.0000
  N   N22       1.0  0.19100233241660192  0.6559610319252441  0.5071856011253928  1.0000
  N   N23       1.0  0.7758050518009939  0.15256714973264712  0.9773872373818335  1.0000
  N   N24       1.0  0.7794874032954695  0.2032073984310969  0.08774470047453062  1.0000
  N   N25       1.0  0.1909850061342837  0.31544570267603694  0.9892958206465609  1.0000
  N   N26       1.0  0.26849142331072057  0.36856959322683014  0.0979671831350757  1.0000
  N   N27       1.0  0.7794959620860454  0.4634582202131696  0.24558972995284023  1.0000
  N   N28       1.0  0.77580223692177  0.5140990139615269  0.35594412129474057  1.0000
  N   N29       1.0  0.26848966032737553  0.29809450116342623  0.23536575425373482  1.0000
  N   N30       1.0  0.19099528577523017  0.3512191447770975  0.344039997001417  1.0000
  O   O1        1.0  0.6901057227199842  0.5573987255757302  0.5569936390233678  1.0000
  O   O2        1.0  0.6901024341626397  0.49959391430758165  0.4426024370393833  1.0000
  O   O3        1.0  0.6900995884701188  0.4430072294042872  0.5004074882304934  1.0000
  O   O4        1.0  0.22435186756832343  0.5628155610354996  0.5118144350181525  1.0000
  O   O5        1.0  0.22434569827067458  0.4881870813314748  0.5510033465794422  1.0000
  O   O6        1.0  0.22434023840513356  0.44899738389702293  0.43718557238428696  1.0000
  O   O7        1.0  0.6900846916397327  0.16707306810080513  0.890731385440148  1.0000
  O   O8        1.0  0.6900823452127226  0.223658113143614  0.8329279740976077  1.0000
  O   O9        1.0  0.6900736149664368  0.10926865207892432  0.7763426285196289  1.0000
  O   O10       1.0  0.22433792014037832  0.21767098667373846  0.896149666706954  1.0000
  O   O11       1.0  0.2243288869979168  0.10385066458167821  0.8215215288652544  1.0000
  O   O12       1.0  0.2243298641707554  0.1784789942229424  0.7823320572780262  1.0000
