data_image0
_chemical_formula_structural       Cu4H24C24S4N4
_chemical_formula_sum              "Cu4 H24 C24 S4 N4"
_cell_length_a       6.098952957872593
_cell_length_b       7.001533598522195
_cell_length_c       13.665168092336843
_cell_angle_alpha    89.99606993027543
_cell_angle_beta     95.55562430715213
_cell_angle_gamma    89.99960522811752

_space_group_name_H-M_alt    "P 1"
_space_group_IT_number       1

loop_
  _space_group_symop_operation_xyz
  'x, y, z'

loop_
  _atom_site_type_symbol
  _atom_site_label
  _atom_site_symmetry_multiplicity
  _atom_site_fract_x
  _atom_site_fract_y
  _atom_site_fract_z
  _atom_site_occupancy
  Cu  Cu1       1.0  0.7835703031541641  0.12022008301344302  0.9438631289673793  1.0000
  Cu  Cu2       1.0  0.7164334064802985  0.6202114932304711  0.05613863093508092  1.0000
  Cu  Cu3       1.0  0.2164416723022597  0.8797701848839166  0.056142192209300404  1.0000
  Cu  Cu4       1.0  0.2835556046691607  0.37978306004692547  0.9438583189615031  1.0000
  H   H1        1.0  0.09423680364298552  0.8526728143574759  0.2648502806139064  1.0000
  H   H2        1.0  0.4057740558213537  0.3527294366679996  0.7351562188185596  1.0000
  H   H3        1.0  0.9057785944310692  0.14731602588302198  0.7351456841496786  1.0000
  H   H4        1.0  0.5942313302238204  0.6472694008169455  0.2648487999980915  1.0000
  H   H5        1.0  0.3788589044157433  0.1413865036112796  0.3303858887042495  1.0000
  H   H6        1.0  0.12111138388991798  0.641486889678106  0.6696044000989191  1.0000
  H   H7        1.0  0.6211417266465702  0.8586080500314567  0.6696050079031295  1.0000
  H   H8        1.0  0.8788808035892044  0.35853622817926106  0.3304014765649157  1.0000
  H   H9        1.0  0.007562679334384401  0.8982189767551036  0.4368446231136076  1.0000
  H   H10       1.0  0.4924226714321731  0.39831902224648996  0.5631605298991502  1.0000
  H   H11       1.0  0.9924263810580172  0.10177129198515193  0.5631486701153819  1.0000
  H   H12       1.0  0.5075744383434966  0.6017069520052017  0.4368470360625381  1.0000
  H   H13       1.0  0.6495715998040694  0.04948683669171321  0.47004050121065444  1.0000
  H   H14       1.0  0.8503971256010486  0.5496285571971455  0.5299585384391676  1.0000
  H   H15       1.0  0.3504174901609574  0.950497719157518  0.5299505980755654  1.0000
  H   H16       1.0  0.14958681523003037  0.4504102715018448  0.4700476915319811  1.0000
  H   H17       1.0  0.31520569698058404  0.19204516818479783  0.1613432929170742  1.0000
  H   H18       1.0  0.18478186632797386  0.6920674738084358  0.838644502595912  1.0000
  H   H19       1.0  0.684808132379203  0.8079565267729765  0.8386467452653292  1.0000
  H   H20       1.0  0.8152119391816084  0.30792993524339357  0.1613636441391009  1.0000
  H   H21       1.0  0.4918215235085981  0.1390502135051079  0.07992162814845472  1.0000
  H   H22       1.0  0.0081850664676963  0.6390699353228442  0.92006894747513  1.0000
  H   H23       1.0  0.5081907176741537  0.8609386274212056  0.9200639466240546  1.0000
  H   H24       1.0  0.9918384305377825  0.36091461942892517  0.07993763401015029  1.0000
  C   C1        1.0  0.7848194120664331  0.9638723301202746  0.20039580560644768  1.0000
  C   C2        1.0  0.7151451705546062  0.4639100860779807  0.7996144756895589  1.0000
  C   C3        1.0  0.21516621584265747  0.036122222746200805  0.7996075753323879  1.0000
  C   C4        1.0  0.2848421244203365  0.5360787538406627  0.2003875182063908  1.0000
  C   C5        1.0  0.9372945490976221  0.9151445682606508  0.2799753884176255  1.0000
  C   C6        1.0  0.5626874774091134  0.4152120500550041  0.7200272010189793  1.0000
  C   C7        1.0  0.06268791196902158  0.08486283957063993  0.72001833364304  1.0000
  C   C8        1.0  0.43730466082706687  0.5848153523395041  0.2799823323124357  1.0000
  C   C9        1.0  0.5806957311122076  0.0448543900346365  0.21925727862965522  1.0000
  C   C10       1.0  0.9193243186594201  0.5449187654472994  0.7807311105928819  1.0000
  C   C11       1.0  0.41932973809934276  0.9551173119549076  0.7807252441165319  1.0000
  C   C12       1.0  0.08068595037829598  0.45507578694862627  0.2192785230500505  1.0000
  C   C13       1.0  0.5354001688085148  0.07610416059507229  0.3166603318359691  1.0000
  C   C14       1.0  0.9645698870116062  0.5762067225483493  0.683327566283893  1.0000
  C   C15       1.0  0.46460048199737247  0.9238832518504339  0.6833291022041835  1.0000
  C   C16       1.0  0.0353796175116017  0.42380211367611065  0.3166653760875633  1.0000
  C   C17       1.0  0.8883911147908846  0.9417197153871512  0.3764966275026325  1.0000
  C   C18       1.0  0.6116118726113128  0.4418038262356775  0.623505966426464  1.0000
  C   C19       1.0  0.11161112425308059  0.0582734097972164  0.6234972700787225  1.0000
  C   C20       1.0  0.38839022844742727  0.5582135786759537  0.37649816959826415  1.0000
  C   C21       1.0  0.6874497650573018  0.023938676017593297  0.394791985413697  1.0000
  C   C22       1.0  0.8125522751929495  0.5240464905796786  0.605214624906715  1.0000
  C   C23       1.0  0.3125523165020354  0.9760573049208647  0.6052136137035405  1.0000
  C   C24       1.0  0.18746131768351398  0.4759894814381695  0.3947929650279606  1.0000
  S   S1        1.0  0.8477212174419575  0.9173303211133474  0.07848823950745748  1.0000
  S   S2        1.0  0.6522756571806099  0.4173482076894004  0.921510562315099  1.0000
  S   S3        1.0  0.15225630188977846  0.0826456650578464  0.9215052564791719  1.0000
  S   S4        1.0  0.34774625153794864  0.5826363473575993  0.07849155552392521  1.0000
  N   N1        1.0  0.4208531996836767  0.08989435460085102  0.1404829488218695  1.0000
  N   N2        1.0  0.0791375110772776  0.589934470003726  0.8595269624676051  1.0000
  N   N3        1.0  0.5791390470749816  0.9101016266307269  0.8595185402453183  1.0000
  N   N4        1.0  0.9208676386921151  0.41007436414644616  0.140495608547802  1.0000
