data_image0
_chemical_formula_structural       Zn2H32C36N16O8
_chemical_formula_sum              "Zn2 H32 C36 N16 O8"
_cell_length_a       8.569457224835467
_cell_length_b       8.56924956958231
_cell_length_c       16.06708916801377
_cell_angle_alpha    103.89322325601152
_cell_angle_beta     103.89352089013498
_cell_angle_gamma    95.4333269915619

_space_group_name_H-M_alt    "P 1"
_space_group_IT_number       1

loop_
  _space_group_symop_operation_xyz
  'x, y, z'

loop_
  _atom_site_type_symbol
  _atom_site_label
  _atom_site_symmetry_multiplicity
  _atom_site_fract_x
  _atom_site_fract_y
  _atom_site_fract_z
  _atom_site_occupancy
  Zn  Zn1       1.0  0.2922659884361564  0.7921309880540759  0.5000055909182137  1.0000
  Zn  Zn2       1.0  0.042122006241143595  0.0422539535496256  4.017356609200474e-06  1.0000
  H   H1        1.0  0.45557068669496203  0.7730940680411749  0.6687598978237546  1.0000
  H   H2        1.0  0.10464559022675958  0.7869054701986542  0.33121446445370856  1.0000
  H   H3        1.0  0.023083238905016394  0.20556531327437708  0.1687565434597076  1.0000
  H   H4        1.0  0.036892998446589276  0.8546396008517546  0.8312105749843114  1.0000
  H   H5        1.0  0.7308128640190289  0.4000711060222599  0.37533483670949164  1.0000
  H   H6        1.0  0.024442184030618784  0.35495756836139936  0.6252998247632534  1.0000
  H   H7        1.0  0.6500676472158203  0.4807888871243192  0.8753359726781583  1.0000
  H   H8        1.0  0.6049577383829003  0.7744356834286418  0.12529646162494154  1.0000
  H   H9        1.0  0.528683922136544  0.3362327824218595  0.4391745658389539  1.0000
  H   H10       1.0  0.897159336129171  0.08876637711905738  0.5609041540341053  1.0000
  H   H11       1.0  0.5862316585723448  0.2786567515455117  0.9391834660542457  1.0000
  H   H12       1.0  0.3387731234631487  0.6471547313792881  0.06089973615365101  1.0000
  H   H13       1.0  0.9478782770570574  0.6178068858352573  0.3821167203574377  1.0000
  H   H14       1.0  0.23532236775228904  0.5655360438569302  0.6186170464112309  1.0000
  H   H15       1.0  0.8678022072123068  0.6978564180321598  0.8821142400348522  1.0000
  H   H16       1.0  0.8155336872214177  0.9853166090672403  0.11860971726509467  1.0000
  H   H17       1.0  0.3193088232843024  0.11303551337756089  0.4411329832260833  1.0000
  H   H18       1.0  0.671913975806298  0.8770126112725902  0.5585272446724545  1.0000
  H   H19       1.0  0.363027242419001  0.06929313400750908  0.941140535968316  1.0000
  H   H20       1.0  0.12701336191703658  0.4219163655559227  0.058523571097289624  1.0000
  H   H21       1.0  0.4570715969181478  0.8042821598339527  0.8121853601765495  1.0000
  H   H22       1.0  0.9922142580290938  0.6438955938564561  0.1879106101445274  1.0000
  H   H23       1.0  0.05427844634577641  0.20707031991176453  0.3121841650930861  1.0000
  H   H24       1.0  0.8938922521429262  0.7422224938480113  0.687910272774758  1.0000
  H   H25       1.0  0.5983962492734066  0.9757627563934648  0.8899199967695213  1.0000
  H   H26       1.0  0.08556383948469906  0.7072375667734646  0.10970169481914382  1.0000
  H   H27       1.0  0.22575260418358303  0.3484068913409716  0.38991773168121574  1.0000
  H   H28       1.0  0.957239271637711  0.8355712688714901  0.6097035592251744  1.0000
  H   H29       1.0  0.6399809875161039  0.8795159718432399  0.7880143330797795  1.0000
  H   H30       1.0  0.09094081646383498  0.8508578440062988  0.21138783562530253  1.0000
  H   H31       1.0  0.1294963371251612  0.3899880439128224  0.2880118403953347  1.0000
  H   H32       1.0  0.10085702717517361  0.8409374362862606  0.7113897530356327  1.0000
  C   C1        1.0  0.7304643678176602  0.23011381474943696  0.5001178895143356  1.0000
  C   C2        1.0  0.480116759173022  0.4804547596306321  0.00012008507754051015  1.0000
  C   C3        1.0  0.858240100087123  0.35807413041996466  0.5002978614193198  1.0000
  C   C4        1.0  0.6080763545534252  0.6082224143421654  0.00029767527098556  1.0000
  C   C5        1.0  0.8391357742632194  0.43475205569249176  0.4314134635795313  1.0000
  C   C6        1.0  0.0033213145351779845  0.40756475283119187  0.5692466663112301  1.0000
  C   C7        1.0  0.6847479194877264  0.5891110735011577  0.9314142018934676  1.0000
  C   C8        1.0  0.6575698199978033  0.7533065069565765  0.06924494625545212  1.0000
  C   C9        1.0  0.5653416897844679  0.2357004087262098  0.46555887651280164  1.0000
  C   C10       1.0  0.7703951907421996  0.09910868301192005  0.534435783262822  1.0000
  C   C11       1.0  0.485699483668796  0.3153206465048299  0.965563834565046  1.0000
  C   C12       1.0  0.3491050087451626  0.5203885793940517  0.03443389607032545  1.0000
  C   C13       1.0  0.9619525433583078  0.5556868127059644  0.4345756103312866  1.0000
  C   C14       1.0  0.12106056406312858  0.5273706457926648  0.5661261993290907  1.0000
  C   C15       1.0  0.805682546032884  0.7119335788184032  0.9345739559013284  1.0000
  C   C16       1.0  0.7773724660758247  0.8710454151511938  0.06612215423955806  1.0000
  C   C17       1.0  0.3886006323817028  0.9866441594056423  0.6932308737295331  1.0000
  C   C18       1.0  0.2935719547965618  0.6952107948027617  0.3065636891595389  1.0000
  C   C19       1.0  0.23663821633672197  0.13861455171421974  0.1932339596513586  1.0000
  C   C20       1.0  0.945214663146743  0.0435794974316792  0.8065639094371023  1.0000
  C   C21       1.0  0.44914113844676956  0.11263403295053818  0.4668963977253072  1.0000
  C   C22       1.0  0.6459624033800964  0.9813449600131532  0.5328670210768323  1.0000
  C   C23       1.0  0.3626242264109081  0.19912476433391652  0.966899546173977  1.0000
  C   C24       1.0  0.23134490837412608  0.3959546390003368  0.032866670713644915  1.0000
  C   C25       1.0  0.3009794085124895  0.11284381494078129  0.6657175136547195  1.0000
  C   C26       1.0  0.44722229968445487  0.6350869103168718  0.3340528577187741  1.0000
  C   C27       1.0  0.3628299422258792  0.0509900167639472  0.16571173055971403  1.0000
  C   C28       1.0  0.885103164602242  0.1972454017737775  0.8340566850230573  1.0000
  C   C29       1.0  0.3281444199943381  0.2715079389602408  0.7258688585954546  1.0000
  C   C30       1.0  0.5458695055377875  0.602000189611111  0.2738263750099109  1.0000
  C   C31       1.0  0.5214936930641726  0.0781637765769219  0.225863922485054  1.0000
  C   C32       1.0  0.8520404165366314  0.2958953315761618  0.7738363786693512  1.0000
  C   C33       1.0  0.5429690999231838  0.9137692350104202  0.8194339325361073  1.0000
  C   C34       1.0  0.09412821991003989  0.7225044306543111  0.18028213100038934  1.0000
  C   C35       1.0  0.16375661589020749  0.29297655895676666  0.31942967287407253  1.0000
  C   C36       1.0  0.9724985721883286  0.8441335133512593  0.6802815162908831  1.0000
  N   N1        1.0  0.1019188935114883  0.601939441610142  0.5003526015813122  1.0000
  N   N2        1.0  0.8519374601120618  0.8519017566453613  0.00034808341271746606  1.0000
  N   N3        1.0  0.48756037060573476  0.9869704270566262  0.49984356309874306  1.0000
  N   N4        1.0  0.23697023619632052  0.23754940643002698  0.9998443906334488  1.0000
  N   N5        1.0  0.3909690164792253  0.8487975302588849  0.6390578968006296  1.0000
  N   N6        1.0  0.2100885384161231  0.7521153698836824  0.3608772091245528  1.0000
  N   N7        1.0  0.0987785347272307  0.14097141792736775  0.13905490424661343  1.0000
  N   N8        1.0  0.0021124015134787993  0.9600809793991302  0.8608776675511791  1.0000
  N   N9        1.0  0.18481859355459557  0.1006699005885991  0.5906453714065307  1.0000
  N   N10       1.0  0.5099373318018152  0.5939021018621417  0.40920059174532514  1.0000
  N   N11       1.0  0.35065745820699584  0.9348171205261975  0.09064541016227422  1.0000
  N   N12       1.0  0.8439239119351496  0.2599495255249166  0.9092021768149721  1.0000
  N   N13       1.0  0.34497879810612636  0.4052414494774296  0.7702494757673365  1.0000
  N   N14       1.0  0.6353617442762527  0.5741580294016159  0.2294458400337192  1.0000
  N   N15       1.0  0.6552252216179467  0.0950064097074375  0.27024258236235  1.0000
  N   N16       1.0  0.8242171697370326  0.3854171751802439  0.7294605269022088  1.0000
  O   O1        1.0  0.4604443292367293  0.030687756522731008  0.7822316017911677  1.0000
  O   O2        1.0  0.2484141030126921  0.677538078304046  0.21747110952973261  1.0000
  O   O3        1.0  0.2806781309993198  0.2104593389825098  0.2822274713840969  1.0000
  O   O4        1.0  0.9275473721192072  0.9984245632137952  0.7174719137542241  1.0000
  O   O5        1.0  0.1433452368984689  0.9683178822245252  0.5260000435439809  1.0000
  O   O6        1.0  0.44205345188841966  0.6169697732903572  0.47391411129599004  1.0000
  O   O7        1.0  0.21830276237546536  0.8933340353900688  0.026001898686708127  1.0000
  O   O8        1.0  0.8669710885543438  0.19204856506759424  0.9739129727861882  1.0000
