data_image0
_chemical_formula_structural       Zn6H112C144N24O28
_chemical_formula_sum              "Zn6 H112 C144 N24 O28"
_cell_length_a       10.48595515369609
_cell_length_b       13.852666869032937
_cell_length_c       25.482121298607243
_cell_angle_alpha    94.2505624194687
_cell_angle_beta     97.19098749157716
_cell_angle_gamma    99.08188695383296

_space_group_name_H-M_alt    "P 1"
_space_group_IT_number       1

loop_
  _space_group_symop_operation_xyz
  'x, y, z'

loop_
  _atom_site_type_symbol
  _atom_site_label
  _atom_site_symmetry_multiplicity
  _atom_site_fract_x
  _atom_site_fract_y
  _atom_site_fract_z
  _atom_site_occupancy
  Zn  Zn1       1.0  0.2257563601034533  0.44175845642391914  0.04326867012535731  1.0000
  Zn  Zn2       1.0  0.7742445440000054  0.5582419069432872  0.9567315412199024  1.0000
  Zn  Zn3       1.0  0.3076456316244105  0.2620759361147691  0.2681278701340091  1.0000
  Zn  Zn4       1.0  0.6923555972501276  0.7379258977611302  0.7318720265380776  1.0000
  Zn  Zn5       1.0  0.6732490081262554  0.088507804063866  0.43524339630980785  1.0000
  Zn  Zn6       1.0  0.32675077341937714  0.9114918217810625  0.5647567253458234  1.0000
  H   H1        1.0  0.8941252755334475  0.6952317634626509  0.21372504025835332  1.0000
  H   H2        1.0  0.10587049775502781  0.30476711554806  0.7862748389044258  1.0000
  H   H3        1.0  0.9127863410192134  0.613661053641053  0.29769658956998774  1.0000
  H   H4        1.0  0.08721119195578812  0.38633709548722095  0.7023037448900027  1.0000
  H   H5        1.0  0.05789699944890001  0.487684313874766  0.3092429805622885  1.0000
  H   H6        1.0  0.9421031034128332  0.5123167808067491  0.6907572186037996  1.0000
  H   H7        1.0  0.1487415739544105  0.8109429806469207  0.19669900904357723  1.0000
  H   H8        1.0  0.8512572422364781  0.18905664042191725  0.8033014538612733  1.0000
  H   H9        1.0  0.1349533573551369  0.985087536775566  0.1831791367691764  1.0000
  H   H10       1.0  0.8650454588357519  0.0149120842932717  0.816821326135681  1.0000
  H   H11       1.0  0.9916626425797405  0.025344429275669697  0.1048175686180741  1.0000
  H   H12       1.0  0.008333925040510346  0.9746537150765134  0.8951831070911497  1.0000
  H   H13       1.0  0.8593268428925426  0.8898588663704815  0.041355062355748415  1.0000
  H   H14       1.0  0.14067181609526364  0.1101400219521764  0.9586449696102407  1.0000
  H   H15       1.0  0.09585100934341283  0.7377763429116371  0.3733245938209251  1.0000
  H   H16       1.0  0.9041479744154728  0.26222401591971334  0.626675123471891  1.0000
  H   H17       1.0  0.9479194817628451  0.833508138411439  0.3230785559013468  1.0000
  H   H18       1.0  0.0520830337825444  0.16649516907713038  0.6769210770319702  1.0000
  H   H19       1.0  0.04054702302842373  0.9933278583200291  0.2918954308930921  1.0000
  H   H20       1.0  0.9594570984553883  0.0066739882120288  0.7081038342149455  1.0000
  H   H21       1.0  0.37453391425535193  0.6499189746876439  0.3307349717738717  1.0000
  H   H22       1.0  0.6254660417682131  0.35008139226400203  0.669263619902445  1.0000
  H   H23       1.0  0.3112669968354779  0.470753921236593  0.34171879714966025  1.0000
  H   H24       1.0  0.6887311891366535  0.5292471705811722  0.6582805157803548  1.0000
  H   H25       1.0  0.2108452774874081  0.42003830704994277  0.420801739810301  1.0000
  H   H26       1.0  0.7891527512816338  0.5799620520216351  0.5791971421808456  1.0000
  H   H27       1.0  0.17803870148711104  0.5459842425388715  0.48995545112885  1.0000
  H   H28       1.0  0.8219620454132652  0.4540153880821478  0.5100443292775481  1.0000
  H   H29       1.0  0.5251597971127921  0.4605761682832465  0.2866218931706542  1.0000
  H   H30       1.0  0.47484063192645454  0.5394219951732921  0.7133774175416505  1.0000
  H   H31       1.0  0.504125481739763  0.19606409029804442  0.3603308145935102  1.0000
  H   H32       1.0  0.4958722049833497  0.8039347899043107  0.6396703429889784  1.0000
  H   H33       1.0  0.7251848589592458  0.3247726635688224  0.4083125165779792  1.0000
  H   H34       1.0  0.2748144371572608  0.6752247573491204  0.5916878809955932  1.0000
  H   H35       1.0  0.744636582747539  0.550901884961334  0.3310127477628555  1.0000
  H   H36       1.0  0.2553646406234905  0.44909554383667677  0.6689873594958942  1.0000
  H   H37       1.0  0.8500409134323448  0.4853353936614724  0.3682613165188684  1.0000
  H   H38       1.0  0.14995837577421875  0.5146620239122512  0.6317398654219701  1.0000
  H   H39       1.0  0.9345735796694824  0.6435324227398524  0.4277965152570005  1.0000
  H   H40       1.0  0.06542636253420402  0.35646793752336947  0.5722036451538557  1.0000
  H   H41       1.0  0.9014647107407042  0.7547429711550037  0.5013328341353613  1.0000
  H   H42       1.0  0.09853427301817423  0.2452573876763396  0.498666883157462  1.0000
  H   H43       1.0  0.5016005669340728  0.610240001586426  0.49111216488823584  1.0000
  H   H44       1.0  0.49839842027977715  0.3897603589170301  0.5088871602209508  1.0000
  H   H45       1.0  0.5336293611029249  0.4990919780847776  0.41579701510552525  1.0000
  H   H46       1.0  0.4663723476972379  0.5009076556402192  0.5842028162352834  1.0000
  H   H47       1.0  0.5702688349597339  0.7560702235070311  0.5484422485537053  1.0000
  H   H48       1.0  0.42973095004087003  0.24392940401000376  0.4515574809182894  1.0000
  H   H49       1.0  0.7289699275510344  0.7584067088812316  0.5833028005889105  1.0000
  H   H50       1.0  0.2710296967915156  0.2415921842175095  0.4166968901278523  1.0000
  H   H51       1.0  0.5611469059916487  0.8747778788519013  0.4685419031056243  1.0000
  H   H52       1.0  0.43885287555399094  0.12522174699302718  0.5314582185500001  1.0000
  H   H53       1.0  0.9054562003372908  0.07508865455707078  0.5278839820281221  1.0000
  H   H54       1.0  0.09454357775337748  0.9249109696157518  0.4721165318111389  1.0000
  H   H55       1.0  0.8954915642958808  0.9093173039177386  0.5845970514295971  1.0000
  H   H56       1.0  0.10450805659169758  0.09068158750889668  0.4154030314708024  1.0000
  H   H57       1.0  0.38566186100159416  0.0845336835158506  0.1971697338601786  1.0000
  H   H58       1.0  0.6143392003049472  0.9154674125975433  0.8028309084239496  1.0000
  H   H59       1.0  0.20863596086118014  0.32401993123378503  0.1501029144888193  1.0000
  H   H60       1.0  0.7913639778875349  0.675980427357331  0.8498976381056735  1.0000
  H   H61       1.0  0.22427691780847428  0.2057670736605175  0.0600824902900285  1.0000
  H   H62       1.0  0.7757218983824075  0.7942325474083276  0.9399179726148291  1.0000
  H   H63       1.0  0.2698972428899822  0.0181001688168223  0.0524093722649326  1.0000
  H   H64       1.0  0.730103493645494  0.9818994567878717  0.9475915846923684  1.0000
  H   H65       1.0  0.3625023555979326  0.9821834049965404  0.10849106622973892  1.0000
  H   H66       1.0  0.637498698798673  0.0178176877726344  0.8915103604216555  1.0000
  H   H67       1.0  0.3735243533259762  0.11674864684981401  0.9890831413016415  1.0000
  H   H68       1.0  0.6264752606516667  0.8832502412326094  0.010917725966024212  1.0000
  H   H69       1.0  0.5752628172436829  0.17519024739655012  0.9519420525119174  1.0000
  H   H70       1.0  0.424735838289152  0.8248086392540016  0.048058371637708305  1.0000
  H   H71       1.0  0.8050314628903195  0.10882368212740087  0.09301125052654413  1.0000
  H   H72       1.0  0.19496944121314638  0.8911766812398056  0.9069889608187156  1.0000
  H   H73       1.0  0.60276629553001  0.050018928081577506  0.1300247858902992  1.0000
  H   H74       1.0  0.3972347657765312  0.9499821680318092  0.869975856393829  1.0000
  H   H75       1.0  0.9128817420732673  0.1606098959178794  0.017465430692816083  1.0000
  H   H76       1.0  0.08711804292733667  0.8393897315991624  0.9825342987791785  1.0000
  H   H77       1.0  0.8195081702874062  0.16247635768222324  0.9547257350920832  1.0000
  H   H78       1.0  0.18049161471319758  0.8375232698348112  0.045273994379904516  1.0000
  H   H79       1.0  0.7433786727982863  0.3280169122257348  0.9312398507535279  1.0000
  H   H80       1.0  0.25662126940540025  0.6719834480374872  0.06876030965732842  1.0000
  H   H81       1.0  0.9658458361748502  0.31871681924101136  0.08139340513501031  1.0000
  H   H82       1.0  0.03415378471273564  0.6812820721856241  0.9186066777653892  1.0000
  H   H83       1.0  0.9361831077958627  0.5112915259150554  0.0668543932185344  1.0000
  H   H84       1.0  0.06381763564954916  0.48870810303385764  0.9331457793714933  1.0000
  H   H85       1.0  0.45808337765349455  0.5190423357541007  0.13740962371007734  1.0000
  H   H86       1.0  0.5419162397791126  0.4809565540004286  0.862590851373959  1.0000
  H   H87       1.0  0.4416975841063007  0.3362432140125976  0.9960139623888153  1.0000
  H   H88       1.0  0.5583055685677891  0.6637586260712638  0.0039860361520851  1.0000
  H   H89       1.0  0.6751854895562702  0.33044293516456247  0.062044309836870995  1.0000
  H   H90       1.0  0.3248155752052425  0.6695581626209373  0.9379559402636205  1.0000
  H   H91       1.0  0.6700128896826384  0.5017684222036037  0.1863858956373932  1.0000
  H   H92       1.0  0.32998704906607673  0.4982319363875122  0.8136146569570997  1.0000
  H   H93       1.0  0.7865541992582052  0.4996917857437991  0.14182666623437262  1.0000
  H   H94       1.0  0.21344686550330752  0.5003093120417006  0.8581735838661187  1.0000
  H   H95       1.0  0.9392006770326872  0.3957677580410675  0.16075555958884283  1.0000
  H   H96       1.0  0.06079926862597062  0.6042326038942676  0.8392442086383839  1.0000
  H   H97       1.0  0.00392160975729181  0.2473394778712645  0.1975850312191199  1.0000
  H   H98       1.0  0.9960792978011455  0.7526608871680481  0.8024147879425101  1.0000
  H   H99       1.0  0.6175819650747343  0.1666054745127425  0.2393421178137345  1.0000
  H   H100      1.0  0.3824171758872268  0.833395617064795  0.7606580304179431  1.0000
  H   H101      1.0  0.5521630426720421  0.3128396433536125  0.20030831402325336  1.0000
  H   H102      1.0  0.4478370601896984  0.6871614513279027  0.7996918851428347  1.0000
  H   H103      1.0  0.7928246869695669  0.0404244397106552  0.2319114415106114  1.0000
  H   H104      1.0  0.20717525868909098  0.9595759222246728  0.7680883267166153  1.0000
  H   H105      1.0  0.9571901154070234  0.1021342597060695  0.2375724999437168  1.0000
  H   H106      1.0  0.042809826796663196  0.8978661005571523  0.7624276604671395  1.0000
  H   H107      1.0  0.027226713494862106  0.24130087029382707  0.3231679680582431  1.0000
  H   H108      1.0  0.9727695541812127  0.758704620393857  0.6768310324162955  1.0000
  H   H109      1.0  0.9411584924047248  0.23500308361811761  0.42351011583232895  1.0000
  H   H110      1.0  0.058836804413097424  0.7649979972155947  0.5764894364780987  1.0000
  H   H111      1.0  0.6903827855986862  0.021926398126730393  0.3158530256121495  1.0000
  H   H112      1.0  0.3096173207180257  0.9780746982268907  0.6841467813703093  1.0000
  C   C1        1.0  0.2236067748962114  0.43436457970331327  0.24318219696789364  1.0000
  C   C2        1.0  0.7763942967752443  0.5656365214263984  0.7568172687653316  1.0000
  C   C3        1.0  0.2024420681526848  0.5366861883752492  0.1438344127146109  1.0000
  C   C4        1.0  0.7975570728092762  0.46331490320228136  0.8561657355170667  1.0000
  C   C5        1.0  0.13088668380905233  0.5063622729437612  0.23491089163584183  1.0000
  C   C6        1.0  0.8691143774974961  0.49363882316963276  0.7650897506482863  1.0000
  C   C7        1.0  0.12466319139358721  0.5552197311811327  0.188435840143093  1.0000
  C   C8        1.0  0.8753361102264279  0.44478209481469116  0.8115643468438166  1.0000
  C   C9        1.0  0.036824517817763074  0.6210883158735141  0.1813639311068727  1.0000
  C   C10       1.0  0.9631733399283178  0.3789113037634451  0.818636088679945  1.0000
  C   C11       1.0  0.960819260541001  0.6430765213338174  0.22032340790647004  1.0000
  C   C12       1.0  0.03917827934394321  0.35692163113866837  0.7796761421862541  1.0000
  C   C13       1.0  0.9705083548316508  0.5958937171167235  0.2667699393494445  1.0000
  C   C14       1.0  0.029489824230530808  0.40410737135682945  0.7332301579478299  1.0000
  C   C15       1.0  0.052251554542479484  0.5263038556742144  0.2735711014917115  1.0000
  C   C16       1.0  0.9477496708770872  0.4736979765295787  0.7264291873640117  1.0000
  C   C17       1.0  0.008834531801575571  0.7536216953055189  0.1276243045590348  1.0000
  C   C18       1.0  0.9911633224895339  0.24637792265934172  0.8723761074114122  1.0000
  C   C19       1.0  0.08462362722217878  0.8290186913844477  0.1630895371654262  1.0000
  C   C20       1.0  0.9153742305239021  0.17098092825251848  0.8369104826213912  1.0000
  C   C21       1.0  0.07696099494282296  0.9265917968200768  0.15505101360094642  1.0000
  C   C22       1.0  0.9230381460191381  0.07340929475746091  0.8449491346307313  1.0000
  C   C23       1.0  0.9962711638166297  0.948914422444652  0.11119163293844281  1.0000
  C   C24       1.0  0.0037266939294511  0.051085197192314497  0.8888083868483747  1.0000
  C   C25       1.0  0.9222078582169928  0.8729067254415595  0.0757437223081041  1.0000
  C   C26       1.0  0.0777896747580087  0.12709142368670706  0.9242566121518864  1.0000
  C   C27       1.0  0.9254356713501153  0.7742615831562105  0.08371887349161258  1.0000
  C   C28       1.0  0.0745618650798576  0.22573656764416936  0.9162810687847411  1.0000
  C   C29       1.0  0.8393615968393107  0.6911180536831906  0.04775137753247798  1.0000
  C   C30       1.0  0.16063610370368048  0.30888083320758847  0.9522482113154708  1.0000
  C   C31       1.0  0.2916071878762807  0.07793909116347922  0.3010203405685559  1.0000
  C   C32       1.0  0.708403024273764  0.9220598394232766  0.698979126059399  1.0000
  C   C33       1.0  0.4668299437796364  0.9692960740575526  0.36642301228462776  1.0000
  C   C34       1.0  0.533171117526912  0.0307050220558409  0.6335776299995003  1.0000
  C   C35       1.0  0.23818170324408783  0.9850189552996013  0.3232449225730818  1.0000
  C   C36       1.0  0.7618219328105907  0.014980686305470703  0.6767546184528969  1.0000
  C   C37       1.0  0.32248903978626936  0.9314793741847109  0.351476365045187  1.0000
  C   C38       1.0  0.6775120249752505  0.0685217236007887  0.6485238850553047  1.0000
  C   C39       1.0  0.26871473280809977  0.8423466657689787  0.36912267610438937  1.0000
  C   C40       1.0  0.7312842440408431  0.1576536897181597  0.6308778255557003  1.0000
  C   C41       1.0  0.13489011115779453  0.8065089480489007  0.3585776813166035  1.0000
  C   C42       1.0  0.8651077500432578  0.19349067326016464  0.6414219462865844  1.0000
  C   C43       1.0  0.05261638895731121  0.860689966118194  0.33064138005952515  1.0000
  C   C44       1.0  0.9473835567013464  0.1393103958171338  0.6693583881676946  1.0000
  C   C45       1.0  0.10371575494830415  0.9498355675557164  0.3133173863406924  1.0000
  C   C46       1.0  0.8962880452193998  0.0501648101397549  0.6866818012568814  1.0000
  C   C47       1.0  0.31432570270817456  0.6957164302246498  0.4047667820636535  1.0000
  C   C48       1.0  0.6856742464054549  0.30428393338278426  0.5952325939799366  1.0000
  C   C49       1.0  0.33255178116087336  0.6257017908931388  0.36555380940806254  1.0000
  C   C50       1.0  0.6674481714077274  0.3742985743864012  0.6344451744518907  1.0000
  C   C51       1.0  0.2965792937691916  0.5263187996785418  0.3717780856694048  1.0000
  C   C52       1.0  0.7034195396965472  0.47368082975083325  0.6282204163172835  1.0000
  C   C53       1.0  0.23988356861032398  0.49759236062548945  0.4161319460893864  1.0000
  C   C54       1.0  0.7601143064106067  0.502407267372014  0.5838661127792619  1.0000
  C   C55       1.0  0.22151520041602177  0.5682916499715347  0.45510229747258524  1.0000
  C   C56       1.0  0.7784863546360228  0.43170725267938076  0.5448967107457251  1.0000
  C   C57       1.0  0.2604781483526182  0.6682726382385127  0.4501578691425721  1.0000
  C   C58       1.0  0.7395237211055914  0.33172772990477745  0.5498420009534614  1.0000
  C   C59       1.0  0.24302052508650016  0.7454542305206289  0.49210067435383553  1.0000
  C   C60       1.0  0.7569798901328609  0.2545439262474786  0.5079002050930086  1.0000
  C   C61       1.0  0.5494129995516059  0.40600283326146064  0.312942798195138  1.0000
  C   C62       1.0  0.45058564907128573  0.593996050044879  0.6870584103217539  1.0000
  C   C63       1.0  0.5408613979909801  0.2705302649921322  0.352531249050152  1.0000
  C   C64       1.0  0.45913645284515775  0.7294693513006222  0.6474695551039319  1.0000
  C   C65       1.0  0.6511303981366227  0.3328787694309768  0.3761482097890294  1.0000
  C   C66       1.0  0.34886793608010447  0.6671186483829814  0.6238521368501395  1.0000
  C   C67       1.0  0.7525322292508817  0.5060839622127845  0.3647632157637233  1.0000
  C   C68       1.0  0.24746915477820153  0.49391420100351985  0.6352369302502581  1.0000
  C   C69       1.0  0.7346401498286285  0.5648700688164112  0.41502467718174774  1.0000
  C   C70       1.0  0.265360597071755  0.43512956180460793  0.5849751032246502  1.0000
  C   C71       1.0  0.8382883874561384  0.6358359541596528  0.4407254426510577  1.0000
  C   C72       1.0  0.16171059630274703  0.3641644046716976  0.5592742746417656  1.0000
  C   C73       1.0  0.8196648028766091  0.6987886843010286  0.4832147850292401  1.0000
  C   C74       1.0  0.1803343484502662  0.3012124122928269  0.5167841866515417  1.0000
  C   C75       1.0  0.697836776097887  0.6915336650593388  0.5012592933574355  1.0000
  C   C76       1.0  0.30216221111596286  0.3084666954441103  0.49874003175175124  1.0000
  C   C77       1.0  0.5966699629630057  0.6175999087541796  0.47728103535335015  1.0000
  C   C78       1.0  0.4033291883638627  0.38240118783967597  0.5227179363274318  1.0000
  C   C79       1.0  0.6149980978433404  0.5546891338104912  0.4345235189531493  1.0000
  C   C80       1.0  0.38500089282548094  0.44531122836507103  0.5654754139724005  1.0000
  C   C81       1.0  0.6743390636846841  0.7652166785805647  0.5443945553954279  1.0000
  C   C82       1.0  0.3256597594161478  0.23478294583248532  0.45560512314215623  1.0000
  C   C83       1.0  0.6536303060065479  0.9079425729860022  0.49178218686952146  1.0000
  C   C84       1.0  0.3463685136393124  0.09205704975494912  0.5082178838516995  1.0000
  C   C85       1.0  0.8339782260139472  0.008482388063342198  0.5238478878084011  1.0000
  C   C86       1.0  0.1660215520767139  0.9915172361094803  0.47615262603086  1.0000
  C   C87       1.0  0.829998574352821  0.9275444435004728  0.551895608726511  1.0000
  C   C88       1.0  0.1700013643959011  0.07245591509064302  0.44810494386797484  1.0000
  C   C89       1.0  0.3403382575921086  0.13357523881405342  0.17225928050485353  1.0000
  C   C90       1.0  0.65966280371444  0.8664258572993332  0.8277413617792746  1.0000
  C   C91       1.0  0.2459481774965369  0.2554613901248715  0.1467878512090337  1.0000
  C   C92       1.0  0.7540527231519576  0.7445389715702291  0.8532127523198625  1.0000
  C   C93       1.0  0.2536914573321098  0.19737317495753356  0.10164426933999242  1.0000
  C   C94       1.0  0.746308648984595  0.8026279213960876  0.898355537642459  1.0000
  C   C95       1.0  0.3509218392837425  0.0436582134806613  0.08449547122920362  1.0000
  C   C96       1.0  0.6490780925550369  0.9563421417662425  0.9155058657325554  1.0000
  C   C97       1.0  0.474484764706709  0.07925032600444841  0.06198254524656481  1.0000
  C   C98       1.0  0.5255150133839592  0.9207492981683741  0.9380179685926963  1.0000
  C   C99       1.0  0.4680968241602202  0.11546023522492986  0.012137479781557709  1.0000
  C   C100      1.0  0.5319019885756974  0.8845393841718093  0.9878633753069295  1.0000
  C   C101      1.0  0.5817304414604365  0.1474117355473936  0.9910180073001699  1.0000
  C   C102      1.0  0.4182683781854166  0.8525878871935573  0.00898206342105111  1.0000
  C   C103      1.0  0.7039961180724178  0.1443996407238188  0.019526514981968997  1.0000
  C   C104      1.0  0.2960027050284069  0.8555999836892382  0.9804731635556152  1.0000
  C   C105      1.0  0.710465257890398  0.1097749808848292  0.069843844569391  1.0000
  C   C106      1.0  0.28953564621306077  0.8902253824823704  0.9301563667758759  1.0000
  C   C107      1.0  0.5964784888361266  0.07724066156821859  0.0908396267896237  1.0000
  C   C108      1.0  0.40352257247042184  0.922760434545175  0.9091610154945047  1.0000
  C   C109      1.0  0.8264558677316104  0.18493232458865802  0.9973589163401115  1.0000
  C   C110      1.0  0.17354391381402223  0.8150673012562707  0.0026412053155198062  1.0000
  C   C111      1.0  0.7974058196697557  0.35128073984660796  0.9705370967601469  1.0000
  C   C112      1.0  0.20259396187587703  0.6487188859983206  0.029463024895484614  1.0000
  C   C113      1.0  0.913571367202728  0.3494378338337256  0.04924109174781681  1.0000
  C   C114      1.0  0.08642921903960143  0.6505610623690004  0.9507586499033565  1.0000
  C   C115      1.0  0.899279437132911  0.4442165902297717  0.04132432826928319  1.0000
  C   C116      1.0  0.10072034095775  0.5557830339430508  0.9586761855699848  1.0000
  C   C117      1.0  0.48530898504370157  0.468959495672344  0.10761297705579412  1.0000
  C   C118      1.0  0.514690957159985  0.5310408645908778  0.8923871833550693  1.0000
  C   C119      1.0  0.48051923967109633  0.37211979993906397  0.0352458888312341  1.0000
  C   C120      1.0  0.5194839164579719  0.6278820418169032  0.9647537175260299  1.0000
  C   C121      1.0  0.5954316425088705  0.3695097973464953  0.0668036515551904  1.0000
  C   C122      1.0  0.4045694222526493  0.6304913004389975  0.9331965985453081  1.0000
  C   C123      1.0  0.7037585511965503  0.4553148022583642  0.1559651638291655  1.0000
  C   C124      1.0  0.2962423494519443  0.5446855594367292  0.8440354396997308  1.0000
  C   C125      1.0  0.7417140116499822  0.36407142309005286  0.17790097896118343  1.0000
  C   C126      1.0  0.2582859305537042  0.6359289371731692  0.8220991814496728  1.0000
  C   C127      1.0  0.867789863406351  0.3443556447051108  0.17676811104321644  1.0000
  C   C128      1.0  0.13221104069711495  0.6556447186620958  0.8232321003020431  1.0000
  C   C129      1.0  0.9040071955231783  0.26045493603496794  0.1972421942118743  1.0000
  C   C130      1.0  0.09599259293239024  0.7395446931541727  0.8027571430764837  1.0000
  C   C131      1.0  0.8147306749432416  0.19569813260563507  0.21951246716017184  1.0000
  C   C132      1.0  0.18526911005736219  0.8043014949113994  0.7804872623118227  1.0000
  C   C133      1.0  0.6875725212580832  0.2151463886865841  0.22070939362828315  1.0000
  C   C134      1.0  0.3124293482001264  0.7848539794567059  0.7792904764677502  1.0000
  C   C135      1.0  0.6512652195939027  0.2982947464314377  0.19963522822937563  1.0000
  C   C136      1.0  0.3487356845095633  0.7017056169357616  0.800364983115884  1.0000
  C   C137      1.0  0.8586818813163717  0.10994725225756238  0.2456975037396916  1.0000
  C   C138      1.0  0.14131710244250678  0.8900531065737879  0.7543022135531317  1.0000
  C   C139      1.0  0.9461305059408858  0.19647128020969967  0.33698854562343433  1.0000
  C   C140      1.0  0.05386976448884444  0.8035305522343208  0.6630109079306123  1.0000
  C   C141      1.0  0.9037469343177094  0.1927320108840433  0.38569788248500464  1.0000
  C   C142      1.0  0.09625173708354146  0.8072712858607076  0.6143011545270554  1.0000
  C   C143      1.0  0.7705773329913371  0.081045202062306  0.3312461172954428  1.0000
  C   C144      1.0  0.22942357111212167  0.9189551613049005  0.6687540940498167  1.0000
  N   N1        1.0  0.47816834844378053  0.31722549689154533  0.31320107501812805  1.0000
  N   N2        1.0  0.5218323915466598  0.6827741303852547  0.6867994897555435  1.0000
  N   N3        1.0  0.6557755508059627  0.41750124326728155  0.3504416312705771  1.0000
  N   N4        1.0  0.34422294752378957  0.5824969106370758  0.64955836194018  1.0000
  N   N5        1.0  0.7155509333487374  0.8652966432308346  0.5312541540208855  1.0000
  N   N6        1.0  0.2844480435002055  0.13470371225630373  0.4687463476392041  1.0000
  N   N7        1.0  0.7233775066719306  0.9950494087032881  0.4864536531015418  1.0000
  N   N8        1.0  0.27662227141873075  0.0049502154695347  0.5135468607377192  1.0000
  N   N9        1.0  0.3001942895042333  0.21478387125715406  0.19046664310742054  1.0000
  N   N10       1.0  0.6998077371570588  0.7852172296323233  0.8095336579274746  1.0000
  N   N11       1.0  0.3131382468990012  0.12064436771810698  0.11858162784282203  1.0000
  N   N12       1.0  0.6868616918497138  0.8793559908730088  0.8814189247516708  1.0000
  N   N13       1.0  0.8491418274351688  0.29211218703760267  0.00423492318024898  1.0000
  N   N14       1.0  0.15085779345240982  0.7078867043890327  0.9957651597201505  1.0000
  N   N15       1.0  0.8268678524177347  0.44416452170437987  0.9921541871224593  1.0000
  N   N16       1.0  0.17313192567292654  0.5558351024684427  0.0078463267168019  1.0000
  N   N17       1.0  0.4127516545695045  0.43412406157874983  0.06127766893327191  1.0000
  N   N18       1.0  0.5872492529889257  0.5658763034605628  0.9387221502283579  1.0000
  N   N19       1.0  0.5968782228894441  0.4313816989337553  0.1120368146215682  1.0000
  N   N20       1.0  0.40312187997228943  0.5686193957477599  0.88796338454452  1.0000
  N   N21       1.0  0.861335218303175  0.12486749724072152  0.3032552132878267  1.0000
  N   N22       1.0  0.13866392611375747  0.8751335960089222  0.6967445427602215  1.0000
  N   N23       1.0  0.7944071159454179  0.12048310280707848  0.3815265762072855  1.0000
  N   N24       1.0  0.20559363095496513  0.8795165278139337  0.6184732041991126  1.0000
  O   O1        1.0  0.1827039020061321  0.3582387961119053  0.2673454628143901  1.0000
  O   O2        1.0  0.8172979743620203  0.6417615753756039  0.732653622914377  1.0000
  O   O3        1.0  0.3324488965046441  0.45015684935304273  0.22708958915130495  1.0000
  O   O4        1.0  0.6675508801795901  0.549847176553449  0.7729114984685665  1.0000
  O   O5        1.0  0.1599278727624878  0.4541761822158748  0.11458123570195512  1.0000
  O   O6        1.0  0.8400730313409711  0.5458241811513318  0.8854189756433115  1.0000
  O   O7        1.0  0.2933779779642621  0.601284985315843  0.13614025511247263  1.0000
  O   O8        1.0  0.7066211664526706  0.39871610793380097  0.8638595009355754  1.0000
  O   O9        1.0  0.0201085864730359  0.6564333148063708  0.1316487972332965  1.0000
  O   O10       1.0  0.9798911916176252  0.3435663093664516  0.8683517166059646  1.0000
  O   O11       1.0  0.7603146285505815  0.6320161791779739  0.067095549890027  1.0000
  O   O12       1.0  0.23968900545555982  0.367979059021323  0.9329038095389778  1.0000
  O   O13       1.0  0.8560797891342417  0.6882175593496241  0.9978167962242352  1.0000
  O   O14       1.0  0.1439209612211059  0.3117820729434938  0.002182591998533198  1.0000
  O   O15       1.0  0.2208440772923197  0.1473175703853684  0.3015070729616838  1.0000
  O   O16       1.0  0.7791642145131376  0.8526813556655312  0.6984918996138206  1.0000
  O   O17       1.0  0.3973418882912583  0.08457082061704567  0.2821907639655238  1.0000
  O   O18       1.0  0.6026686431263428  0.9154251754005216  0.717808598575914  1.0000
  O   O19       1.0  0.49173853222621483  0.0471734965309309  0.40043279032375534  1.0000
  O   O20       1.0  0.5082613996125573  0.952826858715966  0.5995685466380039  1.0000
  O   O21       1.0  0.5487849479549852  0.9250875806953475  0.3484905128725871  1.0000
  O   O22       1.0  0.45121657945730215  0.07491130857872007  0.6515116328147954  1.0000
  O   O23       1.0  0.35404511387234555  0.794891399695814  0.3994119303269131  1.0000
  O   O24       1.0  0.6459556295730665  0.20510822925309208  0.6005882422631146  1.0000
  O   O25       1.0  0.13027031076415346  0.7595894055112354  0.49745827405608634  1.0000
  O   O26       1.0  0.8697294742364506  0.24041022200579928  0.5025414554159084  1.0000
  O   O27       1.0  0.3495689625507907  0.7913288760649521  0.5201572802045291  1.0000
  O   O28       1.0  0.6504296964370155  0.20867001225770573  0.479842751761467  1.0000
