data_image0
_chemical_formula_structural       Zn2H32C50N38O8
_chemical_formula_sum              "Zn2 H32 C50 N38 O8"
_cell_length_a       11.080135819005596
_cell_length_b       11.351946210999287
_cell_length_c       15.676557262727146
_cell_angle_alpha    87.36644407566914
_cell_angle_beta     95.68594967419905
_cell_angle_gamma    92.30019608585248

_space_group_name_H-M_alt    "P 1"
_space_group_IT_number       1

loop_
  _space_group_symop_operation_xyz
  'x, y, z'

loop_
  _atom_site_type_symbol
  _atom_site_label
  _atom_site_symmetry_multiplicity
  _atom_site_fract_x
  _atom_site_fract_y
  _atom_site_fract_z
  _atom_site_occupancy
  Zn  Zn1       1.0  0.3394561272106742  0.46540519269688446  0.46196159659691466  1.0000
  Zn  Zn2       1.0  0.606038734056149  0.49294340171410045  0.5016744946188683  1.0000
  H   H1        1.0  0.2639997684310345  0.9199808847315364  0.4751950679486968  1.0000
  H   H2        1.0  0.22627690655477284  0.8974215878172983  0.5811672087714896  1.0000
  H   H3        1.0  0.6812495420771326  0.8927397499184763  0.414966593453869  1.0000
  H   H4        1.0  0.7958892121564318  0.9248098035422527  0.49073927059836114  1.0000
  H   H5        1.0  0.3121534035219184  0.9642136851708756  0.3224456755889237  1.0000
  H   H6        1.0  0.3143314114727147  0.8296336659205821  0.36980035376460313  1.0000
  H   H7        1.0  0.506274731436207  0.7901678851174122  0.33651128025944393  1.0000
  H   H8        1.0  0.5241998773751463  0.918501998797957  0.28517773821968023  1.0000
  H   H9        1.0  0.9388864358730656  0.2627866281697066  0.43021873039651143  1.0000
  H   H10       1.0  0.8055672403675729  0.32005850016244597  0.43637297042194956  1.0000
  H   H11       1.0  0.16667614012243348  0.29046705751946417  0.44452662161946693  1.0000
  H   H12       1.0  0.10932342580064609  0.4051056616268766  0.3837057271454399  1.0000
  H   H13       1.0  0.8182293892860671  0.7352622655744696  0.4594569413800898  1.0000
  H   H14       1.0  0.7761971137007605  0.6727940523869973  0.3677170307823019  1.0000
  H   H15       1.0  0.1641734526046292  0.7690792812419929  0.4884506656678341  1.0000
  H   H16       1.0  0.02174259430895379  0.7921105208339296  0.4381716326452222  1.0000
  H   H17       1.0  0.7828869376469568  0.45029998214798883  0.11498136432509652  1.0000
  H   H18       1.0  0.7327034929453332  0.5677717352868044  0.0556653345442726  1.0000
  H   H19       1.0  0.2683988196649025  0.4358659425175657  0.13963820342958405  1.0000
  H   H20       1.0  0.20999411907932605  0.4832399395343002  0.040769829782938416  1.0000
  H   H21       1.0  0.7007090339414787  0.3778996776932003  0.8431267407151  1.0000
  H   H22       1.0  0.7702146220700641  0.4248381264814468  0.9391850082540432  1.0000
  H   H23       1.0  0.2109780669452448  0.5065493974146378  0.8599331279143031  1.0000
  H   H24       1.0  0.2827778746341423  0.606051461431896  0.9296072839447479  1.0000
  H   H25       1.0  0.3497456676529326  0.6412291863380374  0.07243268277709092  1.0000
  H   H26       1.0  0.41336081411588305  0.7698147676685136  0.031539828194802104  1.0000
  H   H27       1.0  0.6111124543213721  0.7149689930867208  0.11406602070923813  1.0000
  H   H28       1.0  0.6388679235754182  0.76246828581575  0.015572300682507005  1.0000
  H   H29       1.0  0.3711704388664003  0.8574804467336038  0.6895662979595658  1.0000
  H   H30       1.0  0.5259148800830289  0.8593396652765862  0.6630310011211054  1.0000
  H   H31       1.0  0.7370508854255604  0.9043547045596441  0.6514671832525067  1.0000
  H   H32       1.0  0.6766577579140359  0.7776650131164046  0.617286808519502  1.0000
  C   C1        1.0  0.5444184568175175  0.2616556932589304  0.4860704586458909  1.0000
  C   C2        1.0  0.5239390374804812  0.6014690359602355  0.9198723625527097  1.0000
  C   C3        1.0  0.5134497868450937  0.6228298070681999  0.0203936375686524  1.0000
  C   C4        1.0  0.4628270509169425  0.4601012463762685  0.8084918863236439  1.0000
  C   C5        1.0  0.5208043001915996  0.5083197963400891  0.15916799464904596  1.0000
  C   C6        1.0  0.5159199706471682  0.5124386548095429  0.23589712476547225  1.0000
  C   C7        1.0  0.4074722659575941  0.10340648875037314  0.5416952220503577  1.0000
  C   C8        1.0  0.6325959109061401  0.06179457970422668  0.548859706360368  1.0000
  C   C9        1.0  0.3997236518049618  0.8774836853670392  0.5626551839247896  1.0000
  C   C10       1.0  0.6288803766591898  0.9139635159205567  0.5363980847088783  1.0000
  C   C11       1.0  0.5039756661583111  0.06975425260048948  0.4038533745018001  1.0000
  C   C12       1.0  0.5221503681112409  0.12391727005770997  0.497206404798476  1.0000
  C   C13       1.0  0.49740720724558674  0.8676302580361435  0.49884253939325174  1.0000
  C   C14       1.0  0.5007395019494894  0.5069421029738875  0.3257744430312357  1.0000
  C   C15       1.0  0.46451571670755953  0.9291836349856907  0.4050422398232457  1.0000
  C   C16       1.0  0.94226979469979  0.39692587137461993  0.5125344244594461  1.0000
  C   C17       1.0  0.0914090135860235  0.4154890448461614  0.5152409768426054  1.0000
  C   C18       1.0  0.9187537361991077  0.5886472081717853  0.4305724179611162  1.0000
  C   C19       1.0  0.06306018115007109  0.6202207276732066  0.45265551776449814  1.0000
  C   C20       1.0  0.9229019385408107  0.5821509187900417  0.5895017172127268  1.0000
  C   C21       1.0  0.07352023668124728  0.5771005261218036  0.608224089601606  1.0000
  C   C22       1.0  0.4966312297373392  0.7267190829435464  0.4894180226496233  1.0000
  C   C23       1.0  0.45801739411403025  0.4654373005928035  0.6395499576280202  1.0000
  C   C24       1.0  0.382296210763009  0.42791698112703364  0.04343042703268911  1.0000
  C   C25       1.0  0.6203000024706284  0.42007886064192934  0.042675953779728104  1.0000
  C   C26       1.0  0.5884525587973854  0.3897032760105785  0.9411877556609056  1.0000
  C   C27       1.0  0.35318470442440036  0.4387773981214024  0.9402092718854222  1.0000
  C   C28       1.0  0.45023203519735233  0.45973208578548935  0.7306791989488135  1.0000
  C   C29       1.0  0.5106185536394109  0.4950422843320652  0.06772092083082983  1.0000
  C   C30       1.0  0.47952246212026495  0.4698723356844637  0.900780397620949  1.0000
  C   C31       1.0  0.3030868098365715  0.32534169466974555  0.9077738351887705  1.0000
  C   C32       1.0  0.5565218360135021  0.26326657351837207  0.9334360379561064  1.0000
  C   C33       1.0  0.4144446076132837  0.13633521604706536  0.3469460818693265  1.0000
  C   C34       1.0  0.61693209835785  0.09281293299738987  0.3622770233310605  1.0000
  C   C35       1.0  0.9113103299550078  0.3341793447069675  0.5924224329672826  1.0000
  C   C36       1.0  0.1452839080755481  0.3394574436741563  0.5862759645081894  1.0000
  C   C37       1.0  0.8984444137310703  0.5214227856357282  0.3508798520738382  1.0000
  C   C38       1.0  0.12850609414279998  0.6104305204607028  0.3756730598585563  1.0000
  C   C39       1.0  0.9002069159767955  0.7085660452722633  0.5888199493831012  1.0000
  C   C40       1.0  0.1291161993604177  0.6884159765662331  0.6397909771741299  1.0000
  C   C41       1.0  0.8583381720477093  0.537257701011228  0.6625342901332588  1.0000
  C   C42       1.0  0.10222020950109821  0.4988982173959329  0.6843418691207008  1.0000
  C   C43       1.0  0.3832798516011237  0.30276620428158907  0.07257998003668582  1.0000
  C   C44       1.0  0.6307326300264292  0.310046118966163  0.09575835699176592  1.0000
  C   C45       1.0  0.4487952912640266  0.6863013073309929  0.8668023661254268  1.0000
  C   C46       1.0  0.6469719889284206  0.6328725558935132  0.8935521601174445  1.0000
  C   C47       1.0  0.2955057062202187  0.12634841975761188  0.4967565029220254  1.0000
  C   C48       1.0  0.7527569554596737  0.09980072518946768  0.5233829894015829  1.0000
  C   C49       1.0  0.4035514041460928  0.10789881763298577  0.6310631705090233  1.0000
  C   C50       1.0  0.6452226870445443  0.09241424021461597  0.6396689919986258  1.0000
  N   N1        1.0  0.8847578807734565  0.5174149511287707  0.509468496925031  1.0000
  N   N2        1.0  0.1170840935140944  0.5429032669106418  0.5275021000092723  1.0000
  N   N3        1.0  0.253095777113451  0.24093246648386207  0.8805051198620577  1.0000
  N   N4        1.0  0.5448770970926802  0.16159746589779894  0.9258323199331645  1.0000
  N   N5        1.0  0.27995865365438277  0.8775500627413635  0.5349230104049811  1.0000
  N   N6        1.0  0.7138589260643329  0.8820630090461986  0.47837031594385593  1.0000
  N   N7        1.0  0.34891076064710796  0.18881494925215483  0.2977727576794465  1.0000
  N   N8        1.0  0.7045686892972752  0.118857965051248  0.3294093745432036  1.0000
  N   N9        1.0  0.3347370030402672  0.9174066954291147  0.3786395908204129  1.0000
  N   N10       1.0  0.5372963672608506  0.8755203026561275  0.3440008557864474  1.0000
  N   N11       1.0  0.8967883384364723  0.34004969247126837  0.4365157079430163  1.0000
  N   N12       1.0  0.1553191526650366  0.3833801985394628  0.4419961345528024  1.0000
  N   N13       1.0  0.8872296316198955  0.2814757426744876  0.654361194413305  1.0000
  N   N14       1.0  0.18212742034195628  0.2638395211921534  0.6332191986477158  1.0000
  N   N15       1.0  0.8814478671893299  0.5051117542187382  0.27746430595301774  1.0000
  N   N16       1.0  0.173576825068622  0.6221747395130561  0.3113950867607329  1.0000
  N   N17       1.0  0.8976929393596292  0.806572448318029  0.6074431560449016  1.0000
  N   N18       1.0  0.17431214536899378  0.7668889226924093  0.6779894205406836  1.0000
  N   N19       1.0  0.8046488604772292  0.5174243602607119  0.7221130431163589  1.0000
  N   N20       1.0  0.11503469216076918  0.4612633068069485  0.754854145269448  1.0000
  N   N21       1.0  0.8494727023505321  0.6920554043786209  0.41005005315231813  1.0000
  N   N22       1.0  0.0751077900036918  0.7384215233519027  0.4786641457627142  1.0000
  N   N23       1.0  0.36791756871549103  0.20592199422603125  0.09849476014599652  1.0000
  N   N24       1.0  0.65498059882772  0.22819278536193363  0.14080205549704064  1.0000
  N   N25       1.0  0.7396508093005706  0.4773608474621226  0.05735107082427501  1.0000
  N   N26       1.0  0.2856895656140779  0.48084808044036703  0.08420250091860033  1.0000
  N   N27       1.0  0.693096550616417  0.4213767326459175  0.8975285296926645  1.0000
  N   N28       1.0  0.257844214330717  0.5201525088017431  0.918235507033309  1.0000
  N   N29       1.0  0.4014685966028964  0.6809037959745367  0.02759415057726501  1.0000
  N   N30       1.0  0.6218326874245507  0.6894798113279988  0.053757200806423114  1.0000
  N   N31       1.0  0.3988102219930028  0.756747321113778  0.8214872739329879  1.0000
  N   N32       1.0  0.7298374088316634  0.6921939237891693  0.8746473499680791  1.0000
  N   N33       1.0  0.1971771227991113  0.14012274113595416  0.46206602160735605  1.0000
  N   N34       1.0  0.8546956883193744  0.10929530104920099  0.51075951219692  1.0000
  N   N35       1.0  0.3894113346275816  0.10222712848128879  0.704418376489791  1.0000
  N   N36       1.0  0.6728771871602675  0.11898547417527537  0.7101056209927209  1.0000
  N   N37       1.0  0.43217450169267835  0.8577365790379118  0.6447488448049017  1.0000
  N   N38       1.0  0.6601757915979859  0.8646583053924315  0.6228842395783476  1.0000
  O   O1        1.0  0.4484488693653432  0.3186177355127383  0.4722315079095624  1.0000
  O   O2        1.0  0.6504736842019057  0.3096480628878097  0.49364652849821783  1.0000
  O   O3        1.0  0.3931929038074458  0.48500301439860743  0.3449992096902506  1.0000
  O   O4        1.0  0.5969643604732441  0.5248054798780045  0.37695680826936245  1.0000
  O   O5        1.0  0.40178777073432304  0.6818954362876681  0.4510919474972256  1.0000
  O   O6        1.0  0.5880401174329962  0.6710207973476157  0.5236528315360546  1.0000
  O   O7        1.0  0.3628013289297201  0.4874149306182502  0.5887156536628453  1.0000
  O   O8        1.0  0.5638785901438936  0.4502816374965306  0.6178025585123664  1.0000
