data_image0
_chemical_formula_structural       Ag4H12C16S2N8O8
_chemical_formula_sum              "Ag4 H12 C16 S2 N8 O8"
_cell_length_a       7.986850241466485
_cell_length_b       8.316101534476426
_cell_length_c       9.749520586417642
_cell_angle_alpha    58.53244445313531
_cell_angle_beta     79.40642978413068
_cell_angle_gamma    70.57497631713483

_space_group_name_H-M_alt    "P 1"
_space_group_IT_number       1

loop_
  _space_group_symop_operation_xyz
  'x, y, z'

loop_
  _atom_site_type_symbol
  _atom_site_label
  _atom_site_symmetry_multiplicity
  _atom_site_fract_x
  _atom_site_fract_y
  _atom_site_fract_z
  _atom_site_occupancy
  Ag  Ag1       1.0  0.30547524740780563  0.1252015254446235  0.3906805880654288  1.0000
  Ag  Ag2       1.0  0.6945565074272648  0.8747986513747608  0.6093200325271084  1.0000
  Ag  Ag3       1.0  0.5773240621202193  0.6846375154114455  0.42552033890598306  1.0000
  Ag  Ag4       1.0  0.4226730241255368  0.3153452267716049  0.5744884214531893  1.0000
  H   H1        1.0  0.09045166783949544  0.2809067762570123  0.0834175352339557  1.0000
  H   H2        1.0  0.909564426712343  0.719103063232993  0.9165879009898174  1.0000
  H   H3        1.0  0.3067136119403599  0.8842546791608329  0.8908494379063824  1.0000
  H   H4        1.0  0.6932760095397511  0.1157409794405382  0.10916952448432228  1.0000
  H   H5        1.0  0.5025639601205043  0.6764727916979753  0.13144006403735625  1.0000
  H   H6        1.0  0.49742379546121634  0.3235170756047339  0.8685605486910789  1.0000
  H   H7        1.0  0.9872753675195013  0.5013432324538414  0.8535768097313721  1.0000
  H   H8        1.0  0.012723728692606111  0.4986648953432676  0.14642850167371788  1.0000
  H   H9        1.0  0.08609180247772488  0.0410243169164488  0.7361914164687562  1.0000
  H   H10       1.0  0.9139283481437845  0.9589933356164622  0.26379736005852544  1.0000
  H   H11       1.0  0.8604399546284324  0.27588147103841726  0.5257071732367393  1.0000
  H   H12       1.0  0.13956197903759449  0.7241294881215766  0.47428653325680153  1.0000
  C   C1        1.0  0.1846893748250196  0.15448717985593416  0.0794462807696519  1.0000
  C   C2        1.0  0.8153223282055106  0.8455067953200625  0.9205519960316055  1.0000
  C   C3        1.0  0.1798220311970269  0.11112400361125203  0.9588925946039453  1.0000
  C   C4        1.0  0.8201789924276566  0.8888643250753889  0.04110757802908432  1.0000
  C   C5        1.0  0.297175868543327  0.9343817923927419  0.9763070892691275  1.0000
  C   C6        1.0  0.7028128208658727  0.06561200798556399  0.023683718072035717  1.0000
  C   C7        1.0  0.4098864953430663  0.8184727461656609  0.10775843717121333  1.0000
  C   C8        1.0  0.590108590706123  0.1815158318259762  0.8922482940629662  1.0000
  C   C9        1.0  0.9610463268461511  0.4363255081282206  0.7908583394486612  1.0000
  C   C10       1.0  0.03895440456155798  0.5636707818493677  0.20915024046811945  1.0000
  C   C11       1.0  0.054336411958722346  0.2429416913090066  0.8252597843422578  1.0000
  C   C12       1.0  0.9456630231271247  0.7570509045787617  0.17473994711689753  1.0000
  C   C13       1.0  0.019199872990682803  0.18413345005441076  0.7259466807778451  1.0000
  C   C14       1.0  0.9808112644699276  0.8158730011978008  0.2740583359976299  1.0000
  C   C15       1.0  0.8914483026175972  0.31455361468950116  0.6074925613345598  1.0000
  C   C16       1.0  0.10856068490635802  0.6854501628038037  0.3925074223815415  1.0000
  S   S1        1.0  0.2665505733268174  0.720956540446089  0.7204780378079362  1.0000
  S   S2        1.0  0.7334343006507992  0.2790443071088263  0.2795114592626575  1.0000
  N   N1        1.0  0.2990454318343083  0.0416055513333404  0.2005648306434935  1.0000
  N   N2        1.0  0.7009656335923109  0.958391102761169  0.799451085440154  1.0000
  N   N3        1.0  0.4132749239878135  0.8739065272122774  0.214016763968658  1.0000
  N   N4        1.0  0.5867335070604509  0.1260750584289099  0.7859853632074448  1.0000
  N   N5        1.0  0.8398023780621099  0.5559222815490514  0.6761833597834226  1.0000
  N   N6        1.0  0.1601913911356759  0.4440917068914204  0.3238160362145591  1.0000
  N   N7        1.0  0.802396260049768  0.4937077540231343  0.5858464947845119  1.0000
  N   N8        1.0  0.1976038248253076  0.506291892479986  0.4141567478902815  1.0000
  O   O1        1.0  0.3579773080362825  0.8821029108900762  0.6618238537378716  1.0000
  O   O2        1.0  0.6420291841640873  0.11789291047188752  0.3381803289175025  1.0000
  O   O3        1.0  0.3729307492263343  0.5846837647487817  0.6581317302422391  1.0000
  O   O4        1.0  0.6270734129979657  0.415298756402784  0.34187140671986066  1.0000
  O   O5        1.0  0.08507564176007068  0.8151670246292612  0.6542515010939026  1.0000
  O   O6        1.0  0.9149103518476381  0.18486503059034481  0.3457024839653897  1.0000
  O   O7        1.0  0.2629507939706455  0.6121402890522134  0.8983412241621878  1.0000
  O   O8        1.0  0.7369923533876204  0.38786972256930596  0.10166146731219068  1.0000
