data_image0
_chemical_formula_structural       Cd2H56C62N8O10
_chemical_formula_sum              "Cd2 H56 C62 N8 O10"
_cell_length_a       9.424179194647076
_cell_length_b       12.980393637648662
_cell_length_c       12.373373384695181
_cell_angle_alpha    78.96906307104162
_cell_angle_beta     76.93606178700253
_cell_angle_gamma    73.92864657248134

_space_group_name_H-M_alt    "P 1"
_space_group_IT_number       1

loop_
  _space_group_symop_operation_xyz
  'x, y, z'

loop_
  _atom_site_type_symbol
  _atom_site_label
  _atom_site_symmetry_multiplicity
  _atom_site_fract_x
  _atom_site_fract_y
  _atom_site_fract_z
  _atom_site_occupancy
  Cd  Cd1       1.0  0.3558761862464977  0.2654971647232857  0.7217207336064246  1.0000
  Cd  Cd2       1.0  0.644128568207229  0.7345014290649489  0.2782836902408192  1.0000
  H   H1        1.0  0.9537860566134029  0.5649885720601802  0.7594546494065497  1.0000
  H   H2        1.0  0.04621487551279557  0.4350084081959764  0.24055235982804393  1.0000
  H   H3        1.0  0.8106330763824235  0.7778301692389819  0.01415138143293144  1.0000
  H   H4        1.0  0.18935912257429527  0.22216359383132558  0.9858593661227033  1.0000
  H   H5        1.0  0.050480786195890845  0.6982539891380668  0.07997556792474113  1.0000
  H   H6        1.0  0.9495204429274081  0.3017518855087716  0.9200296470465686  1.0000
  H   H7        1.0  0.24518721743809377  0.5500125924633892  0.9844584453787134  1.0000
  H   H8        1.0  0.7548246632070883  0.44999733351871635  0.015535266416776567  1.0000
  H   H9        1.0  0.6962551883527581  0.6092195354235344  0.7775623939354189  1.0000
  H   H10       1.0  0.3037419215519961  0.39077263093022196  0.2224397460730003  1.0000
  H   H11       1.0  0.78632775577595  0.7032652140659295  0.6797288941735927  1.0000
  H   H12       1.0  0.21367290419512125  0.2967325687523826  0.32027962060097087  1.0000
  H   H13       1.0  0.6431540196743698  0.8705796491629343  0.5958441024556862  1.0000
  H   H14       1.0  0.3568501772025812  0.12941409766509787  0.404160558546522  1.0000
  H   H15       1.0  0.397718746230197  0.9919982444476363  0.5650176389284597  1.0000
  H   H16       1.0  0.6022939117671839  0.0079963217580712  0.43497733467915367  1.0000
  H   H17       1.0  0.17251092065453816  0.7824929550571229  0.8160549441001804  1.0000
  H   H18       1.0  0.8274870448287572  0.21750975570010664  0.183936900856331  1.0000
  H   H19       1.0  0.4171154327895508  0.6660232516686053  0.8521509840448401  1.0000
  H   H20       1.0  0.5828754332475158  0.33397463032309116  0.14784221158630825  1.0000
  H   H21       1.0  0.03452239798088641  0.8273150488878399  0.6714624962095996  1.0000
  H   H22       1.0  0.965469312059277  0.1726901326389907  0.32852346701792356  1.0000
  H   H23       1.0  0.7871601694587012  0.9341515447431522  0.6302355159680315  1.0000
  H   H24       1.0  0.21282963549558787  0.06585925471877371  0.36976098603923896  1.0000
  H   H25       1.0  0.7317290877475384  0.13559208318368834  0.5957136920144634  1.0000
  H   H26       1.0  0.26826725907620375  0.8644186980835683  0.4042816964731415  1.0000
  H   H27       1.0  0.9245252670248545  0.22816523388701881  0.6078216573235905  1.0000
  H   H28       1.0  0.07548496224372754  0.7718366341053128  0.3921682586805061  1.0000
  H   H29       1.0  0.5612133271757216  0.2615817423107316  0.4440966671827695  1.0000
  H   H30       1.0  0.4387748236001556  0.7384241892629788  0.5559059207070547  1.0000
  H   H31       1.0  0.7712344474434689  0.38502396569939623  0.359914852979557  1.0000
  H   H32       1.0  0.22874989178782806  0.6149803934173192  0.6400806120559467  1.0000
  H   H33       1.0  0.5661447283651881  0.4407821600690483  0.6928447709402901  1.0000
  H   H34       1.0  0.43385131606996896  0.5592197062699854  0.30715726593142983  1.0000
  H   H35       1.0  0.7408212909369496  0.5552749950090786  0.5898469021338498  1.0000
  H   H36       1.0  0.2591709445432854  0.4447285095120608  0.41015303943665765  1.0000
  H   H37       1.0  0.7712909629212986  0.5694425980421017  0.4416835094144886  1.0000
  H   H38       1.0  0.22870699896768093  0.43056009902343106  0.5583115716225819  1.0000
  H   H39       1.0  0.9921392388889813  0.40513203388783847  0.44573954493765905  1.0000
  H   H40       1.0  0.007856519225938894  0.5948641795059262  0.5542620325691986  1.0000
  H   H41       1.0  0.9738975433818523  0.40477196053547715  0.5910697253060277  1.0000
  H   H42       1.0  0.026094129130129252  0.5952266764879256  0.4089353075402827  1.0000
  H   H43       1.0  0.5903689543220736  0.24645694691541556  0.911312486894232  1.0000
  H   H44       1.0  0.4096311631359058  0.7535424478730591  0.08869742091997782  1.0000
  H   H45       1.0  0.48584658032193323  0.0006256689919936995  0.7875642756104071  1.0000
  H   H46       1.0  0.5141551913144581  0.9993785936846894  0.21243954632125644  1.0000
  H   H47       1.0  0.7070133876330401  0.9063852229785144  0.9143846165190935  1.0000
  H   H48       1.0  0.2929861962976545  0.09361581800933999  0.08561859413337909  1.0000
  H   H49       1.0  0.7796689989379005  0.14276041555289962  0.024349507354685277  1.0000
  H   H50       1.0  0.2203360267723653  0.8572373722502463  0.975654219972732  1.0000
  H   H51       1.0  0.7498511627795352  0.014016273450671704  0.08751318938498537  1.0000
  H   H52       1.0  0.25017129554799306  0.9859750171717891  0.9124839856115442  1.0000
  H   H53       1.0  0.9876048557405213  0.0562410095937551  0.8799156576185111  1.0000
  H   H54       1.0  0.012402103491922417  0.9437608709188295  0.1200740061252858  1.0000
  H   H55       1.0  0.9522291347532031  0.9280717975723932  0.9366734853293508  1.0000
  H   H56       1.0  0.04778164580211099  0.07193489341967312  0.0633218566607567  1.0000
  C   C1        1.0  0.21661963040612867  0.4561531303241537  0.8165044720322711  1.0000
  C   C2        1.0  0.783388393079086  0.543848647891224  0.18350846770893978  1.0000
  C   C3        1.0  0.10963975713697485  0.5518819453214691  0.8659581323723202  1.0000
  C   C4        1.0  0.8903663677645853  0.4481190740487976  0.13404477378062296  1.0000
  C   C5        1.0  0.9741349238845202  0.5988779339302042  0.8267536956709093  1.0000
  C   C6        1.0  0.025867361828659275  0.4011150061317892  0.17325225802497357  1.0000
  C   C7        1.0  0.8677736805973381  0.6821753810024447  0.8781086531677788  1.0000
  C   C8        1.0  0.1322226039623189  0.3178159584382172  0.12189863904840338  1.0000
  C   C9        1.0  0.896688157412413  0.7173234833009164  0.9698288757807276  1.0000
  C   C10       1.0  0.10330566908357498  0.2826654438589244  0.03017769265594689  1.0000
  C   C11       1.0  0.0322405852894079  0.6714292655286586  0.007015872853180803  1.0000
  C   C12       1.0  0.9677595375600486  0.3285701497973507  0.9929891808401977  1.0000
  C   C13       1.0  0.13995524010945096  0.5890830061635698  0.955024275530981  1.0000
  C   C14       1.0  0.8600448934168766  0.41091965060784486  0.04497852453425812  1.0000
  C   C15       1.0  0.6979490111790837  0.6954298469622773  0.7542312489427445  1.0000
  C   C16       1.0  0.3020489167760302  0.30456631929152433  0.2457796656325613  1.0000
  C   C17       1.0  0.5482308571054587  0.763618932769646  0.7307458210325422  1.0000
  C   C18       1.0  0.45176600020074903  0.23638051219123213  0.2692549352998411  1.0000
  C   C19       1.0  0.5399482885566798  0.8547816883654706  0.6486238086645029  1.0000
  C   C20       1.0  0.46005046923642107  0.14521532191603373  0.3513779086023447  1.0000
  C   C21       1.0  0.4017202659086363  0.9216940329970459  0.6295939499791814  1.0000
  C   C22       1.0  0.5982850346524985  0.07830296251271557  0.37040584474785726  1.0000
  C   C23       1.0  0.2666810308365015  0.8980100112800501  0.6902226107780293  1.0000
  C   C24       1.0  0.7333182944177565  0.10199188361380611  0.3097699701123275  1.0000
  C   C25       1.0  0.2755892216817983  0.8037283537827378  0.7689843919208598  1.0000
  C   C26       1.0  0.7244041015203564  0.19627193706686094  0.2310103365099252  1.0000
  C   C27       1.0  0.4139706486487496  0.7382291400924788  0.7898034610466382  1.0000
  C   C28       1.0  0.5860245688563168  0.2617654917469565  0.21019043684606942  1.0000
  C   C29       1.0  0.119557149743734  0.966174212980427  0.6676059165612144  1.0000
  C   C30       1.0  0.8804435273003434  0.033823634873421306  0.3323872268307042  1.0000
  C   C31       1.0  0.009229954045998882  0.9154893409994788  0.6600089392264008  1.0000
  C   C32       1.0  0.9907685637286787  0.08451499581007481  0.33998006808246123  1.0000
  C   C33       1.0  0.870575269994262  0.9754612998063266  0.6354920004186583  1.0000
  C   C34       1.0  0.1294216167529072  0.024544658851667102  0.3644969674761853  1.0000
  C   C35       1.0  0.8395066051123266  0.08809163480295013  0.6160612129293668  1.0000
  C   C36       1.0  0.16049300286784518  0.911915899344493  0.38393506340640465  1.0000
  C   C37       1.0  0.9478320860869971  0.14003504704994196  0.6223316768767475  1.0000
  C   C38       1.0  0.05217815295988963  0.8599700589648763  0.37765679451934625  1.0000
  C   C39       1.0  0.086807880641409  0.08051052304036689  0.6492987651762689  1.0000
  C   C40       1.0  0.913198793961882  0.9194889117431305  0.35069627577590984  1.0000
  C   C41       1.0  0.1893272434126914  0.14314668903611502  0.6684116348708642  1.0000
  C   C42       1.0  0.810691691593732  0.8568454885501281  0.33156980398240415  1.0000
  C   C43       1.0  0.5947301054904982  0.3164587692866263  0.48346387380670564  1.0000
  C   C44       1.0  0.40525666955215195  0.6835415157971737  0.5165376312847271  1.0000
  C   C45       1.0  0.6991244745800528  0.37658639463053606  0.4410571172601293  1.0000
  C   C46       1.0  0.3008707428189439  0.6234114375792289  0.5589442352460948  1.0000
  C   C47       1.0  0.594794739172599  0.4068911916582749  0.6147867565702327  1.0000
  C   C48       1.0  0.40519858661921393  0.5931123098304241  0.3852129994136674  1.0000
  C   C49       1.0  0.7872433990849926  0.5111686005377296  0.5173337379809338  1.0000
  C   C50       1.0  0.21275154795603163  0.4888300410800426  0.4826675020249808  1.0000
  C   C51       1.0  0.9541332498755466  0.4575439790184602  0.5121817778169626  1.0000
  C   C52       1.0  0.045858972232082316  0.5424562737885099  0.48782284444210683  1.0000
  C   C53       1.0  0.5924162292493024  0.16757936354700587  0.8929463985714675  1.0000
  C   C54       1.0  0.4075828121682933  0.8324232894110111  0.1070582051206586  1.0000
  C   C55       1.0  0.5408424609589986  0.037789423054611915  0.8320224243329334  1.0000
  C   C56       1.0  0.4591593008991026  0.9622116015995844  0.16798284220673304  1.0000
  C   C57       1.0  0.6503096773087548  0.9903163826033465  0.8950413688296236  1.0000
  C   C58       1.0  0.34968801771049834  0.009690337932212901  0.10495781824010209  1.0000
  C   C59       1.0  0.7872812732912351  0.0612233431025757  0.007583855864730499  1.0000
  C   C60       1.0  0.2127330219176287  0.9387728255854739  0.9924129486294504  1.0000
  C   C61       1.0  0.9482692433101079  0.007435123269225104  0.958133553143277  1.0000
  C   C62       1.0  0.051737442868628004  0.9925675563825964  0.0418584251606191  1.0000
  N   N1        1.0  0.5307069154397651  0.3359468381956179  0.5918633647245244  1.0000
  N   N2        1.0  0.469284765951933  0.6640550334273527  0.4081410325339191  1.0000
  N   N3        1.0  0.6973346190395233  0.43371463251795483  0.5252280472996134  1.0000
  N   N4        1.0  0.3026559703495196  0.5662840349212814  0.4747706989721934  1.0000
  N   N5        1.0  0.5056959639748513  0.1483482290045544  0.8313644618887891  1.0000
  N   N6        1.0  0.49430034542679385  0.8516528073889448  0.16864254160407202  1.0000
  N   N7        1.0  0.6818019170956121  0.07329039183000673  0.9330215478905898  1.0000
  N   N8        1.0  0.3181938463047018  0.9267090424716216  0.06698263010896  1.0000
  O   O1        1.0  0.16620240433911693  0.4134138068804917  0.7513912282900108  1.0000
  O   O2        1.0  0.8338173155763116  0.5865790435873137  0.2486214642617597  1.0000
  O   O3        1.0  0.3463849267843457  0.42029326715871923  0.8404314046454076  1.0000
  O   O4        1.0  0.6536209302428233  0.5797149726289774  0.15958387117385797  1.0000
  O   O5        1.0  0.731878039022277  0.7323372128301172  0.8465081503777654  1.0000
  O   O6        1.0  0.26811360056050393  0.2676516964341502  0.15350445237311305  1.0000
  O   O7        1.0  0.24324064308947865  0.2067109168965047  0.5877508057055179  1.0000
  O   O8        1.0  0.7567388332927721  0.7933080252559249  0.4122393982437913  1.0000
  O   O9        1.0  0.2126976424247857  0.132634767946378  0.7681501422080217  1.0000
  O   O10       1.0  0.7873335386074987  0.8673500976758606  0.23183063886856556  1.0000
