data_image0
_chemical_formula_structural       Cd2H28C28N8Cl4
_chemical_formula_sum              "Cd2 H28 C28 N8 Cl4"
_cell_length_a       8.57714177065669
_cell_length_b       8.967440022331186
_cell_length_c       10.822194488868949
_cell_angle_alpha    75.04746416862042
_cell_angle_beta     75.19913006840302
_cell_angle_gamma    88.09908162676213

_space_group_name_H-M_alt    "P 1"
_space_group_IT_number       1

loop_
  _space_group_symop_operation_xyz
  'x, y, z'

loop_
  _atom_site_type_symbol
  _atom_site_label
  _atom_site_symmetry_multiplicity
  _atom_site_fract_x
  _atom_site_fract_y
  _atom_site_fract_z
  _atom_site_occupancy
  Cd  Cd1       1.0  0.033619552615689906  0.022187332794537398  0.17413386179701715  1.0000
  Cd  Cd2       1.0  0.9663799912959377  0.977811256348055  0.8258671865251513  1.0000
  H   H1        1.0  0.799354147984701  0.8580699637235084  0.4764851337422229  1.0000
  H   H2        1.0  0.20064660346442048  0.141928627945731  0.5235147467141772  1.0000
  H   H3        1.0  0.6993888578758815  0.5509801927280193  0.5727650694548386  1.0000
  H   H4        1.0  0.3006070712937898  0.4490183927603368  0.427234859901631  1.0000
  H   H5        1.0  0.8565565418952942  0.42094905685962664  0.3691937595703862  1.0000
  H   H6        1.0  0.14344059323776293  0.5790495303702344  0.6308059264329131  1.0000
  H   H7        1.0  0.06604647930151232  0.7463517932541919  0.08238595442056616  1.0000
  H   H8        1.0  0.9339531035130122  0.2536479500391522  0.9176157639219368  1.0000
  H   H9        1.0  0.9868924501523322  0.5551934846088641  0.11896434902068634  1.0000
  H   H10       1.0  0.0131070969074969  0.4448051061040061  0.8810348502762861  1.0000
  H   H11       1.0  0.30480053947217556  0.7696139566427077  0.20380355743217396  1.0000
  H   H12       1.0  0.6952002540280376  0.2303857907475758  0.7961951440193643  1.0000
  H   H13       1.0  0.5688532039277803  0.6591078359393945  0.2213677828325659  1.0000
  H   H14       1.0  0.43114887806390095  0.34089422384933943  0.7786292417686695  1.0000
  H   H15       1.0  0.631961963722759  0.39601820792589837  0.18885709680106538  1.0000
  H   H16       1.0  0.3680400310185377  0.6039815388504693  0.8111441348350964  1.0000
  H   H17       1.0  0.1625496446219543  0.35606935519517435  0.1235571623669784  1.0000
  H   H18       1.0  0.8374511036789654  0.6439292349037798  0.8764445671146247  1.0000
  H   H19       1.0  0.3845075194814028  0.18180024552376742  0.05452605211760194  1.0000
  H   H20       1.0  0.6154932692965004  0.8181994995110884  0.9454754228717303  1.0000
  H   H21       1.0  0.5718258770569733  0.1920292845589984  0.0936302309854966  1.0000
  H   H22       1.0  0.4281749117209372  0.8079704604758647  0.906371244003836  1.0000
  H   H23       1.0  0.6084128761244969  0.0354801291263271  0.30575008070177023  1.0000
  H   H24       1.0  0.3915866677871378  0.964518460016265  0.6942509676203911  1.0000
  H   H25       1.0  0.41666569707001594  0.8150546712206077  0.5152046486532171  1.0000
  H   H26       1.0  0.5833338873186023  0.18494507285788583  0.4847961451766876  1.0000
  H   H27       1.0  0.11917813035208268  0.842244758196358  0.46209032158257907  1.0000
  H   H28       1.0  0.8808202449249478  0.15775498257034565  0.5379125646256853  1.0000
  C   C1        1.0  0.831473426454096  0.7628454632916684  0.4308462745180818  1.0000
  C   C2        1.0  0.16852495669343878  0.23715428140074124  0.5691519891271923  1.0000
  C   C3        1.0  0.780738832588888  0.6068001663075222  0.4785095584173433  1.0000
  C   C4        1.0  0.21925950850756235  0.3931984226638433  0.5214898842327926  1.0000
  C   C5        1.0  0.858206084141152  0.538532296107526  0.3786631520059414  1.0000
  C   C6        1.0  0.1417910930429969  0.4614674468433789  0.621335354992496  1.0000
  C   C7        1.0  0.0523405912989645  0.6325149338172622  0.1535547380497775  1.0000
  C   C8        1.0  0.9476602022012486  0.36748481357301443  0.846443963401761  1.0000
  C   C9        1.0  0.214737683899429  0.5680932835996726  0.16497729662800256  1.0000
  C   C10       1.0  0.7852631921288662  0.43190877444755676  0.835019971326396  1.0000
  C   C11       1.0  0.33031446087485955  0.6537038410623666  0.19153050566663418  1.0000
  C   C12       1.0  0.6696876211168216  0.3462982187263677  0.8084665189346012  1.0000
  C   C13       1.0  0.47929532811773606  0.5914199621908125  0.2013063920760203  1.0000
  C   C14       1.0  0.5207043372248633  0.4085820917594774  0.7986938927693501  1.0000
  C   C15       1.0  0.5147297918884418  0.44409731597550456  0.18322091777932317  1.0000
  C   C16       1.0  0.48527108256574547  0.5559047412865752  0.8167772746876805  1.0000
  C   C17       1.0  0.40138556932544833  0.358156265045224  0.15487553819545502  1.0000
  C   C18       1.0  0.5986140150631768  0.6418434790332697  0.8451252556344498  1.0000
  C   C19       1.0  0.25204893226948133  0.4213186963709956  0.14610571663551045  1.0000
  C   C20       1.0  0.7479506536932449  0.5786810484926406  0.8538941526817893  1.0000
  C   C21       1.0  0.4411758207776799  0.20148336653101498  0.1294038587869792  1.0000
  C   C22       1.0  0.5588237651850392  0.7985163783326144  0.8705960105303274  1.0000
  C   C23       1.0  0.48179764782912576  0.0016827279894115997  0.32838570581138526  1.0000
  C   C24       1.0  0.5182018151285277  0.9983135512813773  0.6716158514953179  1.0000
  C   C25       1.0  0.38320465283309346  0.8930536593415537  0.4322499357079437  1.0000
  C   C26       1.0  0.6167948910785412  0.10694492980103118  0.567751112614225  1.0000
  C   C27       1.0  0.23071089336019673  0.9066151699945167  0.40624665238256336  1.0000
  C   C28       1.0  0.7692886085003465  0.09338226342703136  0.5937555749444667  1.0000
  N   N1        1.0  0.93374647018301  0.7883506130399096  0.30960010792231435  1.0000
  N   N2        1.0  0.06625428126611149  0.21164797862932966  0.6903997725340859  1.0000
  N   N3        1.0  0.9480869516485058  0.6505217742189798  0.2787520504540382  1.0000
  N   N4        1.0  0.051915004189901005  0.3494768184066289  0.7212485111617964  1.0000
  N   N5        1.0  0.38953871676805824  0.07265297186553707  0.2473495068139471  1.0000
  N   N6        1.0  0.6104608271435693  0.927345617277048  0.7526515415082216  1.0000
  N   N7        1.0  0.2345911350753838  0.016147424106897304  0.2933394724753099  1.0000
  N   N8        1.0  0.7654084088362438  0.9838511650356946  0.7066615758468585  1.0000
  Cl  Cl1       1.0  0.7847859343511344  0.9515438859039946  0.04835829421036656  1.0000
  Cl  Cl2       1.0  0.2152148544267689  0.04845585913086839  0.9516431807789727  1.0000
  Cl  Cl3       1.0  0.8632338664004776  0.23127286385665974  0.23053816208051356  1.0000
  Cl  Cl4       1.0  0.1367657164140397  0.7687268794366915  0.7694635562619893  1.0000
