data_image0
_chemical_formula_structural       Cu4H44C60S4N12O12F12
_chemical_formula_sum              "Cu4 H44 C60 S4 N12 O12 F12"
_cell_length_a       7.902938159047262
_cell_length_b       13.228456147135113
_cell_length_c       15.248055658251866
_cell_angle_alpha    103.67466075380605
_cell_angle_beta     89.99984909840362
_cell_angle_gamma    89.99967850301118

_space_group_name_H-M_alt    "P 1"
_space_group_IT_number       1

loop_
  _space_group_symop_operation_xyz
  'x, y, z'

loop_
  _atom_site_type_symbol
  _atom_site_label
  _atom_site_symmetry_multiplicity
  _atom_site_fract_x
  _atom_site_fract_y
  _atom_site_fract_z
  _atom_site_occupancy
  Cu  Cu1       1.0  0.09904132857325722  0.2664158905943168  0.12883601651037685  1.0000
  Cu  Cu2       1.0  0.40096066720689555  0.266410696905119  0.628834293502699  1.0000
  Cu  Cu3       1.0  0.9009579668834888  0.7335840428255269  0.8711622196737567  1.0000
  Cu  Cu4       1.0  0.5990411589678715  0.7335853376424738  0.37116575694734183  1.0000
  H   H1        1.0  0.04010403165327862  0.2988553799409956  0.947944404513308  1.0000
  H   H2        1.0  0.4598871644476859  0.29884048922588147  0.44793885230944863  1.0000
  H   H3        1.0  0.9598864063121441  0.7011492192526135  0.052055455663627036  1.0000
  H   H4        1.0  0.5401032735828508  0.7011516620270085  0.5520584248802792  1.0000
  H   H5        1.0  0.11106336290928448  0.4231851718314702  0.8580125463849202  1.0000
  H   H6        1.0  0.3889321876882691  0.42317289238127404  0.35800828709016497  1.0000
  H   H7        1.0  0.8889232789742467  0.5768233106867485  0.14199008706873437  1.0000
  H   H8        1.0  0.6110683731228406  0.5768246937185069  0.6419933969607216  1.0000
  H   H9        1.0  0.28440936082037643  0.5822515015565273  0.9266547067228716  1.0000
  H   H10       1.0  0.21559573092245193  0.5822430235402223  0.4266495014259562  1.0000
  H   H11       1.0  0.7155760157026236  0.4177569698569457  0.0733512035473325  1.0000
  H   H12       1.0  0.7844238101492849  0.41775845028220704  0.5733536451509736  1.0000
  H   H13       1.0  0.2712839152029787  0.4139245933285025  0.22807050350576225  1.0000
  H   H14       1.0  0.22871238915379175  0.4139185287791349  0.7280668635092911  1.0000
  H   H15       1.0  0.7287014613535235  0.586078438775246  0.771932310618425  1.0000
  H   H16       1.0  0.7713058865478146  0.5860860548095133  0.27193758417885056  1.0000
  H   H17       1.0  0.43837147032965623  0.5686535806404011  0.30891208418537275  1.0000
  H   H18       1.0  0.061629291916503307  0.5686528488757574  0.8089078075501706  1.0000
  H   H19       1.0  0.5616278251268767  0.4313447856796202  0.6910891059405417  1.0000
  H   H20       1.0  0.9383801263404339  0.4313494118486858  0.1910928790222428  1.0000
  H   H21       1.0  0.4307288872510923  0.7044022399214998  0.9905401156417286  1.0000
  H   H22       1.0  0.06927346343198341  0.7043966766893064  0.4905343999170598  1.0000
  H   H23       1.0  0.5692615507043044  0.29560234594342927  0.009463676713430416  1.0000
  H   H24       1.0  0.9307359548527147  0.29560092050027015  0.5094640073090773  1.0000
  H   H25       1.0  0.6191858135183921  0.8422960438670019  0.07545151983515554  1.0000
  H   H26       1.0  0.8808176042043954  0.8422932790623675  0.575445737097944  1.0000
  H   H27       1.0  0.3808084205057369  0.1577062080015637  0.924551788205804  1.0000
  H   H28       1.0  0.11918675268474033  0.15770276880892456  0.4245503811711516  1.0000
  H   H29       1.0  0.693035131618622  0.8462596550712791  0.23617300349067705  1.0000
  H   H30       1.0  0.8069686894979002  0.8462587393694889  0.7361670477451556  1.0000
  H   H31       1.0  0.3069679598968379  0.15373793102352107  0.7638286805574738  1.0000
  H   H32       1.0  0.19303440203260183  0.15373886671833503  0.26382873803567014  1.0000
  H   H33       1.0  0.9267821902414328  0.013708651131999301  0.8460552390091041  1.0000
  H   H34       1.0  0.5732225640000411  0.013701500806462302  0.34605377942659044  1.0000
  H   H35       1.0  0.07322090123761171  0.986297504029281  0.1539449440275718  1.0000
  H   H36       1.0  0.42677799683860956  0.9862898546586153  0.653948579219808  1.0000
  H   H37       1.0  0.7493717500593962  0.09847395760608181  0.8751502043654116  1.0000
  H   H38       1.0  0.7506345890629549  0.09846301202954069  0.3751431283652806  1.0000
  H   H39       1.0  0.25063640282814253  0.9015306304454002  0.12485293260758115  1.0000
  H   H40       1.0  0.24936217573805666  0.901526018339922  0.6248561245229569  1.0000
  H   H41       1.0  0.7678593280686741  0.9849002354080696  0.9194693996877917  1.0000
  H   H42       1.0  0.7321473111018619  0.9848924679736301  0.41946497544822153  1.0000
  H   H43       1.0  0.23214376345796955  0.015099715775868097  0.08052359358794092  1.0000
  H   H44       1.0  0.2678507190170977  0.015102784142257505  0.580536224295294  1.0000
  C   C1        1.0  0.11485810791866413  0.36737265157781  0.9782210678315766  1.0000
  C   C2        1.0  0.3851411463866868  0.3673635034957457  0.4782161517485265  1.0000
  C   C3        1.0  0.8851323300458134  0.6326311629551642  0.021780596997764697  1.0000
  C   C4        1.0  0.6148619451354593  0.6326340914848461  0.5217829108474847  1.0000
  C   C5        1.0  0.15650823497593083  0.4389029309954395  0.9271961170463217  1.0000
  C   C6        1.0  0.3434880782670149  0.4388923932062597  0.4271903126757979  1.0000
  C   C7        1.0  0.8434758762039749  0.5611047690885727  0.0728076656994361  1.0000
  C   C8        1.0  0.656516278605629  0.56110519955039  0.5728094052818733  1.0000
  C   C9        1.0  0.25158502500271857  0.5257930058617504  0.9657428174003331  1.0000
  C   C10       1.0  0.24841786601918162  0.5257843963345439  0.46573819658282656  1.0000
  C   C11       1.0  0.7484016168856087  0.4742139162209825  0.034260803905994015  1.0000
  C   C12       1.0  0.7515991443596806  0.4742155259431727  0.5342633163973574  1.0000
  C   C13       1.0  0.30425124621385896  0.5405760477759429  0.0563800943567188  1.0000
  C   C14       1.0  0.19575107572473635  0.5405685615220648  0.5563748919490836  1.0000
  C   C15       1.0  0.6957366610381259  0.4594293227546089  0.9436218933487626  1.0000
  C   C16       1.0  0.8042621386066814  0.459430589431179  0.4436244935093897  1.0000
  C   C17       1.0  0.2575574603317535  0.4637494091114221  0.10348205905338403  1.0000
  C   C18       1.0  0.24244028046391014  0.4637417344986616  0.6034780665389122  1.0000
  C   C19       1.0  0.7424291815680564  0.5362559614216239  0.8965199286534615  1.0000
  C   C20       1.0  0.7575729338519539  0.5362597460005745  0.3965231139557447  1.0000
  C   C21       1.0  0.3084863326519098  0.47499372825100034  0.19492075122384733  1.0000
  C   C22       1.0  0.1915146293158472  0.47499014199877376  0.6949183312362026  1.0000
  C   C23       1.0  0.6915066360291319  0.5250077522881044  0.8050804292926659  1.0000
  C   C24       1.0  0.8084985849885343  0.5250128900501494  0.3050844828579288  1.0000
  C   C25       1.0  0.4006604061071287  0.5587597727594799  0.23867374810664194  1.0000
  C   C26       1.0  0.09934080954183601  0.558755780466349  0.7386687442849792  1.0000
  C   C27       1.0  0.599337623986692  0.44124092977335766  0.7613272709677049  1.0000
  C   C28       1.0  0.9006686087330495  0.4412433704943695  0.2613306411775937  1.0000
  C   C29       1.0  0.4529128732643102  0.6365810222993675  0.19397386332551755  1.0000
  C   C30       1.0  0.047090371139304914  0.6365787918152679  0.6939692952172153  1.0000
  C   C31       1.0  0.5470851568261638  0.3634196757905812  0.8060284664748993  1.0000
  C   C32       1.0  0.9529190471264999  0.3634211304773985  0.30603221777117545  1.0000
  C   C33       1.0  0.40562566967934544  0.6285211155467681  0.10248306370722565  1.0000
  C   C34       1.0  0.0943768545933139  0.628515586816448  0.6024777477335164  1.0000
  C   C35       1.0  0.5943685643464605  0.37148113854324555  0.8975195889706956  1.0000
  C   C36       1.0  0.9056312983317911  0.37148278392901807  0.3975221316567642  1.0000
  C   C37       1.0  0.4640922781032445  0.7057410470721878  0.060159712072852846  1.0000
  C   C38       1.0  0.035911003037696815  0.7057357508595246  0.5601538669972258  1.0000
  C   C39       1.0  0.5358981598538223  0.294263541014189  0.9398434249192678  1.0000
  C   C40       1.0  0.9640971498948263  0.2942618463325388  0.43984454023027564  1.0000
  C   C41       1.0  0.5683074600811652  0.783735873247508  0.1077735252194998  1.0000
  C   C42       1.0  0.9316950767395299  0.7837336860330382  0.6077677940452662  1.0000
  C   C43       1.0  0.43168803929921046  0.21626560062227185  0.8922296213833862  1.0000
  C   C44       1.0  0.06830801478762541  0.21626391561189  0.3922293024616296  1.0000
  C   C45       1.0  0.6098424026683135  0.7863432052930291  0.19755840032087246  1.0000
  C   C46       1.0  0.8901596489346633  0.7863419574588948  0.6975535756439514  1.0000
  C   C47       1.0  0.3901568927841482  0.21365593902328336  0.8024429512417444  1.0000
  C   C48       1.0  0.1098421772362457  0.21365642218481903  0.3024436823010107  1.0000
  C   C49       1.0  0.9306622465042268  0.10846425313876301  0.9760977493877334  1.0000
  C   C50       1.0  0.5693422153555832  0.1084594565289763  0.4760954717687583  1.0000
  C   C51       1.0  0.06934084501195771  0.8915325505168498  0.023905083949792103  1.0000
  C   C52       1.0  0.43065454939804954  0.8915373449176516  0.5239080169386341  1.0000
  C   C53       1.0  0.8380933563760992  0.047931333936546104  0.9002395300230078  1.0000
  C   C54       1.0  0.661913328943797  0.04792384092966981  0.4002359128207616  1.0000
  C   C55       1.0  0.16191100047787196  0.9520701510230298  0.09976033975513593  1.0000
  C   C56       1.0  0.3380847011857071  0.9520690749758741  0.5997654579756927  1.0000
  C   C57       1.0  0.6213731304618831  0.0880770881915822  0.16303654440712737  1.0000
  C   C58       1.0  0.8786090875992942  0.0880820498068857  0.66305073094847  1.0000
  C   C59       1.0  0.3786198382791782  0.9119174214811283  0.8369540080965694  1.0000
  C   C60       1.0  0.12138767711698512  0.9119225360455802  0.33695306139985354  1.0000
  S   S1        1.0  0.5387563424457086  0.22345591295906791  0.1797836922379048  1.0000
  S   S2        1.0  0.9612384364039315  0.22345668135830724  0.6797903395362115  1.0000
  S   S3        1.0  0.46124042234113466  0.7765393658166744  0.820209643150534  1.0000
  S   S4        1.0  0.0387684511369528  0.7765455638209957  0.32021493458019284  1.0000
  N   N1        1.0  0.16305007560010415  0.3780866151419886  0.06392887345803192  1.0000
  N   N2        1.0  0.33694740780652677  0.3780777947154163  0.5639232046870363  1.0000
  N   N3        1.0  0.836940362368445  0.6219164213946868  0.9360726299346142  1.0000
  N   N4        1.0  0.6630569490653928  0.6219205804804206  0.4360753639812673  1.0000
  N   N5        1.0  0.5523602013297122  0.7163136663765002  0.24109899032999493  1.0000
  N   N6        1.0  0.9476422849468948  0.716311414125052  0.7410938800798519  1.0000
  N   N7        1.0  0.44764415553218134  0.2836846954906563  0.7589035105165253  1.0000
  N   N8        1.0  0.052358275874240724  0.2836861853034165  0.2589038717928177  1.0000
  N   N9        1.0  0.0052592298234799  0.1582833407069018  0.0372068332740412  1.0000
  N   N10       1.0  0.494751844430347  0.15827390760733107  0.537198202278006  1.0000
  N   N11       1.0  0.9947375349375635  0.8417126871863161  0.9627951832705721  1.0000
  N   N12       1.0  0.5052537778427961  0.8417166987303021  0.4627954752067397  1.0000
  O   O1        1.0  0.6659266267399534  0.2762041362611214  0.13780600179728716  1.0000
  O   O2        1.0  0.8340653410878647  0.2762092911232941  0.6378150416395912  1.0000
  O   O3        1.0  0.3340676073822024  0.7237880616346788  0.8621775127645678  1.0000
  O   O4        1.0  0.16594154641806824  0.7237999582441076  0.3621910300440803  1.0000
  O   O5        1.0  0.3782377829957042  0.20336659182697056  0.13020201376426147  1.0000
  O   O6        1.0  0.12175214475796992  0.2033586079240736  0.6302000865265927  1.0000
  O   O7        1.0  0.6217501242871677  0.796632552511767  0.8697993378106478  1.0000
  O   O8        1.0  0.8782534774635097  0.7966389803871936  0.36980094215579135  1.0000
  O   O9        1.0  0.5237108916949893  0.2581322750848898  0.27739761161424076  1.0000
  O   O10       1.0  0.9762982446323039  0.2581353292885282  0.7774014339004581  1.0000
  O   O11       1.0  0.476308649411621  0.7418676782881022  0.7225947262807041  1.0000
  O   O12       1.0  0.023712438978265006  0.7418653665550536  0.22260155124933328  1.0000
  F   F1        1.0  0.5129376887676289  0.029568401058263305  0.20064537543806443  1.0000
  F   F2        1.0  0.9870423554362093  0.0295729399977418  0.7006580170832352  1.0000
  F   F3        1.0  0.4870527492518591  0.97042843594398  0.7993476274675759  1.0000
  F   F4        1.0  0.012953143941047103  0.9704300965289718  0.29934348630394686  1.0000
  F   F5        1.0  0.7758345884811818  0.08450724524689689  0.2015985631511086  1.0000
  F   F6        1.0  0.7241537919738122  0.0845182479131381  0.7016181454891424  1.0000
  F   F7        1.0  0.22416091098239832  0.915485721756916  0.7983877342982313  1.0000
  F   F8        1.0  0.27584297273505604  0.9154871114927233  0.2983871190219532  1.0000
  F   F9        1.0  0.6352772745673718  0.03997831372402771  0.07401663475509683  1.0000
  F   F10       1.0  0.8646957294746542  0.03997865326180521  0.5740325041651175  1.0000
  F   F11       1.0  0.3647043060081714  0.960015417974816  0.9259737563241902  1.0000
  F   F12       1.0  0.13529976988704825  0.9600267128109012  0.42597079425823386  1.0000
