data_image0
_chemical_formula_structural       Zn8H48C96O50
_chemical_formula_sum              "Zn8 H48 C96 O50"
_cell_length_a       28.115189587353317
_cell_length_b       28.11618717664437
_cell_length_c       28.114232618953338
_cell_angle_alpha    119.99997868251485
_cell_angle_beta     90.00172995292807
_cell_angle_gamma    59.99473234960094

_space_group_name_H-M_alt    "P 1"
_space_group_IT_number       1

loop_
  _space_group_symop_operation_xyz
  'x, y, z'

loop_
  _atom_site_type_symbol
  _atom_site_label
  _atom_site_symmetry_multiplicity
  _atom_site_fract_x
  _atom_site_fract_y
  _atom_site_fract_z
  _atom_site_occupancy
  Zn  Zn1       1.0  0.5285350019138805  0.057108118895605554  0.028544841483963346  1.0000
  Zn  Zn2       1.0  0.5285936531795344  0.9429207491468855  0.9143175778702995  1.0000
  Zn  Zn3       1.0  0.41439630532476474  0.05706591198177327  0.028483908648375623  1.0000
  Zn  Zn4       1.0  0.5285357456718175  0.9429359048587284  0.028511724911367983  1.0000
  Zn  Zn5       1.0  0.9713772008342686  0.9429567328228782  0.47152024596400804  1.0000
  Zn  Zn6       1.0  0.08558489680848427  0.9428871531135313  0.47143582292165576  1.0000
  Zn  Zn7       1.0  0.9714133797111727  0.05709082977127607  0.5856277764454558  1.0000
  Zn  Zn8       1.0  0.971389816776224  0.05708483678169743  0.4714617495408574  1.0000
  H   H1        1.0  0.8677628423002942  0.07686019223607561  0.3679174991579116  1.0000
  H   H2        1.0  0.8677723652936891  0.9230551939709526  0.36787783554179043  1.0000
  H   H3        1.0  0.6321543810288476  0.07686276935034175  0.13214746282833534  1.0000
  H   H4        1.0  0.6321103465427739  0.9231033047174079  0.1321400155583133  1.0000
  H   H5        1.0  0.2089523163296647  0.9231004799061181  0.5552774038720256  1.0000
  H   H6        1.0  0.055184788816660627  0.07694884992541508  0.7090962029182322  1.0000
  H   H7        1.0  0.4447699504424562  0.9231074587053809  0.7908592352251701  1.0000
  H   H8        1.0  0.2910061610815615  0.07690532681363027  0.9446871049793372  1.0000
  H   H9        1.0  0.20887621598550501  0.7357016857164921  0.3679688313062783  1.0000
  H   H10       1.0  0.05508231415352329  0.7357101468707513  0.36799205679278657  1.0000
  H   H11       1.0  0.44466131254657887  0.264345052219191  0.13225952539239919  1.0000
  H   H12       1.0  0.29091936902338494  0.26425925067034217  0.1321856203580366  1.0000
  H   H13       1.0  0.8678426609486111  0.2642870874404291  0.5552895795268994  1.0000
  H   H14       1.0  0.8678092392992338  0.26432379079160717  0.7090966732706077  1.0000
  H   H15       1.0  0.6321353073432122  0.7356717994218653  0.7909236236151143  1.0000
  H   H16       1.0  0.6321322012849889  0.7357383741263487  0.9447466387615219  1.0000
  H   H17       1.0  0.8678864077028906  0.0769548750488834  0.7091191432895271  1.0000
  H   H18       1.0  0.8678227568382652  0.9231917962945172  0.5553772062903519  1.0000
  H   H19       1.0  0.6321283935816523  0.07703427222897824  0.9448691011346356  1.0000
  H   H20       1.0  0.6322043772768211  0.9232131938148026  0.7910277166259472  1.0000
  H   H21       1.0  0.20900346178989093  0.9232555082635228  0.36794182266768855  1.0000
  H   H22       1.0  0.05519223309633498  0.07702770733018828  0.3679299954854898  1.0000
  H   H23       1.0  0.44469873744333205  0.9231433954880046  0.13213011389772344  1.0000
  H   H24       1.0  0.2909205301834206  0.0769547127444382  0.13213861548334185  1.0000
  H   H25       1.0  0.778681942460203  0.9199055540237423  0.2786570089038064  1.0000
  H   H26       1.0  0.7786489499332135  0.07997495475762384  0.27872536999835507  1.0000
  H   H27       1.0  0.7212251333331497  0.9199832074666147  0.2213337405585488  1.0000
  H   H28       1.0  0.7212886530166215  0.07996047403027946  0.22131946048483528  1.0000
  H   H29       1.0  0.14125363007838126  0.08011448099010458  0.8013349587034639  1.0000
  H   H30       1.0  0.30126862150934375  0.9199942235384311  0.641262573923562  1.0000
  H   H31       1.0  0.19868598371754587  0.08004643806783894  0.858710784748034  1.0000
  H   H32       1.0  0.3586921577842902  0.9200129595733342  0.6986308491524581  1.0000
  H   H33       1.0  0.14113855461730665  0.5573975978857034  0.2788362975273486  1.0000
  H   H34       1.0  0.3011664436706313  0.5573878602323032  0.27879736099446  1.0000
  H   H35       1.0  0.19857750770142968  0.44256561765280356  0.22138703123719944  1.0000
  H   H36       1.0  0.35855881289845126  0.44265476849483304  0.2214828904429352  1.0000
  H   H37       1.0  0.7787024505297281  0.44263100289412427  0.8013498428232352  1.0000
  H   H38       1.0  0.7787582720889218  0.4425887940537335  0.6412912164875663  1.0000
  H   H39       1.0  0.7212808089319224  0.55743488064359  0.8587551202335317  1.0000
  H   H40       1.0  0.7212610348437494  0.5573660085717832  0.6986877956433446  1.0000
  H   H41       1.0  0.7786562555623532  0.9201482394959863  0.6414779921851377  1.0000
  H   H42       1.0  0.7787385496939335  0.08012466466520582  0.8014537861908194  1.0000
  H   H43       1.0  0.7213790008346522  0.9201387240710589  0.6988121384174734  1.0000
  H   H44       1.0  0.7212819257393405  0.08018666726101713  0.8588616670500143  1.0000
  H   H45       1.0  0.1411974529135875  0.08017105800787759  0.2787929282759194  1.0000
  H   H46       1.0  0.3012701260275037  0.9201587914740088  0.27882465265623324  1.0000
  H   H47       1.0  0.19861779401754384  0.0801737853192605  0.22134307318248855  1.0000
  H   H48       1.0  0.35868029629035897  0.9200583767572964  0.22131027859468583  1.0000
  C   C1        1.0  0.5910885771081523  8.738723215618776e-05  0.9089856420575797  1.0000
  C   C2        1.0  0.40898276333818007  3.2755542702545334e-06  0.908859607694488  1.0000
  C   C3        1.0  0.4089119728494666  0.18213761019699587  0.09107769689057212  1.0000
  C   C4        1.0  0.408920278487919  1.7718146196261242e-05  0.09102885304884006  1.0000
  C   C5        1.0  0.5910658029712508  0.999988638761195  0.09104693754057543  1.0000
  C   C6        1.0  0.5910885888044463  0.817878146270281  0.9089078018439661  1.0000
  C   C7        1.0  0.09091810537388774  0.8178738192622956  0.40902944939072206  1.0000
  C   C8        1.0  0.0909809872500417  4.388034618276627e-06  0.5910992201727865  1.0000
  C   C9        1.0  0.9089037192035292  5.089984146863741e-05  0.5911408598064013  1.0000
  C   C10       1.0  0.9088544964712498  0.18213629268102197  0.5911022168222215  1.0000
  C   C11       1.0  0.9088174187963531  2.2418065127980937e-06  0.40901227966082115  1.0000
  C   C12       1.0  0.09100543685628538  5.4939169203256715e-05  0.4089648064567868  1.0000
  C   C13       1.0  0.8712081768905197  0.9999732618250544  0.3713609051720749  1.0000
  C   C14       1.0  0.854008353554718  0.04340768199241303  0.3541350926476665  1.0000
  C   C15       1.0  0.8191005017427601  0.0434056386000491  0.319183087300935  1.0000
  C   C16       1.0  0.8008732215894341  0.9999489349759756  0.30092294583887025  1.0000
  C   C17       1.0  0.8191065335466592  0.9564999452106516  0.31915937476639283  1.0000
  C   C18       1.0  0.8540168321629269  0.9565034112870373  0.3541167585329955  1.0000
  C   C19       1.0  0.7654484031264491  0.9999554629722097  0.2654877047473928  1.0000
  C   C20       1.0  0.7344828615780654  0.9999656204174056  0.23453490465635676  1.0000
  C   C21       1.0  0.6990489958092782  0.9999781963251663  0.1991062212593916  1.0000
  C   C22       1.0  0.6808233605313702  0.043419795418174006  0.18086028549867436  1.0000
  C   C23       1.0  0.6459036514953169  0.04342237799207257  0.14591764811360255  1.0000
  C   C24       1.0  0.6286847466253324  0.9999823277294053  0.1286925763402633  1.0000
  C   C25       1.0  0.6458808924067797  0.9565412302763717  0.14591383447902462  1.0000
  C   C26       1.0  0.6807956216905637  0.9565478956609397  0.1808607399474693  1.0000
  C   C27       1.0  0.12861648543808699  1.8700920492032278e-05  0.6287297242991982  1.0000
  C   C28       1.0  0.1892810639194523  0.9565678311919611  0.6024941349180891  1.0000
  C   C29       1.0  0.2242246647476875  0.9565830252925237  0.637410031470857  1.0000
  C   C30       1.0  0.19903925044948778  5.3323454807100093e-05  0.6991058321268184  1.0000
  C   C31       1.0  0.13734868569938632  0.04350737945439676  0.7243133431681628  1.0000
  C   C32       1.0  0.10239779820570749  0.04349716582286312  0.6894011764771547  1.0000
  C   C33       1.0  0.23449168577074175  4.5722871853216955e-05  0.7345223467102927  1.0000
  C   C34       1.0  0.26546498123312995  2.7027469471269362e-05  0.7654602787216972  1.0000
  C   C35       1.0  0.30091775439647955  2.0137927272345758e-05  0.8008743211423807  1.0000
  C   C36       1.0  0.3626032663119716  0.9565798718249923  0.7756516385878242  1.0000
  C   C37       1.0  0.3975606633614319  0.9565619882086551  0.8105633442564439  1.0000
  C   C38       1.0  0.37134495548378516  6.745519342791554e-06  0.8712299892874711  1.0000
  C   C39       1.0  0.31068082046664347  0.043460737091656584  0.8974769247528157  1.0000
  C   C40       1.0  0.2757280906678119  0.043472929428048555  0.8625626860910316  1.0000
  C   C41       1.0  0.12853578972706012  0.7426098549120537  0.3714340200287437  1.0000
  C   C42       1.0  0.18919926902603384  0.7081719578190899  0.354208852923982  1.0000
  C   C43       1.0  0.22414678655456305  0.6383091356776588  0.3192723933474894  1.0000
  C   C44       1.0  0.19893365173899022  0.6018327950374667  0.30103767753591626  1.0000
  C   C45       1.0  0.13724249102332212  0.6383155545991811  0.31929508727732525  1.0000
  C   C46       1.0  0.10229169335931225  0.7081869127705926  0.35423126957467566  1.0000
  C   C47       1.0  0.23437538096683855  0.5309608831308382  0.2656059713305155  1.0000
  C   C48       1.0  0.2653479284893692  0.46904879642936936  0.23465170498129584  1.0000
  C   C49       1.0  0.3008103257276389  0.39817972505338156  0.1992007515912705  1.0000
  C   C50       1.0  0.3625026327364296  0.36171688387662465  0.18096993907996506  1.0000
  C   C51       1.0  0.3974501040824947  0.2918561942095152  0.14601645162246513  1.0000
  C   C52       1.0  0.37124801448063494  0.25739767623448256  0.12875675373913947  1.0000
  C   C53       1.0  0.31058028727144193  0.29180854405428386  0.14597478852380166  1.0000
  C   C54       1.0  0.2756319929417542  0.36167065716134056  0.18093692447206416  1.0000
  C   C55       1.0  0.8712689655844984  0.25740203400257383  0.6287391210354867  1.0000
  C   C56       1.0  0.8540865144913923  0.29182098927294203  0.6024990616764113  1.0000
  C   C57       1.0  0.8191792183943393  0.3616919848638742  0.6374290878444954  1.0000
  C   C58       1.0  0.8009322117388962  0.39818228401110617  0.6991152560761904  1.0000
  C   C59       1.0  0.8191616206651275  0.3617092168536967  0.7243265606129226  1.0000
  C   C60       1.0  0.8540697070753963  0.2918382216753413  0.6894028581919613  1.0000
  C   C61       1.0  0.765489519440422  0.4690442370237586  0.7345365435693977  1.0000
  C   C62       1.0  0.7345087223483092  0.5309634383687223  0.7654962140221783  1.0000
  C   C63       1.0  0.6990584665217839  0.6018261041892927  0.8009222199936373  1.0000
  C   C64       1.0  0.680808681181091  0.6382945505108419  0.775706038821198  1.0000
  C   C65       1.0  0.6458916157548843  0.7081609226946382  0.8106191575245987  1.0000
  C   C66       1.0  0.6286872986406421  0.7426099146527249  0.8712851071213165  1.0000
  C   C67       1.0  0.6458906902160705  0.7081952245879037  0.897531257558022  1.0000
  C   C68       1.0  0.6808132281206696  0.6383302736742987  0.862611954384093  1.0000
  C   C69       1.0  0.8712946931271189  7.097918183516228e-05  0.628799381493721  1.0000
  C   C70       1.0  0.8541076935728569  0.04352463825691878  0.689461215615651  1.0000
  C   C71       1.0  0.8191800199545369  0.043540183157055996  0.724409340874594  1.0000
  C   C72       1.0  0.8009232910302373  0.00011321378448034984  0.6992163548949433  1.0000
  C   C73       1.0  0.8191413421915356  0.9566510569357899  0.6375280562441642  1.0000
  C   C74       1.0  0.8540688863642176  0.9566369351366852  0.6025857516393598  1.0000
  C   C75       1.0  0.765490845414213  0.00014808088840812387  0.7346749857099012  1.0000
  C   C76       1.0  0.7345311137276057  0.00016341861898861926  0.7656413087609194  1.0000
  C   C77       1.0  0.6990993787982234  0.00014564526191645642  0.8010480110112893  1.0000
  C   C78       1.0  0.6808395701041261  0.04359705897574863  0.8627368611667448  1.0000
  C   C79       1.0  0.6459059101895405  0.043588773967968245  0.8976571828987898  1.0000
  C   C80       1.0  0.6287164815335161  0.00011567853959309968  0.8713893378617639  1.0000
  C   C81       1.0  0.6459529239476042  0.9566711790742272  0.8107264835019234  1.0000
  C   C82       1.0  0.6808866016670193  0.9566744848767496  0.7758047215076684  1.0000
  C   C83       1.0  0.1286344059148661  0.0001248430654995574  0.371390555362666  1.0000
  C   C84       1.0  0.1893036053236301  0.956712071481256  0.3541863524829622  1.0000
  C   C85       1.0  0.22423594656963514  0.9567182225444029  0.31926308121490626  1.0000
  C   C86       1.0  0.19903256403284086  0.00015195862930267166  0.30100479862186086  1.0000
  C   C87       1.0  0.13734182037034506  0.04359654171330609  0.31926020695288315  1.0000
  C   C88       1.0  0.10240457807803686  0.0435854119272604  0.3541791316939181  1.0000
  C   C89       1.0  0.23446610988683855  0.00014839002522388636  0.2655649847090586  1.0000
  C   C90       1.0  0.2654190905002878  0.00012771683275753876  0.23457802431614988  1.0000
  C   C91       1.0  0.3008586219601029  9.78274704051657e-05  0.19911586373866894  1.0000
  C   C92       1.0  0.3625535309834971  0.9566293346382793  0.18085100737219764  1.0000
  C   C93       1.0  0.3974864359398963  0.9566091655418203  0.1459029862624915  1.0000
  C   C94       1.0  0.3712676080043877  4.882807348128092e-05  0.1286758876034924  1.0000
  C   C95       1.0  0.31060212684568705  0.043511667863768304  0.14590594333236592  1.0000
  C   C96       1.0  0.2756678780124702  0.043535038615395545  0.18086135520681518  1.0000
  O   O1        1.0  0.500022518470132  0.9999991673969716  0.9999511505543879  1.0000
  O   O2        1.0  0.5765717257996313  0.04059754236355657  0.9640000526033176  1.0000
  O   O3        1.0  0.46400278196105665  0.9594934038039183  0.8828318753354908  1.0000
  O   O4        1.0  0.3829053453590632  0.15312356141821215  0.07653535123359483  1.0000
  O   O5        1.0  0.5766152885607881  0.9595472195408371  0.8829280080075605  1.0000
  O   O6        1.0  0.4639222785782026  0.15316958632659788  0.07658863780306983  1.0000
  O   O7        1.0  0.38295569877484315  0.0405094382099235  0.9638752791237407  1.0000
  O   O8        1.0  0.3829015685246092  0.04052695302652145  0.07651725827800242  1.0000
  O   O9        1.0  0.5765677660547085  0.959474060992015  0.07654137914934735  1.0000
  O   O10       1.0  0.4639339496011063  0.9594995659480074  0.0765394721027092  1.0000
  O   O11       1.0  0.5765787083797989  0.04051296993416281  0.07655780030319909  1.0000
  O   O12       1.0  0.576633915608731  0.8468616925393915  0.8828725761658376  1.0000
  O   O13       1.0  0.5765801725755823  0.8468787963852119  0.9639245914144606  1.0000
  O   O14       1.0  0.9999544772628183  0.9999988219156535  0.500000107997053  1.0000
  O   O15       1.0  0.03590727617507381  0.8468784761136875  0.4235314789974538  1.0000
  O   O16       1.0  0.11700793367398893  0.9594586674821456  0.5360712716128903  1.0000
  O   O17       1.0  0.9234033039796117  0.0405653725495652  0.617144503664619  1.0000
  O   O18       1.0  0.1169622492093865  0.8468476658536446  0.42347202981527937  1.0000
  O   O19       1.0  0.923373825706051  0.9595310696445977  0.5361316326844374  1.0000
  O   O20       1.0  0.035975088201730815  0.040531604653963826  0.6171274659167948  1.0000
  O   O21       1.0  0.9233320865209366  0.15315274242345098  0.6171301747463857  1.0000
  O   O22       1.0  0.9233230771146953  0.040508991636975834  0.42348745136005295  1.0000
  O   O23       1.0  0.923327129481571  0.15314062670627474  0.5360827969018587  1.0000
  O   O24       1.0  0.9232911116806976  0.9595113463188552  0.42353402542900637  1.0000
  O   O25       1.0  0.1170406363397517  0.9594908476633958  0.42342368380512585  1.0000
  O   O26       1.0  0.03598891371656519  0.0405456260400569  0.4234432206719204  1.0000
  O   O27       1.0  0.8028361482000576  0.9137950370792325  0.30284558421661967  1.0000
  O   O28       1.0  0.8028173573352079  0.08609732798713302  0.3028995450373344  1.0000
  O   O29       1.0  0.6970669519409541  0.9138544298983788  0.19714578203605962  1.0000
  O   O30       1.0  0.697118433489706  0.08609837995586372  0.19715081108123644  1.0000
  O   O31       1.0  0.11095018551533546  0.08622250751108838  0.7832972217682155  1.0000
  O   O32       1.0  0.28320298981880393  0.9138779077232113  0.6109811817238863  1.0000
  O   O33       1.0  0.2167519786249128  0.08617022239246094  0.8889914574381591  1.0000
  O   O34       1.0  0.38899505891092184  0.9138835943142777  0.7166698425693098  1.0000
  O   O35       1.0  0.11083923512313731  0.605744931128754  0.30300831582224663  1.0000
  O   O36       1.0  0.28312390709329804  0.6057284066946096  0.30297202551034985  1.0000
  O   O37       1.0  0.21665268713053362  0.3942168863127975  0.19721066811234778  1.0000
  O   O38       1.0  0.388877298791094  0.3943184560203931  0.19729277039117918  1.0000
  O   O39       1.0  0.8028763469960083  0.39428793113662364  0.7833059116669286  1.0000
  O   O40       1.0  0.8029164148975595  0.3942422106972996  0.6110050410336001  1.0000
  O   O41       1.0  0.6970980823474094  0.6057825344568569  0.8890399149416837  1.0000
  O   O42       1.0  0.6970931748894458  0.6057076562197775  0.7167242670452293  1.0000
  O   O43       1.0  0.80283296792436  0.9139844343011486  0.6111580177449485  1.0000
  O   O44       1.0  0.8029050441315206  0.08623852453236203  0.7833868897599314  1.0000
  O   O45       1.0  0.6972038364881215  0.9139921409898477  0.7168215465411973  1.0000
  O   O46       1.0  0.6971139252661089  0.08629783270480107  0.8891523017845981  1.0000
  O   O47       1.0  0.11091370058848331  0.08629506255282847  0.30298025997574024  1.0000
  O   O48       1.0  0.2832172745530387  0.9140367160396676  0.3029923366659872  1.0000
  O   O49       1.0  0.2166888111515277  0.08625139936257395  0.19714406410574978  1.0000
  O   O50       1.0  0.3889691505128  0.9139315267955296  0.19712922737335947  1.0000
