data_image0
_chemical_formula_structural       Zn8H24C54N24O26
_chemical_formula_sum              "Zn8 H24 C54 N24 O26"
_cell_length_a       15.65600212914175
_cell_length_b       16.51283447454092
_cell_length_c       16.34006349079596
_cell_angle_alpha    64.94860867473943
_cell_angle_beta     62.13937686991631
_cell_angle_gamma    63.897048647012085

_space_group_name_H-M_alt    "P 1"
_space_group_IT_number       1

loop_
  _space_group_symop_operation_xyz
  'x, y, z'

loop_
  _atom_site_type_symbol
  _atom_site_label
  _atom_site_symmetry_multiplicity
  _atom_site_fract_x
  _atom_site_fract_y
  _atom_site_fract_z
  _atom_site_occupancy
  Zn  Zn1       1.0  0.8844540774678652  0.011915840562302495  0.02876783174178844  1.0000
  Zn  Zn2       1.0  0.08444233248189185  0.9854482599354953  0.07603251763996607  1.0000
  Zn  Zn3       1.0  0.09182142435091122  0.016068299293038994  0.8643304010473828  1.0000
  Zn  Zn4       1.0  0.077565952488257  0.8270418459130083  0.024062672551003958  1.0000
  Zn  Zn5       1.0  0.6812216678887922  0.4025673466791913  0.4621432550007827  1.0000
  Zn  Zn6       1.0  0.4645506389906799  0.3849149081843777  0.5050725462336773  1.0000
  Zn  Zn7       1.0  0.4872243220867461  0.5843285311705839  0.43834769411659397  1.0000
  Zn  Zn8       1.0  0.4864505104622625  0.44578327528867584  0.6505772317228845  1.0000
  H   H1        1.0  0.8091141731413742  0.2077834984944644  0.2592794171223007  1.0000
  H   H2        1.0  0.6240046146190538  0.09128360841609151  0.5449779275985095  1.0000
  H   H3        1.0  0.8117974340002762  0.92026549672169  0.3479099349055802  1.0000
  H   H4        1.0  0.6649735775389943  0.9503265921886666  0.6593592892949189  1.0000
  H   H5        1.0  0.7477607887171375  0.2320443084829904  0.7870503621702554  1.0000
  H   H6        1.0  0.791378796683297  0.5023071284405701  0.6105836281961246  1.0000
  H   H7        1.0  0.9739827887987289  0.31362794530339505  0.7877607592626106  1.0000
  H   H8        1.0  0.837497634069685  0.6211312348643502  0.6257156348726766  1.0000
  H   H9        1.0  0.7597193147196466  0.7269509603765554  0.26109726905295366  1.0000
  H   H10       1.0  0.7542087742688041  0.5404298750276055  0.14353514979318768  1.0000
  H   H11       1.0  0.8861978104228712  0.7640582331699762  0.9534385637860653  1.0000
  H   H12       1.0  0.7153301365919092  0.5804483292318565  0.9928325754896078  1.0000
  H   H13       1.0  0.2832691602632807  0.2004616900702061  0.7631245444515927  1.0000
  H   H14       1.0  0.579047904731411  0.144387743780932  0.7619590873203208  1.0000
  H   H15       1.0  0.42822245243442586  0.9303966687984229  0.9245131410143586  1.0000
  H   H16       1.0  0.7253798627348547  0.026009950688404587  0.7686247565676397  1.0000
  H   H17       1.0  0.3036225055113349  0.7158667107319374  0.25616437899047645  1.0000
  H   H18       1.0  0.21060109600031054  0.47148669809610055  0.44917493625022326  1.0000
  H   H19       1.0  0.04746295575835553  0.6756422967206602  0.25792057313848465  1.0000
  H   H20       1.0  0.1270514258103219  0.3750212981732375  0.4604228620190085  1.0000
  H   H21       1.0  0.2653665363540655  0.6893838051603467  0.7784712310251934  1.0000
  H   H22       1.0  0.18102410157350593  0.7112605257762538  0.5520109869858629  1.0000
  H   H23       1.0  0.9968620726905755  0.904688800815066  0.7262564906619176  1.0000
  H   H24       1.0  0.01150659937234628  0.7365766113933672  0.5501802894061427  1.0000
  C   C1        1.0  0.8765155967186758  0.0553164107775714  0.1920000448695518  1.0000
  C   C2        1.0  0.8132116206623153  0.06478107135684752  0.2921217393198109  1.0000
  C   C3        1.0  0.7823604630134046  0.14899243103752002  0.31366138571595314  1.0000
  C   C4        1.0  0.7120573249625508  0.15827361829990136  0.40436387807151425  1.0000
  C   C5        1.0  0.6798404502545454  0.08225007998705541  0.47513437147706855  1.0000
  C   C6        1.0  0.7208057901964721  0.9958314127197668  0.4555124341350664  1.0000
  C   C7        1.0  0.7839493703767817  0.9873383024790955  0.3629868690384871  1.0000
  C   C8        1.0  0.678960028890721  0.8986024126977626  0.626849555497479  1.0000
  C   C9        1.0  0.6645171513217039  0.2501811360074129  0.4280191191833538  1.0000
  C   C10       1.0  0.9035431012961087  0.16902692338828018  0.8564074649901912  1.0000
  C   C11       1.0  0.8622671949934289  0.26421680311606366  0.7961255623618512  1.0000
  C   C12       1.0  0.7851154572139621  0.2844177909802568  0.7631640030550246  1.0000
  C   C13       1.0  0.7610532790563269  0.37001913739342024  0.6954779144246576  1.0000
  C   C14       1.0  0.8086092699448958  0.43716030288928204  0.6653451497124793  1.0000
  C   C15       1.0  0.8833464839436688  0.4168072590545576  0.700980272994585  1.0000
  C   C16       1.0  0.911899487014992  0.3303781789661073  0.7646745468556303  1.0000
  C   C17       1.0  0.9128100652428874  0.5752785243914358  0.6265510511924363  1.0000
  C   C18       1.0  0.6892255892007952  0.3910470345580776  0.6470057733795969  1.0000
  C   C19       1.0  0.8743656495463699  0.8233350037634466  0.08944285828433615  1.0000
  C   C20       1.0  0.8295648484504952  0.7515013511336406  0.10621137089582783  1.0000
  C   C21       1.0  0.7767614678135718  0.7059292048858123  0.1989248259927337  1.0000
  C   C22       1.0  0.7481952097321668  0.6311997335652252  0.21137818736652036  1.0000
  C   C23       1.0  0.7728242207560713  0.6014311575558082  0.13246261735471881  1.0000
  C   C24       1.0  0.821005729129894  0.6509012167790615  0.04030678101474898  1.0000
  C   C25       1.0  0.8495779378934075  0.7261111957007316  0.026231096205975697  1.0000
  C   C26       1.0  0.7869028883538648  0.5927693175515999  0.9421481072936191  1.0000
  C   C27       1.0  0.6898013959967033  0.581273645018193  0.3090056763988969  1.0000
  C   C28       1.0  0.24913885953852605  0.038247559066007894  0.8925399270235204  1.0000
  C   C29       1.0  0.3449483369030021  0.06369139369180488  0.8503289949762944  1.0000
  C   C30       1.0  0.347203304523056  0.1525921716422118  0.7870432578964216  1.0000
  C   C31       1.0  0.4308142108189444  0.1814946475880461  0.7584176641223125  1.0000
  C   C32       1.0  0.5152965278091345  0.11955631320653737  0.7849298867801623  1.0000
  C   C33       1.0  0.5155660921304774  0.02787362704494709  0.8399862370130221  1.0000
  C   C34       1.0  0.4289146483421434  0.00041420215198679724  0.8768818165093181  1.0000
  C   C35       1.0  0.7010723889881091  0.965790497431115  0.8208951784298365  1.0000
  C   C36       1.0  0.4311251042622431  0.2794429115244411  0.6992314723057547  1.0000
  C   C37       1.0  0.15928490945816515  0.7894140244906538  0.16631282747412265  1.0000
  C   C38       1.0  0.17346747449690267  0.7054791850239894  0.24974569446551703  1.0000
  C   C39       1.0  0.2518074359819096  0.6752661515163041  0.28448259751718313  1.0000
  C   C40       1.0  0.26643548924209887  0.5886317382296508  0.3537781565677777  1.0000
  C   C41       1.0  0.19950792698205083  0.536324811628667  0.3925245945970132  1.0000
  C   C42       1.0  0.11937116784986299  0.569848877940238  0.35960863717387076  1.0000
  C   C43       1.0  0.1073915488675468  0.6528026626331638  0.2863731069711336  1.0000
  C   C44       1.0  0.060050250150098315  0.42612059775096606  0.4442275395600462  1.0000
  C   C45       1.0  0.35402142918498913  0.5485969057486243  0.38787087804740855  1.0000
  C   C46       1.0  0.11797614376739314  0.844846911625943  0.8287217846383899  1.0000
  C   C47       1.0  0.13056001657118096  0.8018638039291587  0.7585268667844431  1.0000
  C   C48       1.0  0.21314947030738549  0.7229846575879363  0.7388598803036432  1.0000
  C   C49       1.0  0.23218448005373918  0.6928132477547281  0.6623824011103352  1.0000
  C   C50       1.0  0.16434162475920294  0.7345708439337244  0.6124973244020849  1.0000
  C   C51       1.0  0.07738021724948396  0.807306520219008  0.6397328423989919  1.0000
  C   C52       1.0  0.06185688585112808  0.8441918084217405  0.7098569254275091  1.0000
  C   C53       1.0  0.982638740043186  0.810285303326431  0.5491728997382097  1.0000
  C   C54       1.0  0.33132671874755454  0.6238521488214134  0.6246217610926833  1.0000
  N   N1        1.0  0.7013752428096468  0.9152144131304781  0.5315076596592474  1.0000
  N   N2        1.0  0.6815774962615679  0.8100250114060826  0.6708600714425047  1.0000
  N   N3        1.0  0.7073631170954968  0.7716418023864762  0.5997505591726908  1.0000
  N   N4        1.0  0.7199266826864631  0.8334106844738897  0.5160628533293946  1.0000
  N   N5        1.0  0.938615584518608  0.4810313086527459  0.6642743959063254  1.0000
  N   N6        1.0  0.9941904808080083  0.6019340751476321  0.5930928787853135  1.0000
  N   N7        1.0  0.07034395097974773  0.5225018164675175  0.6116694555316329  1.0000
  N   N8        1.0  0.03894003293250145  0.4492186261201353  0.6540393929526404  1.0000
  N   N9        1.0  0.8411940272531382  0.625446058848233  0.958863285360252  1.0000
  N   N10       1.0  0.8335096592902502  0.5821187820473169  0.8542226675556037  1.0000
  N   N11       1.0  0.9180969204372786  0.6097642058959637  0.8165273963658848  1.0000
  N   N12       1.0  0.9237615878848617  0.6362553740182546  0.877695074630545  1.0000
  N   N13       1.0  0.6047663522492215  0.9614264657196829  0.8588908515028777  1.0000
  N   N14       1.0  0.7599146973423034  0.8845672794760161  0.8568106630320433  1.0000
  N   N15       1.0  0.6977279848182436  0.8295358905870386  0.9179678951650704  1.0000
  N   N16       1.0  0.6052099738774571  0.8739524667486123  0.9200669542565053  1.0000
  N   N17       1.0  0.05005965937851904  0.5183800052444524  0.39839534903436663  1.0000
  N   N18       1.0  0.975860503320469  0.409646097802181  0.46494050246600016  1.0000
  N   N19       1.0  0.9129932848350039  0.49429465328543637  0.4309864620443309  1.0000
  N   N20       1.0  0.955956522438335  0.5600037592987447  0.3908871676611767  1.0000
  N   N21       1.0  0.005998438477433864  0.8480074961502311  0.5924264292846217  1.0000
  N   N22       1.0  0.9115814624897853  0.8757543154655139  0.5140610181586139  1.0000
  N   N23       1.0  0.8913897185264118  0.9545217992939358  0.5369478916319398  1.0000
  N   N24       1.0  0.9469436187802103  0.9393625698344651  0.5840639827353943  1.0000
  O   O1        1.0  0.03204046721924662  0.9625171048618668  0.002400499379973591  1.0000
  O   O2        1.0  0.9650409652864982  0.06433069041927553  0.15533245210831131  1.0000
  O   O3        1.0  0.8341412735705094  0.038353508985011296  0.15329472714579848  1.0000
  O   O4        1.0  0.567760726389615  0.277352753061706  0.45767707193531504  1.0000
  O   O5        1.0  0.7220490780078778  0.2915900505227782  0.41814304878217007  1.0000
  O   O6        1.0  0.9999308315967854  0.14175939781203084  0.8316119870755047  1.0000
  O   O7        1.0  0.8437087836575332  0.12294878767433913  0.92501262462212  1.0000
  O   O8        1.0  0.5961667185209762  0.4303746205602081  0.6882075029180187  1.0000
  O   O9        1.0  0.729249710881817  0.36909123305738223  0.5682074579707433  1.0000
  O   O10       1.0  0.9530805585552145  0.7899798485756405  0.11294509199742478  1.0000
  O   O11       1.0  0.8351163900740561  0.9090842656852159  0.05061957055266939  1.0000
  O   O12       1.0  0.6034795306054975  0.6315249826478606  0.3528195401786293  1.0000
  O   O13       1.0  0.729588617663225  0.49343225269475965  0.3381862878439606  1.0000
  O   O14       1.0  0.2186869175045487  0.0370337087422001  0.83329591238369  1.0000
  O   O15       1.0  0.20730930471560072  0.0223643800514211  0.9835645185266203  1.0000
  O   O16       1.0  0.4742923586200761  0.31664741124779977  0.7173382120358055  1.0000
  O   O17       1.0  0.38986912965568626  0.31736554282779383  0.6352429120843938  1.0000
  O   O18       1.0  0.17124938175991397  0.7692116998902064  0.0934678384567604  1.0000
  O   O19       1.0  0.1339948337281812  0.8711562318433577  0.17350851921068514  1.0000
  O   O20       1.0  0.408211376971849  0.6000717273518106  0.3628664343503943  1.0000
  O   O21       1.0  0.36758478877757733  0.4635114768140908  0.4398585124202442  1.0000
  O   O22       1.0  0.09436620306983196  0.9341874335319957  0.8035247349639507  1.0000
  O   O23       1.0  0.13282783146114951  0.7890750084611396  0.9070693385969477  1.0000
  O   O24       1.0  0.366297115976437  0.5511708224971342  0.6846564883235331  1.0000
  O   O25       1.0  0.3727818416102691  0.6473171851232778  0.533366909606805  1.0000
  O   O26       1.0  0.5325371830747798  0.4548097696549931  0.5131170028874977  1.0000
