data_image0
_chemical_formula_structural       Zn2H8C4N16O8
_chemical_formula_sum              "Zn2 H8 C4 N16 O8"
_cell_length_a       5.548612501377568
_cell_length_b       6.367018453139346
_cell_length_c       10.552963442015818
_cell_angle_alpha    90.00004410575403
_cell_angle_beta     90.0001940102786
_cell_angle_gamma    92.29699219387807

_space_group_name_H-M_alt    "P 1"
_space_group_IT_number       1

loop_
  _space_group_symop_operation_xyz
  'x, y, z'

loop_
  _atom_site_type_symbol
  _atom_site_label
  _atom_site_symmetry_multiplicity
  _atom_site_fract_x
  _atom_site_fract_y
  _atom_site_fract_z
  _atom_site_occupancy
  Zn  Zn1       1.0  0.5000009327736096  1.1801959729012807e-06  0.5000002723892935  1.0000
  Zn  Zn2       1.0  1.6766694699293938e-07  0.9999989708527295  1.3296735659000005e-06  1.0000
  H   H1        1.0  0.7496664267552261  0.066163725731073  0.7242209501139245  1.0000
  H   H2        1.0  0.7503325514062595  0.9338365566688013  0.22422056420587927  1.0000
  H   H3        1.0  0.25033175025665605  0.9338370564012736  0.27578194859668065  1.0000
  H   H4        1.0  0.249667767545688  0.0661689034255346  0.7757823345087334  1.0000
  H   H5        1.0  0.8819166436180198  0.8851982368301988  0.6472459066574816  1.0000
  H   H6        1.0  0.6180820550659192  0.11480516830603449  0.14724548655021863  1.0000
  H   H7        1.0  0.1180841310973051  0.11481350900924528  0.3527494112514377  1.0000
  H   H8        1.0  0.3819121798821286  0.8851909722109214  0.8527498313458398  1.0000
  C   C1        1.0  0.6022559254257445  0.47438699530730577  0.4631796422593624  1.0000
  C   C2        1.0  0.8977690315985427  0.5256018406839685  0.9631920788600117  1.0000
  C   C3        1.0  0.39775508014375294  0.5256166752638549  0.536814728053642  1.0000
  C   C4        1.0  0.10224117637255861  0.4743908298327497  0.03681176745847381  1.0000
  N   N1        1.0  0.6925579156352059  0.2836679214869449  0.4488917036974415  1.0000
  N   N2        1.0  0.8074438877408028  0.716326097593729  0.9488956295534766  1.0000
  N   N3        1.0  0.3074597205908844  0.7163277465111052  0.5511017190165435  1.0000
  N   N4        1.0  0.19255180548038456  0.28366529226668286  0.051104426347286805  1.0000
  N   N5        1.0  0.889934510596781  0.308491315461751  0.3766003449777245  1.0000
  N   N6        1.0  0.6100663604712437  0.6914963989605952  0.8765982186422507  1.0000
  N   N7        1.0  0.11007412515409239  0.6915045342749906  0.6233987633352315  1.0000
  N   N8        1.0  0.3899346190929762  0.3084933104202818  0.12339994206010374  1.0000
  N   N9        1.0  0.9266415353492264  0.5061622040482022  0.34365048140508503  1.0000
  N   N10       1.0  0.5733542879751852  0.49383346797993244  0.843649057374144  1.0000
  N   N11       1.0  0.07335112742543971  0.4938371156906385  0.6563543125022877  1.0000
  N   N12       1.0  0.42664523334401144  0.5061609920585965  0.1563528937336116  1.0000
  N   N13       1.0  0.7460602902957305  0.6126475246542215  0.39633415256805904  1.0000
  N   N14       1.0  0.7539346499365396  0.3873560546867195  0.8963367357985778  1.0000
  N   N15       1.0  0.25393631450217674  0.3873564366983969  0.6036659033392626  1.0000
  N   N16       1.0  0.2460649853359911  0.6126399767885858  0.10366711051223382  1.0000
  O   O1        1.0  0.7248143290727569  0.8139656654285619  0.37906419596372143  1.0000
  O   O2        1.0  0.7751761225567718  0.18605216136615607  0.8790675791030795  1.0000
  O   O3        1.0  0.2751739589074873  0.18604790628090487  0.6209339647385264  1.0000
  O   O4        1.0  0.2248239685009921  0.8139501558551246  0.1209353196098917  1.0000
  O   O5        1.0  0.7317833391229341  0.9646331036775779  0.6537179280043122  1.0000
  O   O6        1.0  0.7682132602842273  0.03536562518990389  0.15371864412956177  1.0000
  O   O7        1.0  0.26821517972397396  0.03537239276410281  0.3462830755065057  1.0000
  O   O8        1.0  0.2317810886296527  0.9646320867643254  0.846282359374058  1.0000
