data_image0
_chemical_formula_structural       Al4H28C64O28
_chemical_formula_sum              "Al4 H28 C64 O28"
_cell_length_a       6.6973262713005655
_cell_length_b       21.9275516493283
_cell_length_c       25.099571412019777
_cell_angle_alpha    95.80835660138129
_cell_angle_beta     90.00013339087371
_cell_angle_gamma    90.00106153013263

_space_group_name_H-M_alt    "P 1"
_space_group_IT_number       1

loop_
  _space_group_symop_operation_xyz
  'x, y, z'

loop_
  _atom_site_type_symbol
  _atom_site_label
  _atom_site_symmetry_multiplicity
  _atom_site_fract_x
  _atom_site_fract_y
  _atom_site_fract_z
  _atom_site_occupancy
  Al  Al1       1.0  0.7855475084049532  0.24855320226254918  0.2501668198039084  1.0000
  Al  Al2       1.0  0.216773815842302  0.7510258092939778  0.7499227488633978  1.0000
  Al  Al3       1.0  0.28554507688550507  0.2514474112791802  0.24983366199015933  1.0000
  Al  Al4       1.0  0.7167747790678902  0.7489739656798876  0.7500770131754777  1.0000
  H   H1        1.0  0.7266735970555871  0.422739419291986  0.47955881918262844  1.0000
  H   H2        1.0  0.2698333926149985  0.5740150228622272  0.5232498010963554  1.0000
  H   H3        1.0  0.2266779720745973  0.0772582071435721  0.020438389929836404  1.0000
  H   H4        1.0  0.7698276972894149  0.925986564249854  0.9767512237417295  1.0000
  H   H5        1.0  0.2989518265755322  0.4690047156583432  0.08120646560347211  1.0000
  H   H6        1.0  0.6959457757199417  0.5345924430266394  0.9220699086395999  1.0000
  H   H7        1.0  0.798942499119157  0.030996704102335612  0.41879243042350117  1.0000
  H   H8        1.0  0.195942910628979  0.9654068931018147  0.5779310307894151  1.0000
  H   H9        1.0  0.32344476897398516  0.3961879041335549  0.15150254739878485  1.0000
  H   H10       1.0  0.6735566274046152  0.6065441195888965  0.8508054934649608  1.0000
  H   H11       1.0  0.8234392559792099  0.10381301758631171  0.3484947739400397  1.0000
  H   H12       1.0  0.173572405968315  0.8934561828942267  0.6491970235262698  1.0000
  H   H13       1.0  0.7250402705285738  0.33335840653403187  0.11403836040032903  1.0000
  H   H14       1.0  0.27972518435965554  0.6624927111400183  0.8826312633660224  1.0000
  H   H15       1.0  0.22503685759407696  0.16663994158516002  0.3859612501606975  1.0000
  H   H16       1.0  0.7797229063019913  0.8375096596567957  0.6173641675382413  1.0000
  H   H17       1.0  0.5303280394371583  0.46084081263713034  0.5470167459530161  1.0000
  H   H18       1.0  0.3503288201431474  0.46495080352610785  0.3990233050119443  1.0000
  H   H19       1.0  0.030338361710008102  0.03915791526202379  0.9529808351842136  1.0000
  H   H20       1.0  0.8503274096426097  0.035050365094385  0.10097484763831231  1.0000
  H   H21       1.0  0.65300819547479  0.436098536883769  0.0035562467171957  1.0000
  H   H22       1.0  0.4645176518317059  0.6304695007617056  0.9498687306307262  1.0000
  H   H23       1.0  0.15300099241289192  0.0638952445911869  0.4964428776348769  1.0000
  H   H24       1.0  0.9645077745826145  0.869532476898918  0.5501261066400432  1.0000
  H   H25       1.0  0.54169297836863  0.33033713319069596  0.24980231967326466  1.0000
  H   H26       1.0  0.4634070862678073  0.6736057612193564  0.7244251436564684  1.0000
  H   H27       1.0  0.041684081613610105  0.16966179744070334  0.25019548381774115  1.0000
  H   H28       1.0  0.963414475532389  0.8263936132622619  0.7755748950724026  1.0000
  C   C1        1.0  0.5325940231292705  0.17974850790866986  0.31820503564860303  1.0000
  C   C2        1.0  0.46888072252863827  0.8207408209787063  0.6819367537074826  1.0000
  C   C3        1.0  0.0326011542767759  0.3202510096957738  0.18179435993256732  1.0000
  C   C4        1.0  0.9688720672948962  0.6792616861018033  0.8180624936510058  1.0000
  C   C5        1.0  0.5336309267748689  0.173501350358805  0.1733519969945547  1.0000
  C   C6        1.0  0.4682066054381623  0.8254758346524085  0.8270616726298742  1.0000
  C   C7        1.0  0.0336486646054723  0.3264999541211112  0.3266510054382722  1.0000
  C   C8        1.0  0.9681859398788789  0.6745201019881082  0.6729399695033251  1.0000
  C   C9        1.0  0.8241568562102517  0.4994010313725568  0.5333198717789928  1.0000
  C   C10       1.0  0.1696177175384861  0.49795270877248055  0.46938567499788775  1.0000
  C   C11       1.0  0.32416047318805147  0.0005972498864182008  0.9666792402803354  1.0000
  C   C12       1.0  0.6696136835749799  0.0020475104935399994  0.030617078641185503  1.0000
  C   C13       1.0  0.9782077814036825  0.5432160512547172  0.5463785745489816  1.0000
  C   C14       1.0  0.0160699818513024  0.45425505320566373  0.4563403110982024  1.0000
  C   C15       1.0  0.4782106660306057  0.9567819486767276  0.9536206785060061  1.0000
  C   C16       1.0  0.5160731998040688  0.0457468786977202  0.0436610705813152  1.0000
  C   C17       1.0  0.14950522892119272  0.5411330519230618  0.513921438013398  1.0000
  C   C18       1.0  0.846011823367512  0.45589171142690094  0.4892726732050862  1.0000
  C   C19       1.0  0.649497136115315  0.9588665180144039  0.9860798499017138  1.0000
  C   C20       1.0  0.34602156234088705  0.04410856593486301  0.010725874074012202  1.0000
  C   C21       1.0  0.965646135162558  0.588706274409688  0.5903842376152469  1.0000
  C   C22       1.0  0.028685411014066603  0.40988741381347893  0.41141647624032635  1.0000
  C   C23       1.0  0.46564736042607535  0.9112910616595616  0.909617803560707  1.0000
  C   C24       1.0  0.5286902280890261  0.0901156383655177  0.08858211786364481  1.0000
  C   C25       1.0  0.030822229435791805  0.37107255604217937  0.37310627044021066  1.0000
  C   C26       1.0  0.9701956102736562  0.6291328525094003  0.6273639619237275  1.0000
  C   C27       1.0  0.5308177978839765  0.12892604137845615  0.1268971263678154  1.0000
  C   C28       1.0  0.4702179427345571  0.8708653304150714  0.8726372844353208  1.0000
  C   C29       1.0  0.17488651370774727  0.43904004699606974  0.08888264174637331  1.0000
  C   C30       1.0  0.8228868082690682  0.5629221964729967  0.9132343819246104  1.0000
  C   C31       1.0  0.6748849145601526  0.060964124268132004  0.41111852033290575  1.0000
  C   C32       1.0  0.3228897627597362  0.9370771872508785  0.5867646980855525  1.0000
  C   C33       1.0  0.18739344038915823  0.39888867080467366  0.1280511283906023  1.0000
  C   C34       1.0  0.8105620364981407  0.6028765440759473  0.8737589641325771  1.0000
  C   C35       1.0  0.6873864752324793  0.10111260683849112  0.37194804256219527  1.0000
  C   C36       1.0  0.3105673853187838  0.8971232246026232  0.6262401024401641  1.0000
  C   C37       1.0  0.024230215211183303  0.36134011934913707  0.13810452641752144  1.0000
  C   C38       1.0  0.9760798674757895  0.6385047529476111  0.8621522988679546  1.0000
  C   C39       1.0  0.5242254463062822  0.13866167628792436  0.36189526260058363  1.0000
  C   C40       1.0  0.4760861368033106  0.8614968835330429  0.6378469556625534  1.0000
  C   C41       1.0  0.8515214604803419  0.36281733598858074  0.10704756797192522  1.0000
  C   C42       1.0  0.15136867853096453  0.6346701579506444  0.8918180963719352  1.0000
  C   C43       1.0  0.3515163166088939  0.13718032819842563  0.39295178355274635  1.0000
  C   C44       1.0  0.6513754782688823  0.8653312907543693  0.6081795918600363  1.0000
  C   C45       1.0  0.8389950661130641  0.4013440943202441  0.06615634885437062  1.0000
  C   C46       1.0  0.16549570172594494  0.595843320822752  0.9325260054697894  1.0000
  C   C47       1.0  0.3389983883847378  0.0986550950751237  0.43384499232246304  1.0000
  C   C48       1.0  0.6654985346309062  0.9041581177535319  0.5674708977816182  1.0000
  C   C49       1.0  0.001060350056008  0.4409742205826178  0.05727262619160461  1.0000
  C   C50       1.0  0.9992362836221389  0.5584548797437705  0.9434037980392916  1.0000
  C   C51       1.0  0.5010604029407874  0.05902703103621581  0.44272753663810965  1.0000
  C   C52       1.0  0.49923625960578744  0.9415459323639722  0.5565950812095013  1.0000
  C   C53       1.0  0.994075591637703  0.48144251562159474  0.0170471310623768  1.0000
  C   C54       1.0  0.0041724527448821006  0.5176893629354069  0.9832758055509955  1.0000
  C   C55       1.0  0.4940744711350363  0.01856025987561339  0.4829539877478908  1.0000
  C   C56       1.0  0.504175116531542  0.9823135164569411  0.5167217188124199  1.0000
  C   C57       1.0  0.633686913547365  0.4982571499777607  0.5634205379424486  1.0000
  C   C58       1.0  0.3512900757633872  0.49817527728223626  0.4356786413717444  1.0000
  C   C59       1.0  0.13368287098310822  0.0017405335503184042  0.9365787598895282  1.0000
  C   C60       1.0  0.8512922957621357  0.0018236645067233007  0.0643239146163452  1.0000
  C   C61       1.0  0.6585781129998126  0.40035378211650413  0.0321014594313738  1.0000
  C   C62       1.0  0.3570558286574155  0.5949883890698688  0.9613486516257981  1.0000
  C   C63       1.0  0.1585773139614162  0.09963875490240781  0.46789847070046875  1.0000
  C   C64       1.0  0.857049502560493  0.9050146115277475  0.5386484685133511  1.0000
  O   O1        1.0  0.3641639375071364  0.1919353196959506  0.19128188626763185  1.0000
  O   O2        1.0  0.6373839168465736  0.8067434496788978  0.8089152391661755  1.0000
  O   O3        1.0  0.8641779673568523  0.3080602309830383  0.3087222822690094  1.0000
  O   O4        1.0  0.1373669791449004  0.6932521745186692  0.6910880330326279  1.0000
  O   O5        1.0  0.7040090301578701  0.19323432651470543  0.30055092189816435  1.0000
  O   O6        1.0  0.29741345860166046  0.807362803195204  0.699472858028507  1.0000
  O   O7        1.0  0.20401549535609587  0.3067634876629696  0.19944506068895865  1.0000
  O   O8        1.0  0.7974054636281666  0.6926364792691545  0.8005265936667741  1.0000
  O   O9        1.0  0.7050297302497627  0.18903509268165666  0.19194489452742403  1.0000
  O   O10       1.0  0.2977797909968345  0.8085804987830871  0.8086415114860089  1.0000
  O   O11       1.0  0.20504486735413247  0.3109706645214843  0.30805269933312474  1.0000
  O   O12       1.0  0.7977692733666615  0.6914192418920423  0.6913579411063895  1.0000
  O   O13       1.0  0.8655017217863803  0.30234600462404876  0.19883330047977668  1.0000
  O   O14       1.0  0.13706743553335346  0.6963497881649304  0.8012176902462826  1.0000
  O   O15       1.0  0.36549796033912685  0.19765707828545231  0.30116887545337084  1.0000
  O   O16       1.0  0.637071276058684  0.8036528110431365  0.6987827860794483  1.0000
  O   O17       1.0  0.5371570083425965  0.2865088055748047  0.2517518361718203  1.0000
  O   O18       1.0  0.46558386346141134  0.7125796818416746  0.7465225071252065  1.0000
  O   O19       1.0  0.037153747048201104  0.21349028224029357  0.24824756407365106  1.0000
  O   O20       1.0  0.9655886884017307  0.787420069625327  0.7534767336082241  1.0000
  O   O21       1.0  0.5861423192783093  0.5336401978024696  0.6020381977987412  1.0000
  O   O22       1.0  0.4953396722217676  0.5316872335120594  0.44659375165752385  1.0000
  O   O23       1.0  0.08613634043177851  0.9663553116610543  0.8979626141891189  1.0000
  O   O24       1.0  0.995341805456043  0.9683131477835263  0.05340853549780889  1.0000
  O   O25       1.0  0.5219105198984337  0.36340104193773476  0.034354919638666104  1.0000
  O   O26       1.0  0.40454847913003533  0.5597194633906782  0.9941176253681975  1.0000
  O   O27       1.0  0.021905976568753302  0.13659138905194376  0.4656428547205636  1.0000
  O   O28       1.0  0.9045410254520905  0.9402818036281178  0.5058779446090326  1.0000
