data_image0
_chemical_formula_structural       Zn2H40C68N4O8
_chemical_formula_sum              "Zn2 H40 C68 N4 O8"
_cell_length_a       8.589745291800462
_cell_length_b       12.308799699558268
_cell_length_c       14.2236
_cell_angle_alpha    72.606308295458
_cell_angle_beta     88.11562049594082
_cell_angle_gamma    71.61589440346354

_space_group_name_H-M_alt    "P 1"
_space_group_IT_number       1

loop_
  _space_group_symop_operation_xyz
  'x, y, z'

loop_
  _atom_site_type_symbol
  _atom_site_label
  _atom_site_symmetry_multiplicity
  _atom_site_fract_x
  _atom_site_fract_y
  _atom_site_fract_z
  _atom_site_occupancy
  Zn  Zn1       1.0  0.10508050697127662  0.2013767635989296  0.2761702897825558  1.0000
  Zn  Zn2       1.0  0.89491899365612  0.7986237076034115  0.7238293170147331  1.0000
  H   H1        1.0  0.0220902659469857  0.9211255313234048  0.16056358998400103  1.0000
  H   H2        1.0  0.977907282003315  0.0788767373320738  0.8394362936588636  1.0000
  H   H3        1.0  0.02013931866559908  0.83351047556053  0.4761766665008624  1.0000
  H   H4        1.0  0.9798578353505436  0.1664926918215173  0.5238222894139994  1.0000
  H   H5        1.0  0.8008993943014318  0.4728910473725563  0.4238934754937418  1.0000
  H   H6        1.0  0.1991039776927793  0.5271112212829223  0.5761034802669798  1.0000
  H   H7        1.0  0.9613685719581754  0.6455499021842783  0.4846853760154276  1.0000
  H   H8        1.0  0.038633258286786494  0.3544505690180628  0.5153148875769277  1.0000
  H   H9        1.0  0.9212388101947654  0.598449440153864  0.33094109508714104  1.0000
  H   H10       1.0  0.07876576059559433  0.4015474361422022  0.6690593410018622  1.0000
  H   H11       1.0  0.9680169918753595  0.7995422061569712  0.07540933373646658  1.0000
  H   H12       1.0  0.0319813439432579  0.2004582650453628  0.9245909992486292  1.0000
  H   H13       1.0  0.27082778793847245  0.5796067389073016  0.23496565060228394  1.0000
  H   H14       1.0  0.7291736653660124  0.420391934841895  0.7650350854632111  1.0000
  H   H15       1.0  0.8297956695854438  0.5998388714296041  0.19283442820121624  1.0000
  H   H16       1.0  0.1702030601673243  0.4001607010461683  0.8071689416825623  1.0000
  H   H17       1.0  0.29056832324435083  0.6881899842525314  0.35091012403117366  1.0000
  H   H18       1.0  0.7094315713172038  0.311809588223241  0.6490911135510162  1.0000
  H   H19       1.0  0.7477723130835444  0.7193847834640152  0.5809453044892408  1.0000
  H   H20       1.0  0.2522283523526312  0.2806156877383259  0.4190535761202484  1.0000
  H   H21       1.0  0.3349755153690309  0.7861952178801133  0.44247434361085425  1.0000
  H   H22       1.0  0.6650255440013028  0.21380435459565916  0.5575254647266377  1.0000
  H   H23       1.0  0.23149383536788548  0.9323874739600839  0.529750318786377  1.0000
  H   H24       1.0  0.768506059193662  0.0676120985156814  0.4702495126820312  1.0000
  H   H25       1.0  0.6910477753947718  0.6178493518732253  0.5024719049647786  1.0000
  H   H26       1.0  0.3089517252326246  0.3821511193291087  0.4975284048894013  1.0000
  H   H27       1.0  0.5700681856397339  0.98028870136352  0.7196553947297559  1.0000
  H   H28       1.0  0.4299293962979363  0.0197081749325463  0.2803472893154152  1.0000
  H   H29       1.0  0.28555134120873754  0.0406538963506691  0.6420482327745489  1.0000
  H   H30       1.0  0.7144477824781819  0.9593447773985346  0.3579518464958867  1.0000
  H   H31       1.0  0.5203101887975095  0.4179375125818439  0.20956006291572044  1.0000
  H   H32       1.0  0.4796908705728242  0.5820620598939286  0.7904404484786625  1.0000
  H   H33       1.0  0.7443827500720488  0.4918838359561448  0.10161842746963153  1.0000
  H   H34       1.0  0.2556163736148775  0.5081148377930589  0.8983816518008042  1.0000
  H   H35       1.0  0.6948246479511866  0.4607366692528103  0.9421401751247985  1.0000
  H   H36       1.0  0.30517641141914  0.539262903222955  0.05785893015579553  1.0000
  H   H37       1.0  0.764446645898261  0.5948104962758052  0.7852231484021461  1.0000
  H   H38       1.0  0.23555285472913573  0.405189974926536  0.2147764583951428  1.0000
  H   H39       1.0  0.921704382903329  0.7828798155669148  0.9369437634396579  1.0000
  H   H40       1.0  0.07829513471774872  0.2171179594557202  0.06305794661567893  1.0000
  C   C1        1.0  0.6096738662710024  0.0758102822784963  0.04809459009823771  1.0000
  C   C2        1.0  0.3903190224441745  0.9241919863769824  0.9519025738407265  1.0000
  C   C3        1.0  0.5896066570329523  0.1182355686967469  0.9497750735996534  1.0000
  C   C4        1.0  0.4103924326665975  0.8817684974118691  0.05022150221158482  1.0000
  C   C5        1.0  0.6423213654103747  0.2093871135088108  0.948412181263123  1.0000
  C   C6        1.0  0.3576812357092082  0.7906142564200991  0.05158502229962645  1.0000
  C   C7        1.0  0.6987486079216794  0.2658109649664766  0.9991516622138834  1.0000
  C   C8        1.0  0.3012578985520875  0.7341868100561584  0.000847096828394465  1.0000
  C   C9        1.0  0.6919014008991411  0.18697197415030334  0.08575739081143043  1.0000
  C   C10       1.0  0.3081004463395018  0.8130258008723317  0.9142414607545107  1.0000
  C   C11       1.0  0.6553075886899862  0.0878828762804531  0.13175547623352912  1.0000
  C   C12       1.0  0.34468958231984453  0.9121175949218882  0.8682413645980277  1.0000
  C   C13       1.0  0.061284502994389804  0.0004880085269932  0.3110692300188305  1.0000
  C   C14       1.0  0.9387134388900621  0.9995133614019167  0.6889287691244803  1.0000
  C   C15       1.0  0.8240096327706045  0.3461688036843285  0.2945585662755406  1.0000
  C   C16       1.0  0.1759898678567852  0.6538316675180056  0.7054410405217483  1.0000
  C   C17       1.0  0.6752288960018334  0.4379099131256865  0.3140992333633008  1.0000
  C   C18       1.0  0.3247717694343422  0.5620905580766546  0.6859010533599702  1.0000
  C   C19       1.0  0.02589214877266951  0.8874376646093936  0.31731870093181413  1.0000
  C   C20       1.0  0.974107351854727  0.1125628065929476  0.6826809058654819  1.0000
  C   C21       1.0  0.0061246701579449215  0.8601316552621583  0.2308579566081619  1.0000
  C   C22       1.0  0.9938771600870098  0.1398688159401829  0.7691423069841862  1.0000
  C   C23       1.0  0.007104322810199892  0.8107807819028565  0.4090450404512326  1.0000
  C   C24       1.0  0.9928963426259756  0.18921968929948463  0.5909559493289296  1.0000
  C   C25       1.0  0.6846060136356443  0.4983384901750085  0.38159424371368544  1.0000
  C   C26       1.0  0.31539542267515935  0.5016628797539013  0.6184050921506525  1.0000
  C   C27       1.0  0.971496374807352  0.7063226915095413  0.412844453347475  1.0000
  C   C28       1.0  0.028508572923485142  0.2936759822396624  0.5871555102683815  1.0000
  C   C29       1.0  0.9631505157867368  0.758253808848565  0.2334668483649268  1.0000
  C   C30       1.0  0.036854431944092894  0.2417448649006388  0.7665338183078205  1.0000
  C   C31       1.0  0.9490911447929167  0.6802245706711005  0.3265440460236206  1.0000
  C   C32       1.0  0.05091340900376203  0.3197750018046719  0.6734570990349057  1.0000
  C   C33       1.0  0.9337997615067409  0.7394497528444717  0.1402288856957483  1.0000
  C   C34       1.0  0.06620129786358583  0.2605498196313007  0.8597716256986345  1.0000
  C   C35       1.0  0.5485987876901532  0.5906610757065351  0.3954325925586062  1.0000
  C   C36       1.0  0.4514018777460224  0.409339395495806  0.6045669911077738  1.0000
  C   C37       1.0  0.3881362650710969  0.5565364278799692  0.2755765988599351  1.0000
  C   C38       1.0  0.6118644003650858  0.443464043322372  0.724422984806438  1.0000
  C   C39       1.0  0.8668685710753299  0.6583378825351929  0.12821148881590733  1.0000
  C   C40       1.0  0.1331274351257221  0.3416625886671483  0.8717902965448021  1.0000
  C   C41       1.0  0.39919901064764923  0.6182349055713487  0.3413984208077068  1.0000
  C   C42       1.0  0.6008028195973125  0.3817655656309924  0.6586011397277503  1.0000
  C   C43       1.0  0.6395408416784746  0.7882191501135978  0.5927019347770968  1.0000
  C   C44       1.0  0.36045828200845165  0.21177952363560593  0.407299550607121  1.0000
  C   C45       1.0  0.4576307032896666  0.7505202667219493  0.4800592701650005  1.0000
  C   C46       1.0  0.5423687973377298  0.24948020448039193  0.5199403366322883  1.0000
  C   C47       1.0  0.35445794761778165  0.9074532040285561  0.564462693868805  1.0000
  C   C48       1.0  0.6455411760691377  0.0925454697206476  0.43553879151541264  1.0000
  C   C49       1.0  0.48462893640093097  0.8141698797947186  0.5461060476178973  1.0000
  C   C50       1.0  0.5153701872859884  0.1858287939544851  0.45389543776632024  1.0000
  C   C51       1.0  0.5696663629596516  0.6539772612221952  0.46317247148113694  1.0000
  C   C52       1.0  0.43033353160190313  0.3460223112535772  0.5368273599872708  1.0000
  C   C53       1.0  0.5407962194428179  0.9354934729826995  0.6703643445439058  1.0000
  C   C54       1.0  0.4592021333694802  0.0645043020399356  0.32963738864234676  1.0000
  C   C55       1.0  0.38372351084659334  0.9682951952996391  0.6266447915123126  1.0000
  C   C56       1.0  0.6162748419657049  0.0317025797229959  0.37335694167394  1.0000
  C   C57       1.0  0.5255384695720835  0.466936085126072  0.26111670424159433  1.0000
  C   C58       1.0  0.474461424989464  0.5330634873497004  0.7388838302837046  1.0000
  C   C59       1.0  0.8364384976563457  0.6408163093451265  0.034701858720382034  1.0000
  C   C60       1.0  0.16355906728764316  0.359183263130646  0.9653001281805302  1.0000
  C   C61       1.0  0.7708182084374328  0.5500781787548235  0.03289073454670447  1.0000
  C   C62       1.0  0.22918130918365154  0.44991959626781153  0.9671109755086322  1.0000
  C   C63       1.0  0.7428361490700796  0.5324990870643376  0.9436620312391995  1.0000
  C   C64       1.0  0.2571633515573168  0.46750138413800363  0.05633827861498734  1.0000
  C   C65       1.0  0.7819777223305096  0.60504789062378  0.8572808113945174  1.0000
  C   C66       1.0  0.218022566165196  0.39495078312542387  0.14271994780189357  1.0000
  C   C67       1.0  0.8711506280530802  0.7102950629447164  0.9432921992038814  1.0000
  C   C68       1.0  0.12884733082506025  0.2897036108044873  0.05671001236814994  1.0000
  N   N1        1.0  0.6662288487903538  0.8465707700618667  0.65312649297438  1.0000
  N   N2        1.0  0.33377066883073075  0.1534270049607684  0.3468759201378476  1.0000
  N   N3        1.0  0.844732355439959  0.6923106455715882  0.8578192057193734  1.0000
  N   N4        1.0  0.15526753912158855  0.3076889269041772  0.1421834379765983  1.0000
  O   O1        1.0  0.9632557221666928  0.3281511334281575  0.3390955416882449  1.0000
  O   O2        1.0  0.03674494326948262  0.6718493377741837  0.6609040419781281  1.0000
  O   O3        1.0  0.04797122984486182  0.0374328603272147  0.3858941918612047  1.0000
  O   O4        1.0  0.952023971494192  0.96257210450797  0.6141029317285603  1.0000
  O   O5        1.0  0.10277037841358092  0.0585097958244134  0.227909457620278  1.0000
  O   O6        1.0  0.8972318457655322  0.941489776651352  0.7720889214725091  1.0000
  O   O7        1.0  0.8123855623872274  0.2921526407051331  0.23364908467485895  1.0000
  O   O8        1.0  0.18761316736554792  0.7078469317706393  0.7663507699244648  1.0000
