data_image0
_chemical_formula_structural       Zn2H26C40N10O8
_chemical_formula_sum              "Zn2 H26 C40 N10 O8"
_cell_length_a       8.68021803781969
_cell_length_b       10.3400037337513
_cell_length_c       11.825625677388771
_cell_angle_alpha    73.93695466083558
_cell_angle_beta     86.22449927274383
_cell_angle_gamma    68.94216883000439

_space_group_name_H-M_alt    "P 1"
_space_group_IT_number       1

loop_
  _space_group_symop_operation_xyz
  'x, y, z'

loop_
  _atom_site_type_symbol
  _atom_site_label
  _atom_site_symmetry_multiplicity
  _atom_site_fract_x
  _atom_site_fract_y
  _atom_site_fract_z
  _atom_site_occupancy
  Zn  Zn1       1.0  0.3444201915769511  0.4252311107854679  0.19511254990126756  1.0000
  Zn  Zn2       1.0  0.6555783058879925  0.5747680820270203  0.8048885525119754  1.0000
  H   H1        1.0  0.6017264782477626  0.5360926950829138  0.09903700585982017  1.0000
  H   H2        1.0  0.3982747222162926  0.46390544335186223  0.9009624949549103  1.0000
  H   H3        1.0  0.9064959223447174  0.4449232762540661  0.08785178179116568  1.0000
  H   H4        1.0  0.0935048412543722  0.5550759389394243  0.912147490103116  1.0000
  H   H5        1.0  0.06891236578071873  0.19322173738226667  0.21152721253847764  1.0000
  H   H6        1.0  0.9310895531314857  0.8067774756363163  0.7884719917212946  1.0000
  H   H7        1.0  0.6079596221316166  0.15746515885830795  0.34396960386968783  1.0000
  H   H8        1.0  0.3920415783324388  0.8425329795764679  0.6560298969450427  1.0000
  H   H9        1.0  0.26181366236271947  0.5273247041902493  0.5312300087631951  1.0000
  H   H10       1.0  0.7381842874475735  0.4726787667513577  0.4687718055836567  1.0000
  H   H11       1.0  0.23768163931214303  0.31661105675144796  0.6859928610091469  1.0000
  H   H12       1.0  0.7623136293045081  0.6833903206591001  0.31400622358228236  1.0000
  H   H13       1.0  0.9692349239107758  0.34259894468403457  0.7892273745201447  1.0000
  H   H14       1.0  0.03075962625771216  0.6574013581427066  0.21077200662624296  1.0000
  H   H15       1.0  0.7602155471323685  0.770773832890498  0.5993381835756605  1.0000
  H   H16       1.0  0.23977976597638667  0.2292275177892336  0.40066259626570383  1.0000
  H   H17       1.0  0.2333098419173538  0.2551472319292429  0.9128986071476529  1.0000
  H   H18       1.0  0.7666925361058787  0.7448508909652175  0.08710167365752844  1.0000
  H   H19       1.0  0.16899764768142228  0.08642441150162479  0.8215304934020079  1.0000
  H   H20       1.0  0.8310027235447989  0.9135758537197559  0.17847024482176008  1.0000
  H   H21       1.0  0.21442087295579884  0.8354630932695882  0.9414962431373648  1.0000
  H   H22       1.0  0.7855794982704224  0.16453717195179246  0.058504495086395984  1.0000
  H   H23       1.0  0.4008328857694607  0.9170306744243105  0.2321688820705531  1.0000
  H   H24       1.0  0.5991748097083729  0.08296852771972849  0.7678299840166571  1.0000
  H   H25       1.0  0.2465415617674511  0.7356083381885198  0.372635601127399  1.0000
  H   H26       1.0  0.7534578316734865  0.2643886877411319  0.6273668067517162  1.0000
  C   C1        1.0  0.6755002845912443  0.4306333349073767  0.15407252709150748  1.0000
  C   C2        1.0  0.32450091587281094  0.5693648035274065  0.845926973723223  1.0000
  C   C3        1.0  0.8466280812081166  0.37835998310897867  0.14771226402161358  1.0000
  C   C4        1.0  0.1533742745690604  0.6216381531508899  0.8522871691586003  1.0000
  C   C5        1.0  0.9354567009522796  0.24077575489995703  0.21541769901657648  1.0000
  C   C6        1.0  0.06454288508762568  0.7592234758338562  0.7845807928872542  1.0000
  C   C7        1.0  0.8508893490238661  0.1586271149439966  0.2891364797754504  1.0000
  C   C8        1.0  0.14911182919413338  0.8413710368561877  0.7108621734143127  1.0000
  C   C9        1.0  0.6793199262208205  0.2189510722065577  0.29186694996104007  1.0000
  C   C10       1.0  0.3206800744380018  0.7810470951339497  0.7081309232382649  1.0000
  C   C11       1.0  0.9418423353943336  0.009316418694147902  0.3524644518374485  1.0000
  C   C12       1.0  0.05815845045080448  0.9906827831339341  0.6475356676818006  1.0000
  C   C13       1.0  0.009415697656493239  0.7954977500702964  0.46195039957837714  1.0000
  C   C14       1.0  0.990581207630356  0.2045025216758134  0.5380505415489195  1.0000
  C   C15       1.0  0.009788450420202975  0.6653366849163189  0.5498861404186568  1.0000
  C   C16       1.0  0.9902071665177842  0.33466680374051794  0.45011496157226094  1.0000
  C   C17       1.0  0.1463898581922934  0.5362111709886148  0.5765524582719193  1.0000
  C   C18       1.0  0.8536066324756391  0.46379016415079377  0.42344910155989607  1.0000
  C   C19       1.0  0.13345715909002115  0.41826254461742696  0.6630508684693976  1.0000
  C   C20       1.0  0.8665376726616569  0.5817399095518282  0.3369479872015829  1.0000
  C   C21       1.0  0.9857403879861122  0.4314856120009621  0.7207714241838727  1.0000
  C   C22       1.0  0.014255339741559682  0.5685146752854635  0.279228736952973  1.0000
  C   C23       1.0  0.8662481020214939  0.6706619530403513  0.6134691573864898  1.0000
  C   C24       1.0  0.13374677422229553  0.32934047439808717  0.3865313935344189  1.0000
  C   C25       1.0  0.34290497807382536  0.19879883107098095  0.13647734259568264  1.0000
  C   C26       1.0  0.6570972224215693  0.8012025332901157  0.8635213361886682  1.0000
  C   C27       1.0  0.31999916955899727  0.09595145013992118  0.07758626942558776  1.0000
  C   C28       1.0  0.6800073706057076  0.9040477541790249  0.9224126642961319  1.0000
  C   C29       1.0  0.25555548935928835  0.14361254515920754  0.9615991106124964  1.0000
  C   C30       1.0  0.7444453187319057  0.8563866433034587  0.0384018565317135  1.0000
  C   C31       1.0  0.2194819955591995  0.0499932579750393  0.9116314681125456  1.0000
  C   C32       1.0  0.7805199455990606  0.9500059416781353  0.088368583772194  1.0000
  C   C33       1.0  0.24631875493674465  0.9088473721894842  0.9776584956199978  1.0000
  C   C34       1.0  0.7536855190938213  0.09115180974845319  0.02234226862067597  1.0000
  C   C35       1.0  0.31265976470731277  0.8591659970572675  0.09328592501322666  1.0000
  C   C36       1.0  0.6873440502122322  0.1408342750047993  0.9067137626820309  1.0000
  C   C37       1.0  0.3512477252565704  0.9529259511827132  0.1421746049153825  1.0000
  C   C38       1.0  0.6487597108841285  0.04707108625339629  0.8578256342722025  1.0000
  C   C39       1.0  0.33354869688152167  0.7090411307299789  0.16485277923443675  1.0000
  C   C40       1.0  0.6664532887688492  0.29095804219237204  0.8351489679002381  1.0000
  N   N1        1.0  0.5938374081353003  0.35212231890488244  0.22457576553591696  1.0000
  N   N2        1.0  0.4061622223967164  0.6478768850981069  0.7754244216178419  1.0000
  N   N3        1.0  0.8823908218637438  0.9215116544332246  0.4371580940564356  1.0000
  N   N4        1.0  0.11760749807336171  0.07849077984589309  0.5628414063359768  1.0000
  N   N5        1.0  0.0969903895813149  0.9443139259124318  0.32354556391842226  1.0000
  N   N6        1.0  0.9030108108827406  0.05568421252235109  0.6764539368963083  1.0000
  N   N7        1.0  0.13841598860226154  0.8096801301216202  0.3938779137508347  1.0000
  N   N8        1.0  0.861583641929755  0.19031907388136907  0.6061222734029313  1.0000
  N   N9        1.0  0.8547151209531662  0.556413625799017  0.6965104878515046  1.0000
  N   N10       1.0  0.14528204367081807  0.4435888106550152  0.3034890801754172  1.0000
  O   O1        1.0  0.38959986055446894  0.15693045737231867  0.2433262784785056  1.0000
  O   O2        1.0  0.6104012068738528  0.8430708957982772  0.7566733155653294  1.0000
  O   O3        1.0  0.29861306548578886  0.630879841558233  0.10897534526270643  1.0000
  O   O4        1.0  0.7013877426053977  0.3691193469044336  0.8910256218815104  1.0000
  O   O5        1.0  0.38081120177174893  0.6645433792064992  0.27220897517929626  1.0000
  O   O6        1.0  0.6191903470136495  0.33545687047455885  0.7277925430349227  1.0000
  O   O7        1.0  0.30446902973087486  0.3326347215253377  0.07540254827672746  1.0000
  O   O8        1.0  0.6955320599435028  0.6673666182798497  0.924597893392075  1.0000
