data_image0
_chemical_formula_structural       Mn2H14C14N2O12
_chemical_formula_sum              "Mn2 H14 C14 N2 O12"
_cell_length_a       6.921899616674447
_cell_length_b       7.689175016847512
_cell_length_c       9.322887352873593
_cell_angle_alpha    69.887723714833
_cell_angle_beta     69.23960486072485
_cell_angle_gamma    77.62808832353645

_space_group_name_H-M_alt    "P 1"
_space_group_IT_number       1

loop_
  _space_group_symop_operation_xyz
  'x, y, z'

loop_
  _atom_site_type_symbol
  _atom_site_label
  _atom_site_symmetry_multiplicity
  _atom_site_fract_x
  _atom_site_fract_y
  _atom_site_fract_z
  _atom_site_occupancy
  Mn  Mn1       1.0  0.967004257331894  0.23178756716612978  0.7518585543731003  1.0000
  Mn  Mn2       1.0  0.033004790565932814  0.7682002954687874  0.24815351627029963  1.0000
  H   H1        1.0  0.24994366462738776  0.46284096490368404  0.7342460599684414  1.0000
  H   H2        1.0  0.7500469269145925  0.5371561797580355  0.2657677247827265  1.0000
  H   H3        1.0  0.13209943546166872  0.5461862761896298  0.6028087059061277  1.0000
  H   H4        1.0  0.8679003862080494  0.45381114634106023  0.39720243164114755  1.0000
  H   H5        1.0  0.004386523186362019  0.29292615242474795  0.022062397236311405  1.0000
  H   H6        1.0  0.9956054489090818  0.7070788735898718  0.9779328884207245  1.0000
  H   H7        1.0  0.8400905195657702  0.44601572404611295  0.9479327280887727  1.0000
  H   H8        1.0  0.15989803025744465  0.5539929923685633  0.05207008937033915  1.0000
  H   H9        1.0  0.369924168434622  0.1077381003809137  0.8518424442195921  1.0000
  H   H10       1.0  0.6300621186638582  0.8922639030879227  0.14815627184951538  1.0000
  H   H11       1.0  0.440447036108779  0.6908635975626609  0.5349492116281381  1.0000
  H   H12       1.0  0.5595656963416786  0.3091278533292795  0.465048031454998  1.0000
  H   H13       1.0  0.12547015013262816  0.9176236069007258  0.592074318696639  1.0000
  H   H14       1.0  0.8745382193028846  0.08236737122615521  0.4079307052696277  1.0000
  C   C1        1.0  0.38704477031301826  0.010970972430300204  0.7849976496951925  1.0000
  C   C2        1.0  0.6129558303986189  0.9890286105421778  0.21499876117756128  1.0000
  C   C3        1.0  0.5635110475632104  0.8826519707333916  0.7657264394601596  1.0000
  C   C4        1.0  0.43649532216169723  0.1173505235080086  0.2342686934275803  1.0000
  C   C5        1.0  0.5834593488928379  0.7644031722149193  0.6745123661314024  1.0000
  C   C6        1.0  0.416552537796413  0.23560256712598723  0.3254750314901357  1.0000
  C   C7        1.0  0.4245958750598789  0.7769198878725305  0.6107593270982575  1.0000
  C   C8        1.0  0.5754094247319443  0.22307972275756777  0.38923791259961144  1.0000
  C   C9        1.0  0.25187677343901527  0.9050419904159172  0.640123223100673  1.0000
  C   C10       1.0  0.7481169526499228  0.09494962803769622  0.3598653236143575  1.0000
  C   C11       1.0  0.7247057530470046  0.8763538245289482  0.84123625227366  1.0000
  C   C12       1.0  0.2752965127774445  0.1236565882430085  0.15876445210869852  1.0000
  C   C13       1.0  0.7744275785665311  0.6315941594821483  0.6388375584967816  1.0000
  C   C14       1.0  0.22555766574218694  0.3683765040812546  0.36118016786571155  1.0000
  N   N1        1.0  0.23324896697238984  0.021868522840627225  0.7251731669475274  1.0000
  N   N2        1.0  0.7667487313944507  0.9781285196780658  0.2748182584413  1.0000
  O   O1        1.0  0.7602520479217532  0.032627847719005815  0.8405800076441919  1.0000
  O   O2        1.0  0.23973038975739075  0.9673696774079871  0.1594241447613881  1.0000
  O   O3        1.0  0.8108017250174769  0.718234874916888  0.9033359260209223  1.0000
  O   O4        1.0  0.18919148504367914  0.2817728121553103  0.09666155768010033  1.0000
  O   O5        1.0  0.9442606366033957  0.7001515937522669  0.5477146547592324  1.0000
  O   O6        1.0  0.05578158443313442  0.2998600787569785  0.4522735021927247  1.0000
  O   O7        1.0  0.7484780601368327  0.46030786437709287  0.7021516443874131  1.0000
  O   O8        1.0  0.2515401137946541  0.5397175688239884  0.2978300564720938  1.0000
  O   O9        1.0  0.2160204757859603  0.4323053615823086  0.6534405647117082  1.0000
  O   O10       1.0  0.7839845204510355  0.5676979764324058  0.34656440060047794  1.0000
  O   O11       1.0  0.8939319062943554  0.31332928358499157  0.9687435172331219  1.0000
  O   O12       1.0  0.10604497241229183  0.6866650520809189  0.03126729422513104  1.0000
