data_image0
_chemical_formula_structural       Cu2P4H20C24N4O20
_chemical_formula_sum              "Cu2 P4 H20 C24 N4 O20"
_cell_length_a       7.2074039102870495
_cell_length_b       10.217448433713102
_cell_length_c       12.245583893161195
_cell_angle_alpha    65.445919937032
_cell_angle_beta     72.88135191288079
_cell_angle_gamma    69.34617286252303

_space_group_name_H-M_alt    "P 1"
_space_group_IT_number       1

loop_
  _space_group_symop_operation_xyz
  'x, y, z'

loop_
  _atom_site_type_symbol
  _atom_site_label
  _atom_site_symmetry_multiplicity
  _atom_site_fract_x
  _atom_site_fract_y
  _atom_site_fract_z
  _atom_site_occupancy
  Cu  Cu1       1.0  0.49999965785237765  0.499999855853595  3.113796722707481e-07  1.0000
  Cu  Cu2       1.0  9.186021327978442e-07  0.9999995037172271  0.4999996202956466  1.0000
  P   P1        1.0  0.7893985353075338  0.21095873466055792  0.9848744784042721  1.0000
  P   P2        1.0  0.9852946853754647  0.2891682759305069  0.5149356370623579  1.0000
  P   P3        1.0  0.2106011712140796  0.789040728812097  0.015125697472697609  1.0000
  P   P4        1.0  0.014710261277052349  0.7108334338865062  0.4850622095266246  1.0000
  H   H1        1.0  0.20558021125137335  0.24872460615007705  0.8443643902287974  1.0000
  H   H2        1.0  0.2986745944901942  0.2514446818993861  0.6554352956348879  1.0000
  H   H3        1.0  0.794418703287242  0.7512759823450423  0.15563440371307988  1.0000
  H   H4        1.0  0.7013267247899075  0.7485559023253643  0.34456399974761337  1.0000
  H   H5        1.0  0.10443958457022973  0.7112830573017348  0.7953961387540857  1.0000
  H   H6        1.0  0.6109539537295344  0.7888342962953415  0.7045777562905116  1.0000
  H   H7        1.0  0.8955593097082044  0.28871639919555747  0.2046048561422396  1.0000
  H   H8        1.0  0.38904533920875656  0.21116738989058348  0.2954228649352757  1.0000
  H   H9        1.0  0.7480224139596813  0.7150949788305637  0.8972132453078246  1.0000
  H   H10       1.0  0.36022425626138255  0.7849909604244588  0.6027933870306085  1.0000
  H   H11       1.0  0.25197690243437876  0.2849044937526415  0.10278586082947777  1.0000
  H   H12       1.0  0.63977825685717  0.2150073828659202  0.39720760248241055  1.0000
  H   H13       1.0  0.0029040073136669827  0.017758122764775  0.09887823170532072  1.0000
  H   H14       1.0  0.11949807030821812  0.48241813146002943  0.4010440466926823  1.0000
  H   H15       1.0  0.9970981274052084  0.9822391228347983  0.9011209305237883  1.0000
  H   H16       1.0  0.8805028471164461  0.5175835686766275  0.5989549364943869  1.0000
  H   H17       1.0  0.6194210558118627  0.3979591651094907  0.6401030849310915  1.0000
  H   H18       1.0  0.657530873416931  0.1022768459210468  0.8597132905201974  1.0000
  H   H19       1.0  0.3805762459682711  0.6020403026335402  0.3598965895052614  1.0000
  H   H20       1.0  0.34247327272027644  0.8977237501192408  0.14028461754390506  1.0000
  C   C1        1.0  0.9071308788229896  0.36543071355664136  0.9100691376453369  1.0000
  C   C2        1.0  0.18269775373900632  0.134743230160538  0.5897129759620086  1.0000
  C   C3        1.0  0.09286963140952055  0.6345665180921999  0.089931662622483  1.0000
  C   C4        1.0  0.8173019527826145  0.8652562333121168  0.4102871999149685  1.0000
  C   C5        1.0  0.10690243311556462  0.35455057758583297  0.8519292334377084  1.0000
  C   C6        1.0  0.3133877291527724  0.1456085155022961  0.6478901883932764  1.0000
  C   C7        1.0  0.8930992880199756  0.6454488907270035  0.148070374140218  1.0000
  C   C8        1.0  0.686611575513403  0.8543920638822654  0.3521096752882683  1.0000
  C   C9        1.0  0.18051686286572247  0.48016132620539775  0.8085119433883533  1.0000
  C   C10       1.0  0.46918275044475183  0.01997824204545399  0.6913803121132673  1.0000
  C   C11       1.0  0.8194840460266378  0.5198381351320763  0.19148848320893563  1.0000
  C   C12       1.0  0.5308149414629355  0.9800212165870192  0.3086204320627531  1.0000
  C   C13       1.0  0.052795524111274784  0.611784333381422  0.8256630759013532  1.0000
  C   C14       1.0  0.49009924423425144  0.888335413899682  0.6742893564169918  1.0000
  C   C15       1.0  0.9472021677964193  0.3882151252510511  0.1743376682746671  1.0000
  C   C16       1.0  0.5099000401717432  0.11166403348706673  0.32571270821900805  1.0000
  C   C17       1.0  0.8547924118652829  0.615413318193866  0.8824278084224346  1.0000
  C   C18       1.0  0.3525090087962891  0.8847144421420127  0.6175058196008648  1.0000
  C   C19       1.0  0.14520569043015286  0.38458726332588367  0.11757180453879806  1.0000
  C   C20       1.0  0.6474910878528846  0.11528501222009166  0.3824954260157796  1.0000
  C   C21       1.0  0.3946751972409855  0.47797221699988063  0.7492228344202941  1.0000
  C   C22       1.0  0.6219814593221001  0.0221989944913759  0.7506178817862192  1.0000
  C   C23       1.0  0.6053269140221217  0.522027242202405  0.2507778428972998  1.0000
  C   C24       1.0  0.37802468116885984  0.9778004743912732  0.24938165893328085  1.0000
  N   N1        1.0  0.7843031064968786  0.4948987767962121  0.9233927103288765  1.0000
  N   N2        1.0  0.20261014698481716  0.005241198016555899  0.5764553914177171  1.0000
  N   N3        1.0  0.2156949957985574  0.5051018047235445  0.07660690263235637  1.0000
  N   N4        1.0  0.7973895595367962  0.994758265456099  0.4235447844592527  1.0000
  O   O1        1.0  0.5690987254602647  0.2855785623417901  0.022857678889614874  1.0000
  O   O2        1.0  0.8776551164368556  0.21449387598933362  0.476981229402604  1.0000
  O   O3        1.0  0.4309006111939762  0.7144220422392423  0.9771392262932325  1.0000
  O   O4        1.0  0.12234660469869123  0.7855055923235028  0.5230183781753226  1.0000
  O   O5        1.0  0.888468198535513  0.1119470335361612  0.10177434144634386  1.0000
  O   O6        1.0  0.102103806149195  0.3882993022608119  0.39803271487617303  1.0000
  O   O7        1.0  0.11152668997084415  0.8880501996780553  0.8982262749595974  1.0000
  O   O8        1.0  0.8978942961462409  0.6117012792589377  0.6019668980850597  1.0000
  O   O9        1.0  0.8278407177916663  0.1227218543481428  0.9024453797437387  1.0000
  O   O10       1.0  0.8530779682851203  0.37727066497957645  0.5974695194719358  1.0000
  O   O11       1.0  0.17216140519932568  0.8772764980527865  0.09755454002961268  1.0000
  O   O12       1.0  0.1469201425426121  0.6227321553393637  0.4025286500790912  1.0000
  O   O13       1.0  0.4882908730092907  0.5400704315392416  0.7732937297810452  1.0000
  O   O14       1.0  0.8017339280403274  0.9600678171780218  0.7265856965156559  1.0000
  O   O15       1.0  0.5117144200548225  0.4599323507721138  0.22670890259053778  1.0000
  O   O16       1.0  0.1982609252823693  0.0399327364402708  0.2734171925230129  1.0000
  O   O17       1.0  0.46800767824704087  0.40652509761286393  0.6703612428180605  1.0000
  O   O18       1.0  0.5449705295498006  0.0937894906481915  0.8293760631924059  1.0000
  O   O19       1.0  0.5319912043035091  0.5934754656857916  0.3296405096225072  1.0000
  O   O20       1.0  0.4550279511453041  0.9062121885623711  0.1706253770527368  1.0000
