data_image0
_chemical_formula_structural       Mn4H84C136N20O32
_chemical_formula_sum              "Mn4 H84 C136 N20 O32"
_cell_length_a       8.462970295086924
_cell_length_b       17.63037524091681
_cell_length_c       27.3489305774536
_cell_angle_alpha    100.07178944770457
_cell_angle_beta     90.00218520963253
_cell_angle_gamma    89.99958429010759

_space_group_name_H-M_alt    "P 1"
_space_group_IT_number       1

loop_
  _space_group_symop_operation_xyz
  'x, y, z'

loop_
  _atom_site_type_symbol
  _atom_site_label
  _atom_site_symmetry_multiplicity
  _atom_site_fract_x
  _atom_site_fract_y
  _atom_site_fract_z
  _atom_site_occupancy
  Mn  Mn1       1.0  0.6906803678553926  0.7146516756598231  0.40541232914594627  1.0000
  Mn  Mn2       1.0  0.6906669319099092  0.28535445675465343  0.0945944058107884  1.0000
  Mn  Mn3       1.0  0.30932182549004483  0.2853644005290334  0.5945852977202081  1.0000
  Mn  Mn4       1.0  0.3093553491698628  0.714645250431566  0.9054026745508139  1.0000
  H   H1        1.0  0.446321259636008  0.5730426213735527  0.3680231289824363  1.0000
  H   H2        1.0  0.44632882614904185  0.4269684675151241  0.13197386935128463  1.0000
  H   H3        1.0  0.5536714815713779  0.4269639228676708  0.6319923494368211  1.0000
  H   H4        1.0  0.5536969988557489  0.573031189704821  0.8679982449651791  1.0000
  H   H5        1.0  0.45220529917188657  0.4472366348439749  0.30629910419884254  1.0000
  H   H6        1.0  0.45225624283783356  0.5527637261531241  0.19370352888613954  1.0000
  H   H7        1.0  0.547767354356189  0.5527705082074661  0.693712070317595  1.0000
  H   H8        1.0  0.5477294077939162  0.44721973662875314  0.8062794455187542  1.0000
  H   H9        1.0  0.7173031132053324  0.3983504802980135  0.27059366489147857  1.0000
  H   H10       1.0  0.7173611642784152  0.6016575694856597  0.229409053034324  1.0000
  H   H11       1.0  0.28267662963998674  0.6016797441198918  0.729416247346535  1.0000
  H   H12       1.0  0.2825984914369926  0.3983273655055938  0.770592886647499  1.0000
  H   H13       1.0  0.9572862897118881  0.4696030965567743  0.30074480340927323  1.0000
  H   H14       1.0  0.9573418609923363  0.5304002763737186  0.1992569835653342  1.0000
  H   H15       1.0  0.0426993609060133  0.5304165727986003  0.6992523256422132  1.0000
  H   H16       1.0  0.042629611453200794  0.46958772788436676  0.8007608866681155  1.0000
  H   H17       1.0  0.9654582103748908  0.7752074781885694  0.48271460886339673  1.0000
  H   H18       1.0  0.9654254624571268  0.22478335533993743  0.01728483717300121  1.0000
  H   H19       1.0  0.034520350687280696  0.22480552875313012  0.5172839704972247  1.0000
  H   H20       1.0  0.0345672784500692  0.7752042247187987  0.9827149777850508  1.0000
  H   H21       1.0  0.03226928967537649  0.9015628149575006  0.5330516404820216  1.0000
  H   H22       1.0  0.0322312973826158  0.0984378203286055  0.966940968085453  1.0000
  H   H23       1.0  0.9677080897675554  0.09846132094921956  0.46695137690851857  1.0000
  H   H24       1.0  0.9677850761308519  0.9015455677239572  0.03306364847976083  1.0000
  H   H25       1.0  0.4123160998374543  0.926676583857265  0.43172415310310447  1.0000
  H   H26       1.0  0.4123153139784889  0.07332823750236632  0.0682697731206616  1.0000
  H   H27       1.0  0.5876967282639497  0.0733315823187652  0.5682754487584134  1.0000
  H   H28       1.0  0.5877164201593387  0.9266632851811987  0.9317270339836412  1.0000
  H   H29       1.0  0.34726923696685214  0.8004739199198808  0.3821434863665942  1.0000
  H   H30       1.0  0.3472459222701332  0.19952032614543205  0.11785568348931719  1.0000
  H   H31       1.0  0.6527365013902224  0.19953826364515947  0.61785679007005  1.0000
  H   H32       1.0  0.6527869935788644  0.8004730929637061  0.882144378285773  1.0000
  H   H33       1.0  0.17988598160380317  0.9880325336520458  0.5857477797021177  1.0000
  H   H34       1.0  0.17987500618545482  0.01196859580878844  0.9142443697162792  1.0000
  H   H35       1.0  0.8201067587517199  0.011987035910109996  0.41425006669826553  1.0000
  H   H36       1.0  0.8201330955013262  0.9880265699298715  0.08575158086881632  1.0000
  H   H37       1.0  0.2198413288260923  0.12591593855700003  0.6232437422044228  1.0000
  H   H38       1.0  0.2198667671751338  0.8740880669282163  0.8767550437866447  1.0000
  H   H39       1.0  0.7801265976902272  0.874098116381347  0.3767557471075875  1.0000
  H   H40       1.0  0.7801318816521671  0.1259034556804011  0.123241763036809  1.0000
  H   H41       1.0  0.36561176598828377  0.18020873416927685  0.48928238339807006  1.0000
  H   H42       1.0  0.36565408284479867  0.8198002673678744  0.010704514287773729  1.0000
  H   H43       1.0  0.6344270577755395  0.8198081156593701  0.5107223471512654  1.0000
  H   H44       1.0  0.6343552004022044  0.18018898454550233  0.9892875070112909  1.0000
  H   H45       1.0  0.33703946491166886  0.04550172743638108  0.4462229161329816  1.0000
  H   H46       1.0  0.33706678361286174  0.9545006818382406  0.05376351213300982  1.0000
  H   H47       1.0  0.6630170829986354  0.9545155715742054  0.5537785867675709  1.0000
  H   H48       1.0  0.6629614056595797  0.045484203380389825  0.946230345201741  1.0000
  H   H49       1.0  0.23511490386571413  0.6463929548697535  0.48269596441548407  1.0000
  H   H50       1.0  0.23511729890403638  0.35358898045921444  0.0173059260111543  1.0000
  H   H51       1.0  0.7648731107452988  0.3535978940136956  0.5173099048031418  1.0000
  H   H52       1.0  0.7648494464653339  0.646385025198974  0.9826901411134586  1.0000
  H   H53       1.0  0.17496890351148406  0.6770022246366023  0.6414145723134439  1.0000
  H   H54       1.0  0.1748865794314796  0.3229743538002621  0.8585891560449211  1.0000
  H   H55       1.0  0.8250439251297479  0.32298790067412136  0.35859227667241816  1.0000
  H   H56       1.0  0.8250908005608506  0.6770038938695963  0.14141019269226265  1.0000
  H   H57       1.0  0.6351330870496311  0.7061865033565126  0.5764409551764302  1.0000
  H   H58       1.0  0.6350919265884158  0.29378921550087966  0.9235495380904767  1.0000
  H   H59       1.0  0.3648750144084899  0.2938333906322298  0.42355878095261096  1.0000
  H   H60       1.0  0.3648937243736086  0.706200310846114  0.07644473125060358  1.0000
  H   H61       1.0  0.2621682207104428  0.7211864534858136  0.7074331249343544  1.0000
  H   H62       1.0  0.2621082923794588  0.2787927408347812  0.792560345147578  1.0000
  H   H63       1.0  0.7378186118538393  0.2788159235765874  0.2925658715861346  1.0000
  H   H64       1.0  0.7378915381658615  0.7211873034763129  0.2074345341564623  1.0000
  H   H65       1.0  0.6700128666328238  0.7393424537686569  0.8007117637842498  1.0000
  H   H66       1.0  0.6699583446520022  0.2606774398857467  0.6992922185686796  1.0000
  H   H67       1.0  0.32997632921853176  0.2606619694359224  0.1992894114839743  1.0000
  H   H68       1.0  0.3300603917680718  0.7393265841486  0.30071182610517877  1.0000
  H   H69       1.0  0.7306707038532777  0.6952591387758245  0.6418511578826057  1.0000
  H   H70       1.0  0.7306018910675861  0.3047246734212904  0.8581576585964257  1.0000
  H   H71       1.0  0.2693314899123891  0.30474321338066096  0.35815223887704667  1.0000
  H   H72       1.0  0.26937312547131137  0.6952738109824921  0.14184398736414755  1.0000
  H   H73       1.0  0.14967880365530556  0.5684331919428941  0.31451695880980424  1.0000
  H   H74       1.0  0.1497363032090036  0.4315793477986674  0.18547180278180522  1.0000
  H   H75       1.0  0.8503044839902713  0.4315749741662173  0.6854826428009559  1.0000
  H   H76       1.0  0.8502812514892142  0.5684161423532074  0.814526037481798  1.0000
  H   H77       1.0  0.07518971995281729  0.5562149226644449  0.5033324827609746  1.0000
  H   H78       1.0  0.07517433780848391  0.4437824886018332  0.9966643178828676  1.0000
  H   H79       1.0  0.9248278345395634  0.44377907030168723  0.496659233687005  1.0000
  H   H80       1.0  0.9247947706884359  0.5562024713515398  0.003333221770418497  1.0000
  H   H81       1.0  0.8642169002910407  0.8118154316567396  0.7757843608983991  1.0000
  H   H82       1.0  0.864136863091616  0.18817721994088996  0.7242097543041339  1.0000
  H   H83       1.0  0.13574039210721617  0.18818035780970627  0.22421976856070097  1.0000
  H   H84       1.0  0.13585233285937898  0.8118251820907999  0.2757932837008283  1.0000
  C   C1        1.0  0.5558983731172092  0.5481573560806439  0.35124145151125674  1.0000
  C   C2        1.0  0.5559336236614597  0.45185335597734877  0.1487594628855646  1.0000
  C   C3        1.0  0.4441050025122948  0.4518513590714903  0.6487710883284593  1.0000
  C   C4        1.0  0.444078022482465  0.5481387654932064  0.8512245987427249  1.0000
  C   C5        1.0  0.5605867922397109  0.47926746630002964  0.317108257658937  1.0000
  C   C6        1.0  0.5606355246120884  0.5207461366048773  0.18289321833201913  1.0000
  C   C7        1.0  0.43940004062248755  0.5207399762113951  0.6829007651117038  1.0000
  C   C8        1.0  0.4393465812778601  0.4792369269318185  0.8170926251976525  1.0000
  C   C9        1.0  0.7062422113148016  0.45121776000289066  0.2978788708184368  1.0000
  C   C10       1.0  0.706297446369959  0.548787469896176  0.2021224601266312  1.0000
  C   C11       1.0  0.2937540742714546  0.5488010360569289  0.7021287553861982  1.0000
  C   C12       1.0  0.29367875166529694  0.4512014326097499  0.7978720714020895  1.0000
  C   C13       1.0  0.8422086309608118  0.4925800724596384  0.3137449374079964  1.0000
  C   C14       1.0  0.842260375419464  0.507426796497043  0.1862555704458586  1.0000
  C   C15       1.0  0.15777701978168318  0.5074347061477978  0.6862535724978613  1.0000
  C   C16       1.0  0.15772645732344157  0.4925660485926854  0.8137443945615814  1.0000
  C   C17       1.0  0.8267107014697999  0.5623096209287934  0.34642322230261874  1.0000
  C   C18       1.0  0.8267372814313916  0.4377010953518337  0.1535784141465442  1.0000
  C   C19       1.0  0.1732690411085471  0.4377009655823301  0.6535716473864426  1.0000
  C   C20       1.0  0.1732649123741936  0.562296665484574  0.8464242116013311  1.0000
  C   C21       1.0  0.9582860423111937  0.6139996167940325  0.36145659069836705  1.0000
  C   C22       1.0  0.9582917783479984  0.386009225216  0.1385439283485397  1.0000
  C   C23       1.0  0.0417078798884987  0.38600969716919303  0.6385432037556101  1.0000
  C   C24       1.0  0.04172105006487929  0.6139867140901815  0.8614591256489136  1.0000
  C   C25       1.0  0.0979839001164038  0.7103264319116817  0.3954376749233148  1.0000
  C   C26       1.0  0.0979734413067845  0.28966883071807104  0.10455872425487202  1.0000
  C   C27       1.0  0.9020052954881945  0.2896922143949253  0.6045625855810215  1.0000
  C   C28       1.0  0.9020417502122698  0.7103247879694904  0.895439902792333  1.0000
  C   C29       1.0  0.14545908389882098  0.7816996134494046  0.42746537812197266  1.0000
  C   C30       1.0  0.14544600883064618  0.21829598901522468  0.0725267096433981  1.0000
  C   C31       1.0  0.8545478357003089  0.21832280075597765  0.5725289088167216  1.0000
  C   C32       1.0  0.8545680010095965  0.7816967313628568  0.927469931419033  1.0000
  C   C33       1.0  0.06218576566595151  0.8091193206794641  0.47138273225292693  1.0000
  C   C34       1.0  0.06214778641952991  0.19087627874753818  0.0286094724875241  1.0000
  C   C35       1.0  0.9378223358362161  0.19089707991457058  0.5286167842616436  1.0000
  C   C36       1.0  0.9378579521985699  0.8091121746835124  0.9713882870911874  1.0000
  C   C37       1.0  0.1017428100286111  0.8797677453854292  0.5000166385288338  1.0000
  C   C38       1.0  0.10171371788722179  0.12023360391435023  0.9999742804415632  1.0000
  C   C39       1.0  0.8982806524906337  0.12025095090344708  0.4999832636220276  1.0000
  C   C40       1.0  0.8983097448291844  0.8797576941679706  1.9919705543703332e-05  1.0000
  C   C41       1.0  0.2240497114833744  0.9248667018618231  0.4853691328681364  1.0000
  C   C42       1.0  0.22403423874639825  0.07513210129398117  0.014629171135354101  1.0000
  C   C43       1.0  0.7759867485848415  0.07515733434622254  0.5146261607394464  1.0000
  C   C44       1.0  0.7759679551383128  0.9248486916153381  0.9853687700965568  1.0000
  C   C45       1.0  0.3120247758034367  0.8946250697994598  0.4426578085997974  1.0000
  C   C46       1.0  0.3120092192541931  0.1053728094508486  0.05734727228291091  1.0000
  C   C47       1.0  0.6880105029139614  0.10539023293076608  0.5573411567481728  1.0000
  C   C48       1.0  0.6880272410942823  0.8946174156762507  0.9426419764684582  1.0000
  C   C49       1.0  0.27483097896123343  0.8238001598076892  0.41424973386976666  1.0000
  C   C50       1.0  0.27482132976625445  0.176195953950959  0.0857493090808674  1.0000
  C   C51       1.0  0.7251865753680633  0.17621888580031003  0.5857476577204253  1.0000
  C   C52       1.0  0.725210404472932  0.8237902038789429  0.9142480652126181  1.0000
  C   C53       1.0  0.2538353424859281  0.0037430837968698886  0.5118538987675834  1.0000
  C   C54       1.0  0.25385479489253976  0.9962659165079513  0.9881360005206474  1.0000
  C   C55       1.0  0.7461763039373678  0.9962719693566052  0.4881468596015708  1.0000
  C   C56       1.0  0.7461627599834344  0.0037217135116378993  0.011863456003688098  1.0000
  C   C57       1.0  0.22148415858389106  0.028400798321243266  0.562621551761751  1.0000
  C   C58       1.0  0.22148047730740217  0.9716080803482329  0.9373802811275667  1.0000
  C   C59       1.0  0.7785381226890207  0.9716160265292191  0.4373875787559315  1.0000
  C   C60       1.0  0.7785252613895253  0.028382319410361796  0.06262037446754931  1.0000
  C   C61       1.0  0.2430282450251013  0.10538425746345577  0.5838801423264499  1.0000
  C   C62       1.0  0.24306191158854057  0.8946244693749249  0.9161238498650448  1.0000
  C   C63       1.0  0.7569538612810618  0.8946295979116596  0.4161292232565544  1.0000
  C   C64       1.0  0.7569544617015609  0.10536415875808558  0.0838768753352852  1.0000
  C   C65       1.0  0.32761471167484046  0.13562638285856107  0.5096276655642455  1.0000
  C   C66       1.0  0.3276359107663538  0.8643708495947703  0.9903618210617608  1.0000
  C   C67       1.0  0.6724016614729821  0.8643833304158902  0.49037770149863047  1.0000
  C   C68       1.0  0.6723922785790747  0.135618227706793  0.009635676439636103  1.0000
  C   C69       1.0  0.31096595222973616  0.059987984167939594  0.48576008899032536  1.0000
  C   C70       1.0  0.31095412715497156  0.9400033026950183  0.014224782417741754  1.0000
  C   C71       1.0  0.6890787796445039  0.9400187847271224  0.514241113610865  1.0000
  C   C72       1.0  0.6890657910173414  0.05997744034981164  0.9857735176089832  1.0000
  C   C73       1.0  0.5418931347911735  0.6834548909086493  0.4818852277816319  1.0000
  C   C74       1.0  0.5419002432285749  0.31654248274296026  0.018117990697533094  1.0000
  C   C75       1.0  0.4581090588456291  0.31656071119770945  0.5181200269925341  1.0000
  C   C76       1.0  0.4580877711359861  0.6834436749879059  0.981879383224829  1.0000
  C   C77       1.0  0.4432581257771772  0.6770445365068554  0.5263938914981665  1.0000
  C   C78       1.0  0.4432410934082468  0.32293829802625845  0.9736034939168691  1.0000
  C   C79       1.0  0.5567369780805222  0.32296964326627625  0.47360892222024387  1.0000
  C   C80       1.0  0.5567457394327275  0.6770464124440493  0.02639583910867317  1.0000
  C   C81       1.0  0.2833438811314863  0.6578541700969749  0.5202745343193058  1.0000
  C   C82       1.0  0.2832782844791666  0.3421315829281467  0.9797192794310376  1.0000
  C   C83       1.0  0.7166630390739  0.3421488557945125  0.4797282415682248  1.0000
  C   C84       1.0  0.7166849160163976  0.6578430465416574  0.0202765253955945  1.0000
  C   C85       1.0  0.1888738863209127  0.6576313924168105  0.5621656323699682  1.0000
  C   C86       1.0  0.1888039791723486  0.3423432028859778  0.937827711863875  1.0000
  C   C87       1.0  0.8111259442208336  0.34236479638314427  0.4378356282953533  1.0000
  C   C88       1.0  0.811165129393565  0.6576353940976388  0.062169126292580805  1.0000
  C   C89       1.0  0.0174294684555321  0.6377398043038622  0.5573077058716933  1.0000
  C   C90       1.0  0.017382961091534803  0.3622458669266422  0.9426946279307202  1.0000
  C   C91       1.0  0.9825727253179932  0.3622380441618275  0.4426860706577997  1.0000
  C   C92       1.0  0.9825908740500819  0.6377429357878696  0.05730906243985599  1.0000
  C   C93       1.0  0.25352761307969734  0.6772159867815191  0.6098741314391276  1.0000
  C   C94       1.0  0.2534724602583508  0.3227416091788625  0.8901221780334225  1.0000
  C   C95       1.0  0.7464686727593061  0.32277688329356374  0.3901298751129687  1.0000
  C   C96       1.0  0.7465013749957449  0.6772200947569614  0.10987365846724371  1.0000
  C   C97       1.0  0.4152190652813203  0.6942643842274733  0.6165759587312607  1.0000
  C   C98       1.0  0.4151521062954656  0.3057185976460701  0.8834231984712276  1.0000
  C   C99       1.0  0.5847736754329915  0.3057422348358827  0.3834263193616607  1.0000
  C   C100      1.0  0.5848288184651762  0.6942632931404445  0.1165752939774407  1.0000
  C   C101      1.0  0.5088690010738474  0.6937164404240832  0.57394726820268  1.0000
  C   C102      1.0  0.5088040216827991  0.3062451070688183  0.9260501752908041  1.0000
  C   C103      1.0  0.4911426455770993  0.30628501344700954  0.4260541426624798  1.0000
  C   C104      1.0  0.49118044793667787  0.6937378816511097  0.07394886858526212  1.0000
  C   C105      1.0  0.48593701731790867  0.7100533524405817  0.6670685193199262  1.0000
  C   C106      1.0  0.48587385657516785  0.2899428254893762  0.8329321655849001  1.0000
  C   C107      1.0  0.5140557233349767  0.28995404015635984  0.3329324205720354  1.0000
  C   C108      1.0  0.5141117946541273  0.7100474245097813  0.1670695657727634  1.0000
  C   C109      1.0  0.39081580178736164  0.7221729368796588  0.7099113482444396  1.0000
  C   C110      1.0  0.3907521731497781  0.2778329658858993  0.7900864909872425  1.0000
  C   C111      1.0  0.6091769387027313  0.277840594104532  0.2900876862573725  1.0000
  C   C112      1.0  0.6092441123130498  0.722170134826854  0.20991152605687802  1.0000
  C   C113      1.0  0.4562968200271839  0.7310198376337879  0.7575707045406048  1.0000
  C   C114      1.0  0.4562476283008223  0.2689762310040321  0.7424335187326747  1.0000
  C   C115      1.0  0.5436876494374728  0.26899039957876164  0.2424351172722794  1.0000
  C   C116      1.0  0.5437569286815034  0.7310189596905302  0.2575664732867509  1.0000
  C   C117      1.0  0.6203528717438116  0.7337629638721095  0.7634015208785457  1.0000
  C   C118      1.0  0.6202974189706013  0.26626668592855635  0.7366058636541127  1.0000
  C   C119      1.0  0.3796386873746512  0.26624580113468704  0.23660221864331282  1.0000
  C   C120      1.0  0.37970359313364094  0.7337374877795637  0.2633971049362103  1.0000
  C   C121      1.0  0.7168258746089151  0.721911951126138  0.7210978189720336  1.0000
  C   C122      1.0  0.7167649495439504  0.27810778033130384  0.7789138687106743  1.0000
  C   C123      1.0  0.283172774231346  0.2781001076728415  0.2789075748019201  1.0000
  C   C124      1.0  0.28323369934136616  0.7218896561052758  0.22108686740885022  1.0000
  C   C125      1.0  0.6507281270958174  0.7080371316312435  0.6734456261256412  1.0000
  C   C126      1.0  0.650667976043941  0.29194407264269256  0.8265610890567033  1.0000
  C   C127      1.0  0.34927052190909785  0.2919559879724076  0.3265565872247294  1.0000
  C   C128      1.0  0.3493259463452104  0.7080528896774608  0.1734388333575083  1.0000
  C   C129      1.0  0.8925373976708215  0.7225425703605024  0.7257885475038536  1.0000
  C   C130      1.0  0.8924619618116053  0.27746655364045125  0.7742025537578244  1.0000
  C   C131      1.0  0.1074541615247568  0.2774714846546046  0.2742193835819577  1.0000
  C   C132      1.0  0.10753077881062718  0.7225364971596235  0.2257958219005687  1.0000
  C   C133      1.0  0.3501785622996109  0.7270638733161192  0.8014421449433372  1.0000
  C   C134      1.0  0.3500798989449548  0.27293126526581796  0.6985550625201074  1.0000
  C   C135      1.0  0.6498271763032192  0.27294521611458566  0.19856348429715354  1.0000
  C   C136      1.0  0.6499222947984862  0.7270594838172426  0.3014430825343979  1.0000
  N   N1        1.0  0.6862083174040733  0.5894544987676157  0.3652331437336472  1.0000
  N   N2        1.0  0.6862331254912346  0.4105580512875591  0.1347694583674794  1.0000
  N   N3        1.0  0.3137962397705323  0.4105594814315763  0.6347795462156327  1.0000
  N   N4        1.0  0.31378915507965394  0.5894451243062091  0.8652153585709783  1.0000
  N   N5        1.0  0.949554187768136  0.6784063745028277  0.3954593817750975  1.0000
  N   N6        1.0  0.9495498626143188  0.3215957655263039  0.10454243931121  1.0000
  N   N7        1.0  0.05041610192235879  0.3216101258148356  0.6045394171297857  1.0000
  N   N8        1.0  0.0504594206383828  0.6784006977589881  0.8954526281037829  1.0000
  N   N9        1.0  0.19592644031265394  0.6691321853230079  0.3624484591220991  1.0000
  N   N10       1.0  0.19593493239911197  0.3308666900673032  0.13753949147316294  1.0000
  N   N11       1.0  0.8040639367267204  0.33088710974664076  0.6375471390155951  1.0000
  N   N12       1.0  0.8040802589738404  0.669128001581697  0.8624556455069268  1.0000
  N   N13       1.0  0.1051333949835467  0.6088781113195623  0.3419352282128969  1.0000
  N   N14       1.0  0.1051664281662994  0.3911285622678662  0.1580554959595446  1.0000
  N   N15       1.0  0.8948664353629069  0.39113267487885384  0.6580666486424465  1.0000
  N   N16       1.0  0.8948523079118117  0.6088738897121573  0.8419387420786251  1.0000
  N   N17       1.0  0.2931731723400759  0.1591352084992863  0.5579815040777376  1.0000
  N   N18       1.0  0.2932103763293341  0.8408660101279395  0.9420113967661123  1.0000
  N   N19       1.0  0.7068290214894476  0.8408708117297647  0.4420250778277364  1.0000
  N   N20       1.0  0.7067953624722207  0.15912179454274877  0.05799102518925991  1.0000
  O   O1        1.0  0.9788916107191739  0.5789056859265147  0.5195839251386475  1.0000
  O   O2        1.0  0.9788662433183998  0.4210804486687465  0.9804204983991057  1.0000
  O   O3        1.0  0.0211283072671193  0.42108072139983216  0.48041165583274653  1.0000
  O   O4        1.0  0.021095775595270497  0.5789057339671615  0.01958091676700491  1.0000
  O   O5        1.0  0.9146717279419432  0.6695544803392792  0.584614815712584  1.0000
  O   O6        1.0  0.9146099571982231  0.33042759533741867  0.915386049370106  1.0000
  O   O7        1.0  0.0853387371433882  0.33042676173057106  0.4153798977903094  1.0000
  O   O8        1.0  0.08536387796520728  0.6695461109089675  0.0846121696808453  1.0000
  O   O9        1.0  0.2210858037180543  0.6926461160884543  0.7934016173344604  1.0000
  O   O10       1.0  0.22100207179126127  0.3073637587342119  0.7066099183714982  1.0000
  O   O11       1.0  0.7789069369412258  0.30737627316732835  0.20660551116584708  1.0000
  O   O12       1.0  0.7789953955140234  0.6926324300603852  0.2933913422737646  1.0000
  O   O13       1.0  0.405091909464538  0.7562509759221071  0.8449398815389202  1.0000
  O   O14       1.0  0.4050227803732227  0.2437571873609983  0.6550593028123829  1.0000
  O   O15       1.0  0.5949433695925562  0.2437520001289855  0.15506325323370623  1.0000
  O   O16       1.0  0.5949959558153637  0.756240423775722  0.34493595743580124  1.0000
  O   O17       1.0  0.9524777673366241  0.7806246453916897  0.7604034361526361  1.0000
  O   O18       1.0  0.9523873092040278  0.2193799342613828  0.7395937462897422  1.0000
  O   O19       1.0  0.0475173369785011  0.21938569167745212  0.23961011003500945  1.0000
  O   O20       1.0  0.04760543183501649  0.780616079867869  0.2604129903572527  1.0000
  O   O21       1.0  0.9808406647575579  0.6765809388489074  0.7007727692451268  1.0000
  O   O22       1.0  0.9807928963534494  0.32343894071513557  0.7992256076553872  1.0000
  O   O23       1.0  0.01914144123657739  0.3234279009818265  0.2992262114433544  1.0000
  O   O24       1.0  0.0192069341193104  0.6765636110545685  0.20077635450677184  1.0000
  O   O25       1.0  0.6907498778014441  0.6929021763631341  0.48629018170015575  1.0000
  O   O26       1.0  0.6907663928905234  0.3071073250323764  0.01370500855650651  1.0000
  O   O27       1.0  0.3092594056811818  0.3070945863732391  0.5137111754218822  1.0000
  O   O28       1.0  0.30923107398525934  0.6929115209115366  0.986293817440604  1.0000
  O   O29       1.0  0.47127808440812646  0.6833720978639944  0.4404006252154177  1.0000
  O   O30       1.0  0.4712811925595446  0.3166365339598656  0.0596026046080311  1.0000
  O   O31       1.0  0.5287193827166801  0.3166464237113473  0.559604752756627  1.0000
  O   O32       1.0  0.5287009136598187  0.6833542649823342  0.940395181631601  1.0000
