data_image0
_chemical_formula_structural       Zn2H56C60N2Cl4O8
_chemical_formula_sum              "Zn2 H56 C60 N2 Cl4 O8"
_cell_length_a       16.624501452336567
_cell_length_b       17.811402932954714
_cell_length_c       17.626868487546517
_cell_angle_alpha    90.45613606074494
_cell_angle_beta     95.07717540858316
_cell_angle_gamma    92.06470712839383

_space_group_name_H-M_alt    "P 1"
_space_group_IT_number       1

loop_
  _space_group_symop_operation_xyz
  'x, y, z'

loop_
  _atom_site_type_symbol
  _atom_site_label
  _atom_site_symmetry_multiplicity
  _atom_site_fract_x
  _atom_site_fract_y
  _atom_site_fract_z
  _atom_site_occupancy
  Zn  Zn1       1.0  0.5890979556173193  0.5030146904020115  0.5029862207792845  1.0000
  Zn  Zn2       1.0  0.4072235538350171  0.49745614242104347  0.4967420334127153  1.0000
  H   H1        1.0  0.990238711969013  0.49460318830477223  0.4125066346931303  1.0000
  H   H2        1.0  0.0061560725962337085  0.5053466004010191  0.5869397417617177  1.0000
  H   H3        1.0  0.5582835413889171  0.5719703104000972  0.9984378098972395  1.0000
  H   H4        1.0  0.451988751519906  0.4284914483904885  0.0021472700715819107  1.0000
  H   H5        1.0  0.6346179425687878  0.2676741320744469  0.5364827618979432  1.0000
  H   H6        1.0  0.3753329050480403  0.2594074975989428  0.5059992098184549  1.0000
  H   H7        1.0  0.633217794386141  0.7414228871756877  0.4839643395538855  1.0000
  H   H8        1.0  0.3739559941041223  0.7332160657676211  0.4734316428973385  1.0000
  H   H9        1.0  0.2701448505835273  0.33077361019908835  0.4336418421007976  1.0000
  H   H10       1.0  0.34018822103261936  0.3982041243470746  0.4022465193599344  1.0000
  H   H11       1.0  0.2476187755919952  0.37697921300016196  0.3465914403308331  1.0000
  H   H12       1.0  0.1142834216769941  0.3879833410061124  0.3303779553064387  1.0000
  H   H13       1.0  0.038144855785567706  0.3854140856107549  0.3949509256987794  1.0000
  H   H14       1.0  0.1222020074571759  0.32741734668844197  0.4091458176863795  1.0000
  H   H15       1.0  0.3008210258319579  0.6561849940907649  0.5547729368521883  1.0000
  H   H16       1.0  0.3501791835691392  0.5800871517486285  0.5996364854166529  1.0000
  H   H17       1.0  0.2595746752155605  0.6124170029445466  0.6331621444171345  1.0000
  H   H18       1.0  0.11502457892311921  0.614189791979463  0.6173164114555476  1.0000
  H   H19       1.0  0.059840997950303225  0.6305586591070736  0.5285986136777721  1.0000
  H   H20       1.0  0.15801990984381584  0.6722574381750732  0.5498704620738337  1.0000
  H   H21       1.0  0.8401267358020662  0.32552991166357265  0.4546249227079925  1.0000
  H   H22       1.0  0.9377285772953243  0.36891385423005113  0.4743071665056247  1.0000
  H   H23       1.0  0.8816255686238748  0.38255576875796754  0.38551344611874316  1.0000
  H   H24       1.0  0.7354441684074473  0.37968392631256626  0.37267175136176417  1.0000
  H   H25       1.0  0.6449030422089664  0.4105172959290897  0.40703078177602947  1.0000
  H   H26       1.0  0.6999041012569762  0.3388040817018805  0.4549394424450312  1.0000
  H   H27       1.0  0.878968781685316  0.6746911705291154  0.5816642426725804  1.0000
  H   H28       1.0  0.9583038645522707  0.6133718090965132  0.6060984347353937  1.0000
  H   H29       1.0  0.8765770563331329  0.6194066616867602  0.6639938187344325  1.0000
  H   H30       1.0  0.7411544817149291  0.6255680956608032  0.6468636694661212  1.0000
  H   H31       1.0  0.6555069977482546  0.6143028982017924  0.5799324703197326  1.0000
  H   H32       1.0  0.7383024288197219  0.6748716787594234  0.5604284024876518  1.0000
  H   H33       1.0  0.6956441925145356  0.545118296757245  0.7317112383858555  1.0000
  H   H34       1.0  0.6572654434175788  0.46115368513257937  0.686301580255481  1.0000
  H   H35       1.0  0.7068837536093469  0.4588054996715485  0.7799461628862115  1.0000
  H   H36       1.0  0.6974395219058138  0.460737289868902  0.9108541734882247  1.0000
  H   H37       1.0  0.6656272618916148  0.5405842815498899  0.9580201690833686  1.0000
  H   H38       1.0  0.7140477406273007  0.5510304866216557  0.8728578801250533  1.0000
  H   H39       1.0  0.3200219595448743  0.43386140779574583  0.7721575529920981  1.0000
  H   H40       1.0  0.3629002163202131  0.4233098174348982  0.6838516582483576  1.0000
  H   H41       1.0  0.32293623781775693  0.5094195615822842  0.7076974465223527  1.0000
  H   H42       1.0  0.3184803699747576  0.5319091090578071  0.8492725347088024  1.0000
  H   H43       1.0  0.37357586967682016  0.5361757385219689  0.940307492711774  1.0000
  H   H44       1.0  0.33746814226737604  0.44863954072872037  0.9004409188354499  1.0000
  H   H45       1.0  0.6657821246599199  0.559996059278113  0.113293162414891  1.0000
  H   H46       1.0  0.6366054675362988  0.47277067347521745  0.06842110731888337  1.0000
  H   H47       1.0  0.6860886500831712  0.47557077044998414  0.1620084439246483  1.0000
  H   H48       1.0  0.6725107793343099  0.48652215102238466  0.2962412675179848  1.0000
  H   H49       1.0  0.6262234219055784  0.5643685470431593  0.33409330844335017  1.0000
  H   H50       1.0  0.6729997256496175  0.5730394602432937  0.24755010922051912  1.0000
  H   H51       1.0  0.290519606108326  0.4426953485901564  0.11809827431619616  1.0000
  H   H52       1.0  0.34413407075891916  0.4513874651336351  0.036106479586862895  1.0000
  H   H53       1.0  0.3063768210346822  0.5318106720429085  0.07717055059228527  1.0000
  H   H54       1.0  0.2852502228544225  0.5306541366086037  0.20370579939284275  1.0000
  H   H55       1.0  0.3300681522331246  0.5445013742639377  0.2985283989243114  1.0000
  H   H56       1.0  0.30130574407724  0.45334282287456784  0.26484266024021946  1.0000
  C   C1        1.0  0.5050087603307533  0.5009703206130708  0.6469969647515937  1.0000
  C   C2        1.0  0.5030798619052916  0.6451201877493773  0.4850428534363543  1.0000
  C   C3        1.0  0.4829847241783938  0.49947822905780725  0.35276239002756427  1.0000
  C   C4        1.0  0.5048969319573544  0.3557844558636774  0.5146479957653864  1.0000
  C   C5        1.0  0.24130285531147422  0.5482182935083985  0.5293028273177071  1.0000
  C   C6        1.0  0.1568526568953743  0.5545568137915211  0.520619149583659  1.0000
  C   C7        1.0  0.1099783077639174  0.49979775278667654  0.4765729243963859  1.0000
  C   C8        1.0  0.14951630207961136  0.44419211104771256  0.4382076517365191  1.0000
  C   C9        1.0  0.23439909435705183  0.4443442751774356  0.4458961012154672  1.0000
  C   C10       1.0  0.020850475865543703  0.49890168380137806  0.4700111261840474  1.0000
  C   C11       1.0  0.9755469880432983  0.501209330058387  0.5294294836911104  1.0000
  C   C12       1.0  0.8468129378111654  0.5574709850458176  0.5586577969943178  1.0000
  C   C13       1.0  0.8863825734602102  0.5003038155541333  0.5227142405518421  1.0000
  C   C14       1.0  0.8396172475711907  0.4439998524778446  0.4808114900016988  1.0000
  C   C15       1.0  0.7550153480663298  0.44937927410314416  0.47269290640004846  1.0000
  C   C16       1.0  0.7619776081582615  0.5581881566111448  0.5494930497587162  1.0000
  C   C17       1.0  0.510242631521713  0.4930080979564621  0.7324883959276034  1.0000
  C   C18       1.0  0.43847978859072617  0.48566424013313975  0.7705403855970088  1.0000
  C   C19       1.0  0.44216999092606096  0.4984119149949677  0.8498824397791933  1.0000
  C   C20       1.0  0.5176697235111192  0.5100776670442427  0.8926348182636584  1.0000
  C   C21       1.0  0.5896049188933717  0.5086864762791309  0.8555559730064173  1.0000
  C   C22       1.0  0.5863758418862731  0.49905241624320223  0.7759902591939676  1.0000
  C   C23       1.0  0.5228457600117123  0.5223818596092471  0.9760161482573717  1.0000
  C   C24       1.0  0.4870957942659402  0.4778719794612414  0.025546088481625883  1.0000
  C   C25       1.0  0.4127648720377977  0.4892611251712466  0.14089746879201204  1.0000
  C   C26       1.0  0.48770028278822514  0.4900813486892799  0.10860326398626798  1.0000
  C   C27       1.0  0.5602496431494189  0.5035763456563273  0.15565685750159014  1.0000
  C   C28       1.0  0.5579052754177098  0.5136397843837486  0.23480371610479975  1.0000
  C   C29       1.0  0.48311697346903065  0.50677424259176  0.26760320636667956  1.0000
  C   C30       1.0  0.40973499208413244  0.5005572116804586  0.21972720599384124  1.0000
  C   C31       1.0  0.5050098295570038  0.271537397060797  0.5194922400099101  1.0000
  C   C32       1.0  0.5780999700458339  0.23475951038759046  0.528161914198101  1.0000
  C   C33       1.0  0.5778750856195032  0.15685966852391428  0.5246807350311613  1.0000
  C   C34       1.0  0.5047703058225254  0.11283928234517052  0.5136611578372409  1.0000
  C   C35       1.0  0.4316760863641633  0.15209237678889312  0.5093743095664534  1.0000
  C   C36       1.0  0.43170158790370294  0.22996962010078192  0.5114799818913267  1.0000
  C   C37       1.0  0.5047183290389512  0.0343562380965636  0.5053306922044385  1.0000
  C   C38       1.0  0.5046098822564247  0.9664412928067847  0.49546424290785734  1.0000
  C   C39       1.0  0.5042320339546436  0.8879785816507066  0.48681390655963225  1.0000
  C   C40       1.0  0.5770711098464433  0.8486731733075175  0.4870512045185647  1.0000
  C   C41       1.0  0.5769070952083979  0.7707688721039433  0.48319101605426323  1.0000
  C   C42       1.0  0.5036315990719942  0.7293297938163973  0.4802046153841174  1.0000
  C   C43       1.0  0.43053879516451593  0.7661664128803665  0.4770391375073898  1.0000
  C   C44       1.0  0.43090626539186877  0.8440333828617598  0.4794450862329425  1.0000
  C   C45       1.0  0.2759787732974175  0.3851272262634565  0.4048250242256869  1.0000
  C   C46       1.0  0.10331439872458498  0.3834970959901652  0.3908908553094647  1.0000
  C   C47       1.0  0.2908895983788257  0.6017321302061022  0.582090571896792  1.0000
  C   C48       1.0  0.12032798987098661  0.6211489910793233  0.555899985584979  1.0000
  C   C49       1.0  0.8768664139569324  0.3769143460443374  0.4471834411105745  1.0000
  C   C50       1.0  0.7056259846876785  0.3920309427057376  0.42428929326486997  1.0000
  C   C51       1.0  0.892900615452156  0.6189941822513276  0.6048499254361344  1.0000
  C   C52       1.0  0.7210959039314063  0.620985587938648  0.585849046438426  1.0000
  C   C53       1.0  0.6654665383238624  0.49040560055902926  0.741250125695444  1.0000
  C   C54       1.0  0.6705712914903829  0.5159949948095813  0.9015616232823614  1.0000
  C   C55       1.0  0.35685797476050146  0.46178039813069194  0.7313223146737824  1.0000
  C   C56       1.0  0.364030002203272  0.5040274151547096  0.8869366546167964  1.0000
  C   C57       1.0  0.6412192132695509  0.502897269272147  0.12308558863082199  1.0000
  C   C58       1.0  0.6362863833316369  0.5355649806091664  0.28100549709019157  1.0000
  C   C59       1.0  0.3347696438772659  0.47793577612297616  0.09063230895007729  1.0000
  C   C60       1.0  0.3273128364412443  0.5079073626254739  0.2484007703983336  1.0000
  N   N1        1.0  0.2790188475953173  0.4948542298443498  0.4916538456125961  1.0000
  N   N2        1.0  0.7172950958038911  0.5051565716344939  0.5069509907204405  1.0000
  Cl  Cl1       1.0  0.34067664751427884  0.10157263789275818  0.4994635434192528  1.0000
  Cl  Cl2       1.0  0.6686790112238512  0.1121898538029029  0.5323276938748122  1.0000
  Cl  Cl3       1.0  0.3401955122054333  0.8887201408614233  0.4754844922139581  1.0000
  Cl  Cl4       1.0  0.6681246810754474  0.8991619811068575  0.4940537268091133  1.0000
  O   O1        1.0  0.5670801938386986  0.5255625943301893  0.6158142183028656  1.0000
  O   O2        1.0  0.43664002748482034  0.4865625291801479  0.6098480560391478  1.0000
  O   O3        1.0  0.43800727101955766  0.6133336689003458  0.5025416302096771  1.0000
  O   O4        1.0  0.5684758685234569  0.613420555302845  0.47317945967439795  1.0000
  O   O5        1.0  0.41837527831360427  0.5123097453873269  0.38400667287240947  1.0000
  O   O6        1.0  0.5469460344649804  0.47698741313921994  0.38984659176774966  1.0000
  O   O7        1.0  0.5722320438848956  0.3912310029184455  0.5306272587627915  1.0000
  O   O8        1.0  0.4376979386844866  0.38387025449911494  0.49322857340438003  1.0000
