data_image0
_chemical_formula_structural       Sm4P4H60C84N4O44
_chemical_formula_sum              "Sm4 P4 H60 C84 N4 O44"
_cell_length_a       11.730013759027731
_cell_length_b       14.691573534631836
_cell_length_c       17.623571403027423
_cell_angle_alpha    89.99993157504912
_cell_angle_beta     90.0001931718442
_cell_angle_gamma    92.2079147010579

_space_group_name_H-M_alt    "P 1"
_space_group_IT_number       1

loop_
  _space_group_symop_operation_xyz
  'x, y, z'

loop_
  _atom_site_type_symbol
  _atom_site_label
  _atom_site_symmetry_multiplicity
  _atom_site_fract_x
  _atom_site_fract_y
  _atom_site_fract_z
  _atom_site_occupancy
  Sm  Sm1       1.0  0.9266136067694005  0.9076320285953938  0.9287919009316642  1.0000
  Sm  Sm2       1.0  0.5733867539783618  0.5923669311419671  0.42879255192466564  1.0000
  Sm  Sm3       1.0  0.07338454286544761  0.0923658424671956  0.07120637546661611  1.0000
  Sm  Sm4       1.0  0.42661230234494246  0.40763230692527935  0.5712062918958338  1.0000
  P   P1        1.0  0.6644107516113992  0.7481630343433636  0.9177235544666831  1.0000
  P   P2        1.0  0.8355896078379742  0.7518373018243382  0.4177240686239402  1.0000
  P   P3        1.0  0.3355900911055301  0.2518382565814363  0.08227642419856103  1.0000
  P   P4        1.0  0.16441355019507853  0.24815787283808527  0.5822776123125948  1.0000
  H   H1        1.0  0.8892092813708461  0.36396956856351886  0.17163402085049034  1.0000
  H   H2        1.0  0.61078511444542  0.1360278899452183  0.671633497950012  1.0000
  H   H3        1.0  0.11078718981200804  0.6360289742463718  0.8283665252330865  1.0000
  H   H4        1.0  0.38921138371929936  0.8639713340167887  0.32836648071137386  1.0000
  H   H5        1.0  0.8222250343905345  0.014286185091634703  0.7759781405783672  1.0000
  H   H6        1.0  0.6777750257307601  0.485711849600122  0.2759797688362156  1.0000
  H   H7        1.0  0.17777745979652343  0.9857137529337477  0.22402013582377125  1.0000
  H   H8        1.0  0.3222223791209942  0.5142887413668973  0.7240202098255113  1.0000
  H   H9        1.0  0.7640465685257921  0.013639844181170702  0.8565003469102026  1.0000
  H   H10       1.0  0.7359555990824871  0.4863580971425704  0.3565004030922695  1.0000
  H   H11       1.0  0.23595416625375523  0.9863587221376945  0.14349792949064274  1.0000
  H   H12       1.0  0.2640442829794196  0.5136404644740579  0.6434990081513805  1.0000
  H   H13       1.0  0.42864451008421167  0.7008518785309406  0.8640219389153077  1.0000
  H   H14       1.0  0.0713533887536215  0.7991483795234515  0.3640212442485763  1.0000
  H   H15       1.0  0.5713597704908083  0.29915011235343764  0.13597520264405463  1.0000
  H   H16       1.0  0.9286448688228576  0.20085221614399273  0.6359804366797449  1.0000
  H   H17       1.0  0.2439841839271892  0.7695520886121868  0.894811143019105  1.0000
  H   H18       1.0  0.2560156550369683  0.7304501830025957  0.3948120669851961  1.0000
  H   H19       1.0  0.7560219369981098  0.23045331743578149  0.10518316143122773  1.0000
  H   H20       1.0  0.7439860404032715  0.2695511126229775  0.605189046524764  1.0000
  H   H21       1.0  0.4130711118743591  0.955277108243301  0.04985253949929101  1.0000
  H   H22       1.0  0.0869277494856462  0.5447228837437378  0.5498526214352496  1.0000
  H   H23       1.0  0.5869288781221017  0.04472417797998669  0.9501474391649936  1.0000
  H   H24       1.0  0.9130721325776817  0.45527567787252815  0.45014735723027155  1.0000
  H   H25       1.0  0.6001763441802909  0.8876057530714404  0.020001285997423707  1.0000
  H   H26       1.0  0.8998246955255027  0.6123978294278061  0.5200025714993048  1.0000
  H   H27       1.0  0.39982271215434656  0.1123934849929071  0.9800020971981028  1.0000
  H   H28       1.0  0.10017606624582949  0.3876014180406385  0.47999910943249813  1.0000
  H   H29       1.0  0.5322705705022628  0.661383508794046  0.04229476066622341  1.0000
  H   H30       1.0  0.9677296738240957  0.838618678247734  0.5422942709719296  1.0000
  H   H31       1.0  0.4677293385443448  0.3386157339739809  0.9577052179989922  1.0000
  H   H32       1.0  0.032272021614723194  0.16138261737820153  0.45770627511614514  1.0000
  H   H33       1.0  0.5810778323336478  0.5412396444527018  0.13529645627203735  1.0000
  H   H34       1.0  0.9189211439312005  0.9587617333339081  0.6352968718292049  1.0000
  H   H35       1.0  0.418921250975778  0.45876027476558073  0.8647035223919135  1.0000
  H   H36       1.0  0.08107711363678051  0.0412388623357103  0.364701404567839  1.0000
  H   H37       1.0  0.9091101721809665  0.5181161309464314  0.029499325041236105  1.0000
  H   H38       1.0  0.5908888857115145  0.9818792562054454  0.5295018169659329  1.0000
  H   H39       1.0  0.09088211634936981  0.48188443181120266  0.970501221036628  1.0000
  H   H40       1.0  0.40911525995417714  0.0181193289183454  0.47049816170437014  1.0000
  H   H41       1.0  0.8633257586821941  0.6390080877906641  0.9370462498089368  1.0000
  H   H42       1.0  0.6366746163004535  0.860990180258753  0.43704847746072073  1.0000
  H   H43       1.0  0.1366740694131465  0.36098911152245705  0.06295316143532403  1.0000
  H   H44       1.0  0.36332699819135433  0.13900907191119677  0.5629532034720415  1.0000
  H   H45       1.0  0.5971121876326748  0.5651654096958653  0.8548713833662378  1.0000
  H   H46       1.0  0.90288271469327  0.934834297329047  0.35487413602220397  1.0000
  H   H47       1.0  0.4028860699338921  0.43483518597410853  0.1451263256089277  1.0000
  H   H48       1.0  0.09711881885435499  0.06516291138418497  0.6451298145990025  1.0000
  H   H49       1.0  0.5579524265712479  0.5172821031788216  0.7215692108710814  1.0000
  H   H50       1.0  0.9420461277374487  0.9827191597942855  0.22157030156797225  1.0000
  H   H51       1.0  0.4420502295155088  0.4827219217570828  0.27842906552919544  1.0000
  H   H52       1.0  0.05795210285858591  0.017280754720680098  0.7784325142044184  1.0000
  H   H53       1.0  0.6672666844532884  0.7833228000376805  0.6423423538321844  1.0000
  H   H54       1.0  0.832736590598877  0.7166785922624611  0.1423445989042307  1.0000
  H   H55       1.0  0.3327375961259804  0.21667919084561046  0.35765648999282024  1.0000
  H   H56       1.0  0.1672625196980704  0.28332200810648084  0.8576570820250426  1.0000
  H   H57       1.0  0.7088240789411984  0.8325050590325275  0.7765450268974095  1.0000
  H   H58       1.0  0.7911755755978048  0.667495457324385  0.2765449578788549  1.0000
  H   H59       1.0  0.29118017465903995  0.16749625069792273  0.22345551919354287  1.0000
  H   H60       1.0  0.20882345374646152  0.3325030995900136  0.7234555882075925  1.0000
  C   C1        1.0  0.5259471576296021  0.7892424614736057  0.9411204520494397  1.0000
  C   C2        1.0  0.9740525198882112  0.7107592024339695  0.4411213185562773  1.0000
  C   C3        1.0  0.47405448383415205  0.21075747185099658  0.0588766895079829  1.0000
  C   C4        1.0  0.025949920340778497  0.2892393732857244  0.5588803623777495  1.0000
  C   C5        1.0  0.4258967552523528  0.7554899147940405  0.9057467090269785  1.0000
  C   C6        1.0  0.0741039910370986  0.7445123475641608  0.4057489121477645  1.0000
  C   C7        1.0  0.5741059547952999  0.24451547244682806  0.09424929768516682  1.0000
  C   C8        1.0  0.9258967707370688  0.2554868999035591  0.5942539036278023  1.0000
  C   C9        1.0  0.3222183935468621  0.7938614250984343  0.9225700646047202  1.0000
  C   C10       1.0  0.1777807043115089  0.7061401252346683  0.42256970203946054  1.0000
  C   C11       1.0  0.677784980349621  0.2061391987787502  0.07743048148557823  1.0000
  C   C12       1.0  0.8222209911315589  0.29386117039017984  0.5774325463142561  1.0000
  C   C13       1.0  0.31763582252975914  0.8661634089912127  0.974166829694845  1.0000
  C   C14       1.0  0.18236339802679416  0.6338346697316624  0.47416257759864094  1.0000
  C   C15       1.0  0.6823631258703317  0.13383310446647562  0.025835986080039702  1.0000
  C   C16       1.0  0.8176373367570021  0.3661638965861088  0.5258374010678397  1.0000
  C   C17       1.0  0.41758275061556555  0.8985942098167355  0.0102788687339768  1.0000
  C   C18       1.0  0.08241676586929711  0.6014058373812077  0.5102777491447554  1.0000
  C   C19       1.0  0.5824189718008699  0.10140776696240292  0.9897194076662787  1.0000
  C   C20       1.0  0.9175822634735552  0.3985927195335606  0.48972222951980643  1.0000
  C   C21       1.0  0.5216017668064268  0.860601882143136  0.9939315006973504  1.0000
  C   C22       1.0  0.9784006785951219  0.6393983661612809  0.4939330155767296  1.0000
  C   C23       1.0  0.47839992862530784  0.139399413484611  0.006066208281332302  1.0000
  C   C24       1.0  0.021601680685442697  0.3605981661027896  0.5060692327801064  1.0000
  C   C25       1.0  0.2064355216159939  0.9108615076215186  0.9880520631703721  1.0000
  C   C26       1.0  0.2935672870800659  0.589139296793668  0.48804583603978824  1.0000
  C   C27       1.0  0.793564387432035  0.0891377351461458  0.011948482916722004  1.0000
  C   C28       1.0  0.7064387259191774  0.4108633846454665  0.5119513055211726  1.0000
  C   C29       1.0  0.6939175489689688  0.6572047554116764  0.9832194382319063  1.0000
  C   C30       1.0  0.806082311763042  0.8427961736134576  0.4832186604663919  1.0000
  C   C31       1.0  0.30608238705950447  0.3427951685084664  0.0167799730111184  1.0000
  C   C32       1.0  0.19391836905135312  0.15720103040153083  0.5167801833569429  1.0000
  C   C33       1.0  0.614624576021754  0.6296846977569786  0.039103121004430405  1.0000
  C   C34       1.0  0.8853756523709323  0.8703174933577669  0.5391035493388259  1.0000
  C   C35       1.0  0.3853736275768256  0.3703145356098502  0.9608940205494749  1.0000
  C   C36       1.0  0.11462425667284039  0.1296817494109845  0.4608952944826329  1.0000
  C   C37       1.0  0.6414707172645322  0.5623813786395928  0.09111023707377093  1.0000
  C   C38       1.0  0.8585244116357488  0.9376145875209332  0.5911133750138617  1.0000
  C   C39       1.0  0.3585248742074825  0.4376164783188584  0.9088874718997676  1.0000
  C   C40       1.0  0.141473711020069  0.06238260238881568  0.4088866036503661  1.0000
  C   C41       1.0  0.7475392922885078  0.5218710688297676  0.08748909010867582  1.0000
  C   C42       1.0  0.7524576319018054  0.9781276359634249  0.5874908142724211  1.0000
  C   C43       1.0  0.2524581125632466  0.4781295221372586  0.9125108885530439  1.0000
  C   C44       1.0  0.24754139743963316  0.021870920951705793  0.4125085969702625  1.0000
  C   C45       1.0  0.8266910390236575  0.5495483115342309  0.031463631238509  1.0000
  C   C46       1.0  0.6733072029357672  0.9504477495617678  0.5314646375918956  1.0000
  C   C47       1.0  0.1733047143565543  0.4504536323325681  0.9685374822644452  1.0000
  C   C48       1.0  0.32669339693445215  0.049547410996510194  0.46853647591989045  1.0000
  C   C49       1.0  0.800487798171531  0.6168763154621287  0.9794785657237383  1.0000
  C   C50       1.0  0.6995119089707416  0.8831212125775068  0.4794797777672459  1.0000
  C   C51       1.0  0.19951136608631972  0.3831256472117772  0.0205208455174031  1.0000
  C   C52       1.0  0.30049047728743267  0.11687600083976687  0.5205202009017642  1.0000
  C   C53       1.0  0.773433398329253  0.44962386423480877  0.14375130424363655  1.0000
  C   C54       1.0  0.7265626986358527  0.050377045020205506  0.6437550990868603  1.0000
  C   C55       1.0  0.22656571196344544  0.5503767361352272  0.8562486744200017  1.0000
  C   C56       1.0  0.2734415549700486  0.9496242647087954  0.3562477166916055  1.0000
  C   C57       1.0  0.6525145544175288  0.7022019907319929  0.8234730876458303  1.0000
  C   C58       1.0  0.8474862411232351  0.7977998327343981  0.3234735827128788  1.0000
  C   C59       1.0  0.34749060586691627  0.2978006860041943  0.1765263236016992  1.0000
  C   C60       1.0  0.15251614513919523  0.20219738068178827  0.6765280982217663  1.0000
  C   C61       1.0  0.6118667311125989  0.6131533064580879  0.8083785295256123  1.0000
  C   C62       1.0  0.8881314039172707  0.8868478410171434  0.308379594602549  1.0000
  C   C63       1.0  0.3881366967476154  0.38684867972333586  0.19162088172031136  1.0000
  C   C64       1.0  0.11186591999454981  0.11315070649207828  0.6916243560132573  1.0000
  C   C65       1.0  0.5891506338236283  0.5864424336373374  0.7338624064680135  1.0000
  C   C66       1.0  0.9108505670086658  0.9135595089023596  0.23386292856842777  1.0000
  C   C67       1.0  0.4108511425622082  0.4135609054445907  0.2661370047753807  1.0000
  C   C68       1.0  0.08914686483345952  0.08644176321460861  0.7661398872023855  1.0000
  C   C69       1.0  0.6068915232267785  0.6490202678008643  0.6746876697137127  1.0000
  C   C70       1.0  0.8931068239842119  0.8509817361597954  0.17468878175295544  1.0000
  C   C71       1.0  0.39310854771811415  0.3509830618780541  0.325311741527763  1.0000
  C   C72       1.0  0.1068897551360237  0.14901953125603742  0.8253134665950201  1.0000
  C   C73       1.0  0.6520294729494792  0.7369455375052069  0.6897975538336285  1.0000
  C   C74       1.0  0.8479672442646661  0.7630564377674177  0.18979865206245716  1.0000
  C   C75       1.0  0.3479773118232287  0.263055105179447  0.3102007225729794  1.0000
  C   C76       1.0  0.15202760242850388  0.23694413909436918  0.810202461440156  1.0000
  C   C77       1.0  0.674856114695821  0.7639505323400682  0.7639482571787755  1.0000
  C   C78       1.0  0.8251417715075959  0.7360499906909724  0.26394876359022856  1.0000
  C   C79       1.0  0.3251481119168886  0.2360500962397153  0.2360505866468472  1.0000
  C   C80       1.0  0.17485725783809158  0.26394856622307117  0.7360523499180973  1.0000
  C   C81       1.0  0.5787174122073893  0.6247608806092444  0.5944785955846257  1.0000
  C   C82       1.0  0.921282212973452  0.8752405539753737  0.09447917936518023  1.0000
  C   C83       1.0  0.42128348447327113  0.3752417726197876  0.4055202482362362  1.0000
  C   C84       1.0  0.0787160446058621  0.12476004169134569  0.9055236364068977  1.0000
  N   N1        1.0  0.023099443354198  0.779371979496041  0.8177510266383908  1.0000
  N   N2        1.0  0.4768981974692537  0.7206276564627744  0.3177507548591976  1.0000
  N   N3        1.0  0.9768979614975563  0.2206286114709853  0.18224895202333616  1.0000
  N   N4        1.0  0.523098219744199  0.27936952404433407  0.6822486563812405  1.0000
  O   O1        1.0  0.7518691019944157  0.8259894701245544  0.9200716057277988  1.0000
  O   O2        1.0  0.7481312961604232  0.6740115441984783  0.4200714334111667  1.0000
  O   O3        1.0  0.2481317407281765  0.17401182079879615  0.07993064262495861  1.0000
  O   O4        1.0  0.2518701834163863  0.32598430221233327  0.5799308149450155  1.0000
  O   O5        1.0  0.2092299145363796  0.9827539995869826  0.028948474574697514  1.0000
  O   O6        1.0  0.2907706828032773  0.5172494342428776  0.528947340050479  1.0000
  O   O7        1.0  0.7907726875809756  0.017248663046146397  0.971048666982448  1.0000
  O   O8        1.0  0.7092310396131581  0.4827525425362608  0.47105093634976936  1.0000
  O   O9        1.0  0.11820028067544537  0.8746094439142806  0.9574344648691381  1.0000
  O   O10       1.0  0.3818014144899351  0.6253886702708297  0.45742726516053994  1.0000
  O   O11       1.0  0.8818015226851729  0.12539457632157539  0.04256154184266591  1.0000
  O   O12       1.0  0.6182020673354245  0.3746146782144706  0.5425715786628873  1.0000
  O   O13       1.0  0.7050316575707498  0.42408772210211515  0.19375586057540065  1.0000
  O   O14       1.0  0.7949593838532961  0.07590832706227249  0.6937558118143771  1.0000
  O   O15       1.0  0.29496668095416106  0.5759149170209595  0.8062452529301114  1.0000
  O   O16       1.0  0.20504049820861067  0.9240902345543629  0.3062435994292657  1.0000
  O   O17       1.0  0.8755503251845339  0.4151574642015631  0.13435266024928447  1.0000
  O   O18       1.0  0.6244361290508067  0.084837956121234  0.6343522191127777  1.0000
  O   O19       1.0  0.12444699871737443  0.5848410833101954  0.8656473184133662  1.0000
  O   O20       1.0  0.3755611678692361  0.9151599102384083  0.3656483269720639  1.0000
  O   O21       1.0  0.5339801868903107  0.5458107159964952  0.578763268294459  1.0000
  O   O22       1.0  0.9660185340862668  0.954191415096126  0.07876387393299211  1.0000
  O   O23       1.0  0.46602403972522677  0.4541899125825636  0.42123671037492033  1.0000
  O   O24       1.0  0.0339797234916261  0.0458091805709557  0.9212383744172077  1.0000
  O   O25       1.0  0.6013350828387658  0.6825032369130568  0.54277681287158  1.0000
  O   O26       1.0  0.8986633775106511  0.8174968966534237  0.042779105647390715  1.0000
  O   O27       1.0  0.39866570590452  0.31749669171004063  0.4572203286848833  1.0000
  O   O28       1.0  0.10133405433288803  0.18250437546318204  0.9572242775453009  1.0000
  O   O29       1.0  0.9715608456743042  0.7491319566330219  0.8766783028835409  1.0000
  O   O30       1.0  0.5284384561126175  0.7508684272204462  0.37667812728490463  1.0000
  O   O31       1.0  0.028438264619815395  0.250868643736645  0.1233222432019758  1.0000
  O   O32       1.0  0.4715639571245944  0.24912946734966818  0.6233201491181577  1.0000
  O   O33       1.0  0.013207935097206306  0.8633804611135929  0.8013212731145745  1.0000
  O   O34       1.0  0.48679220883551005  0.6366198910713902  0.3013205399512985  1.0000
  O   O35       1.0  0.986790295491744  0.13661945340317766  0.19867870554841727  1.0000
  O   O36       1.0  0.5132016232403203  0.36337659417764473  0.6986817083959738  1.0000
  O   O37       1.0  0.08286707370957198  0.7288830509537758  0.7777637643643306  1.0000
  O   O38       1.0  0.41712948775482067  0.7711159501876779  0.277764442663795  1.0000
  O   O39       1.0  0.9171303041589028  0.27111685886149667  0.22223621429770907  1.0000
  O   O40       1.0  0.5828669024753523  0.22888054916766973  0.7222349685769559  1.0000
  O   O41       1.0  0.813414106679808  0.9788728505226842  0.8235185243343965  1.0000
  O   O42       1.0  0.6865874068916682  0.5211255718285058  0.3235189335274455  1.0000
  O   O43       1.0  0.18658753478819534  0.021127082800831  0.17648031948866116  1.0000
  O   O44       1.0  0.31341162245260523  0.4788729850858998  0.6764816125589947  1.0000
