data_image0
_chemical_formula_structural       Cu4H32C24S8N16
_chemical_formula_sum              "Cu4 H32 C24 S8 N16"
_cell_length_a       7.789996045131918
_cell_length_b       9.060829537071992
_cell_length_c       14.024996325324603
_cell_angle_alpha    90.00717191540977
_cell_angle_beta     89.99227801594496
_cell_angle_gamma    108.98749782744355

_space_group_name_H-M_alt    "P 1"
_space_group_IT_number       1

loop_
  _space_group_symop_operation_xyz
  'x, y, z'

loop_
  _atom_site_type_symbol
  _atom_site_label
  _atom_site_symmetry_multiplicity
  _atom_site_fract_x
  _atom_site_fract_y
  _atom_site_fract_z
  _atom_site_occupancy
  Cu  Cu1       1.0  4.3714800309999994e-07  1.1672485911e-06  1.4260568121999998e-06  1.0000
  Cu  Cu2       1.0  1.556612012599073e-06  0.4999987290494445  0.49999862651915816  1.0000
  Cu  Cu3       1.0  0.4999996445957535  0.999998667996806  0.4999995148604626  1.0000
  Cu  Cu4       1.0  0.4999989360451308  0.49999877571334383  0.9999994622358344  1.0000
  H   H1        1.0  0.17218795929409236  0.11119597579029519  0.3300872529476919  1.0000
  H   H2        1.0  0.8278612811358316  0.38900301260592574  0.8299448638600992  1.0000
  H   H3        1.0  0.8278093756272042  0.8888031731325938  0.6699126497209704  1.0000
  H   H4        1.0  0.17213476864268523  0.6109961322532411  0.1700543258445535  1.0000
  H   H5        1.0  0.12889629051510104  0.056053489076838006  0.45201107910865096  1.0000
  H   H6        1.0  0.871000868709473  0.44394740125066073  0.9519191391890232  1.0000
  H   H7        1.0  0.8711040254719505  0.9439433375891751  0.5479888233510835  1.0000
  H   H8        1.0  0.12900160711600261  0.5560517636813957  0.048080050272318396  1.0000
  H   H9        1.0  0.06534921984534486  0.8162636172039867  0.3527071724878539  1.0000
  H   H10       1.0  0.9347934370326955  0.6838460514465935  0.8526709568842818  1.0000
  H   H11       1.0  0.9346494004851638  0.18373553558604525  0.6472905910941334  1.0000
  H   H12       1.0  0.06520819079799621  0.3161542766703391  0.1473289456698552  1.0000
  H   H13       1.0  0.28298213448938003  0.8905193867376083  0.2993564943706488  1.0000
  H   H14       1.0  0.7170960666861461  0.609768060457796  0.7993991566154293  1.0000
  H   H15       1.0  0.7170152006317423  0.10947976203785001  0.7006412692600038  1.0000
  H   H16       1.0  0.2829034013727282  0.3902299293439384  0.20060074592443297  1.0000
  H   H17       1.0  0.3292932869404624  0.7358781212564836  0.4162211227162018  1.0000
  H   H18       1.0  0.6710948975372519  0.7644031693311248  0.9164561468788719  1.0000
  H   H19       1.0  0.6707070559472611  0.2641222026492969  0.5837759278359158  1.0000
  H   H20       1.0  0.3289037226600513  0.2355959835571966  0.0835430427284578  1.0000
  H   H21       1.0  0.2039310680986404  0.7856150705740887  0.4977267082697594  1.0000
  H   H22       1.0  0.7963072432664051  0.7143214626713572  0.9978504177484027  1.0000
  H   H23       1.0  0.7960666776694436  0.21438174791533976  0.5022710552492953  1.0000
  H   H24       1.0  0.20369137699750436  0.28567769016782296  0.0021480588462524  1.0000
  H   H25       1.0  0.4074251440880587  0.24320670109388942  0.4543226460175376  1.0000
  H   H26       1.0  0.5924092559056716  0.25681994252721546  0.9539719262585109  1.0000
  H   H27       1.0  0.5925747614518501  0.7567924557107233  0.5456751175157848  1.0000
  H   H28       1.0  0.4075910867156339  0.7431803815751367  0.046027976344291205  1.0000
  H   H29       1.0  0.48234386439278853  0.17700067462799035  0.35810029102302104  1.0000
  H   H30       1.0  0.5176086937085601  0.3234000688571257  0.8578990540320744  1.0000
  H   H31       1.0  0.5176534707283266  0.8229984741474681  0.6418974726076243  1.0000
  H   H32       1.0  0.482391648779526  0.6766002553435088  0.1421022745960698  1.0000
  C   C1        1.0  0.19362735010714976  0.007525810475506497  0.8044045751089328  1.0000
  C   C2        1.0  0.8061648605549224  0.4924368439626149  0.3044824301305837  1.0000
  C   C3        1.0  0.8063759998811264  0.9924756890520213  0.1955988924913683  1.0000
  C   C4        1.0  0.19383805248516245  0.5075634881688913  0.6955174723748953  1.0000
  C   C5        1.0  0.22453946176992193  0.010144085163347  0.7051314679668366  1.0000
  C   C6        1.0  0.7752445995410825  0.4898432723567296  0.2052086053951285  1.0000
  C   C7        1.0  0.7754621390268925  0.9898527458120938  0.29487271252026664  1.0000
  C   C8        1.0  0.2247536102090706  0.5101582106701983  0.7947884452857891  1.0000
  C   C9        1.0  0.29094290021784996  0.9424351590171226  0.8649577675165929  1.0000
  C   C10       1.0  0.7089916871048912  0.5576580792326522  0.3650727820361723  1.0000
  C   C11       1.0  0.7090651796946048  0.05756868705132231  0.1350485520513374  1.0000
  C   C12       1.0  0.2910034881112011  0.4423387313259041  0.6349264076055476  1.0000
  C   C13       1.0  0.4262820514783384  0.8867333275320417  0.827944260609641  1.0000
  C   C14       1.0  0.5735533401248887  0.6132600519756295  0.3281083723735422  1.0000
  C   C15       1.0  0.5737157467589783  0.1132704864197791  0.1720620593475957  1.0000
  C   C16       1.0  0.42643540924405704  0.3867367383626004  0.6718886784734792  1.0000
  C   C17       1.0  0.21609690936391956  0.05551607689646689  0.3907243053048504  1.0000
  C   C18       1.0  0.7838967158191538  0.44461419251712897  0.8906190728909279  1.0000
  C   C19       1.0  0.7839025587615609  0.9444819128561267  0.6092748842223443  1.0000
  C   C20       1.0  0.21610018168772166  0.5553837893537406  0.1093822557716138  1.0000
  C   C21       1.0  0.20639767324938418  0.8902870382830556  0.3650257219935256  1.0000
  C   C22       1.0  0.7937193623087497  0.609912858179328  0.8650326325153798  1.0000
  C   C23       1.0  0.793602232223911  0.10971211857069817  0.6349727545524714  1.0000
  C   C24       1.0  0.2062796951031558  0.39008746190844323  0.1349672701360873  1.0000
  S   S1        1.0  0.029093092046892408  0.08103969208512041  0.8456887318097515  1.0000
  S   S2        1.0  0.9705197506351128  0.4187206063407132  0.3457515914757749  1.0000
  S   S3        1.0  0.9709115433505888  0.9189618113095577  0.1543125967038748  1.0000
  S   S4        1.0  0.029488330076610166  0.5812832391380169  0.6542461719401018  1.0000
  S   S5        1.0  0.25179743214280836  0.9266368273203581  0.9864523972832515  1.0000
  S   S6        1.0  0.7485027343376203  0.5737180182788036  0.4865393543856982  1.0000
  S   S7        1.0  0.7482063817609231  0.0733693367938102  0.0135510704915802  1.0000
  S   S8        1.0  0.25149758171603753  0.4262788083380613  0.5134598350613757  1.0000
  N   N1        1.0  0.24822406569159483  0.010087614495077403  0.622564412010604  1.0000
  N   N2        1.0  0.7515465377347255  0.4899209139257437  0.1226511982832577  1.0000
  N   N3        1.0  0.7517723676999991  0.9899057029365749  0.377439055515417  1.0000
  N   N4        1.0  0.24844226436987782  0.5100828716783141  0.877351556951261  1.0000
  N   N5        1.0  0.5389253490913434  0.8400483151547178  0.7970631833408673  1.0000
  N   N6        1.0  0.4608429869161413  0.659828665509501  0.2972382723794809  1.0000
  N   N7        1.0  0.4610813928094614  0.15994853168246687  0.2029381449009051  1.0000
  N   N8        1.0  0.5391585872464262  0.3401646680296011  0.7027659079645616  1.0000
  N   N9        1.0  0.2921836463473326  0.8270332501298299  0.4420623017098393  1.0000
  N   N10       1.0  0.7080878521736695  0.6731311679010403  0.9421607922202355  1.0000
  N   N11       1.0  0.707817107253959  0.17296474344077242  0.5579340357180058  1.0000
  N   N12       1.0  0.29191249044762924  0.3268691562013118  0.05783911038256661  1.0000
  N   N13       1.0  0.4054455657827774  0.14342672879242707  0.4187178883454479  1.0000
  N   N14       1.0  0.5945044943301242  0.35673525247263876  0.9185256858839921  1.0000
  N   N15       1.0  0.5945543396239118  0.8565724281104677  0.5812813012132168  1.0000
  N   N16       1.0  0.40549456301517506  0.6432650676642738  0.0814749297801498  1.0000
