data_image0
_chemical_formula_structural       Zn8H16C80Br24O26
_chemical_formula_sum              "Zn8 H16 C80 Br24 O26"
_cell_length_a       23.912761297757545
_cell_length_b       23.914246312961524
_cell_length_c       23.91240784565478
_cell_angle_alpha    66.86641876063393
_cell_angle_beta     72.33402677418016
_cell_angle_gamma    107.67533697630299

_space_group_name_H-M_alt    "P 1"
_space_group_IT_number       1

loop_
  _space_group_symop_operation_xyz
  'x, y, z'

loop_
  _atom_site_type_symbol
  _atom_site_label
  _atom_site_symmetry_multiplicity
  _atom_site_fract_x
  _atom_site_fract_y
  _atom_site_fract_z
  _atom_site_occupancy
  Zn  Zn1       1.0  0.05732354438283243  0.9577641116259912  0.48492398148732013  1.0000
  Zn  Zn2       1.0  0.0573230802576674  0.0995611404349788  0.45776518826535556  1.0000
  Zn  Zn3       1.0  0.942674424656218  0.9849234025634959  0.45775783250883234  1.0000
  Zn  Zn4       1.0  0.94269049184971  0.9577609246922093  0.599561907440247  1.0000
  Zn  Zn5       1.0  0.9426784198936814  0.5422381327757362  0.015076467894836429  1.0000
  Zn  Zn6       1.0  0.05733129377907882  0.5150820756948207  0.042241878091346136  1.0000
  Zn  Zn7       1.0  0.9426803848571906  0.4004417466303563  0.042240972651654954  1.0000
  Zn  Zn8       1.0  0.05731030338186111  0.5422376150819943  0.9004376240278519  1.0000
  H   H1        1.0  0.9239418012678584  0.6518348286199468  0.11216486013017163  1.0000
  H   H2        1.0  0.07605454151712364  0.6121563573501944  0.15187685254386457  1.0000
  H   H3        1.0  0.9239375875231344  0.887840219698532  0.34813299106618706  1.0000
  H   H4        1.0  0.07600400111891052  0.8480999305874092  0.38790261610159876  1.0000
  H   H5        1.0  0.07607559154992323  0.463874588056612  0.772110998899798  1.0000
  H   H6        1.0  0.9239516575492316  0.2720766635334326  0.9639088521312973  1.0000
  H   H7        1.0  0.07600791913759512  0.22791408494923365  0.5361072154636376  1.0000
  H   H8        1.0  0.923934889248649  0.03610009933972677  0.7279156392635572  1.0000
  H   H9        1.0  0.7359871750762464  0.4638883397916942  0.11213986384129263  1.0000
  H   H10       1.0  0.7359854352536176  0.272081159118372  0.15187458033405216  1.0000
  H   H11       1.0  0.2640242861538906  0.227920174996619  0.34811775231420944  1.0000
  H   H12       1.0  0.2640138993297185  0.03612191272348745  0.3877934431548979  1.0000
  H   H13       1.0  0.26402936586980996  0.6121230379810642  0.9638839161756607  1.0000
  H   H14       1.0  0.2640026086871359  0.6518650266431721  0.7720722491106143  1.0000
  H   H15       1.0  0.7359964302350122  0.8481317523649565  0.727924326325372  1.0000
  H   H16       1.0  0.7359753510009027  0.887812454110353  0.5361238059455077  1.0000
  C   C1        1.0  0.18181089232099618  0.09091492361524436  0.40908583943231497  1.0000
  C   C2        1.0  0.999999795470991  0.13680318434498395  0.3632001771048509  1.0000
  C   C3        1.0  0.999984096474435  0.9090920622303569  0.4091034271630605  1.0000
  C   C4        1.0  0.8181926539588671  0.9090874642264594  0.5909161270134292  1.0000
  C   C5        1.0  4.91143463674987e-06  0.8632019370844829  0.6368031186110343  1.0000
  C   C6        1.0  0.9999905850828271  0.09090171666898764  0.5909112610671912  1.0000
  C   C7        1.0  6.736483044282631e-06  0.5908975149733066  0.09091165902308526  1.0000
  C   C8        1.0  4.676474098596615e-06  0.3632007177258744  0.13680260055350857  1.0000
  C   C9        1.0  0.8181906854052983  0.4090891608640845  0.0908999295867687  1.0000
  C   C10       1.0  0.9999962140405502  0.40908197813258346  0.909109130660383  1.0000
  C   C11       1.0  1.2815245256607376e-06  0.636802007817373  0.863192478616412  1.0000
  C   C12       1.0  0.1818088643090974  0.5908998580399825  0.909084679729915  1.0000
  C   C13       1.0  3.794695636798799e-06  0.8051074131904772  0.694893443177321  1.0000
  C   C14       1.0  1.5200241208123686e-06  0.6948956593972682  0.8051061093924687  1.0000
  C   C15       1.0  0.9570120146326601  0.7768961344589015  0.766091677863777  1.0000
  C   C16       1.0  0.042992688605337934  0.7231073527886381  0.733908483745971  1.0000
  C   C17       1.0  0.9570104525922218  0.7231028339788635  0.8198864053860504  1.0000
  C   C18       1.0  0.042994096765560944  0.7768989427553519  0.6801144770533014  1.0000
  C   C19       1.0  0.999998917194226  0.19489310138062158  0.3051082597505328  1.0000
  C   C20       1.0  7.621621740801423e-06  0.30511285181852793  0.19489283443184044  1.0000
  C   C21       1.0  0.957014536905227  0.18012017777294165  0.2768835025943589  1.0000
  C   C22       1.0  0.04299064089767055  0.3198854492909433  0.2231152049423883  1.0000
  C   C23       1.0  0.95701789905889  0.23391424240735853  0.22309043789847757  1.0000
  C   C24       1.0  0.04298640053065844  0.26609050985966587  0.2769105531780198  1.0000
  C   C25       1.0  1.6375323070158073e-06  0.6283238370042595  0.12834477084506807  1.0000
  C   C26       1.0  0.9570652643648214  0.6569816293407482  0.13465065666655826  1.0000
  C   C27       1.0  0.9572820956773286  0.6916803305571833  0.16947265787441512  1.0000
  C   C28       1.0  0.99998869634274  0.6993833032442395  0.19941407173609352  1.0000
  C   C29       1.0  0.04269694610119499  0.669449563433389  0.19172431632146922  1.0000
  C   C30       1.0  0.04292765201183353  0.6346336513406357  0.15702041214673562  1.0000
  C   C31       1.0  0.9999802341676941  0.7346705313811411  0.23470044629659975  1.0000
  C   C32       1.0  0.999972138963379  0.7652941106119825  0.26534004820212687  1.0000
  C   C33       1.0  0.9999647724307503  0.8005668766268809  0.30063931895879414  1.0000
  C   C34       1.0  0.9572705272399845  0.8305187634289625  0.3083124929657687  1.0000
  C   C35       1.0  0.9570488008601715  0.8653441647021296  0.3430099375360101  1.0000
  C   C36       1.0  0.9999719605859029  0.8716459366737936  0.3716887770008768  1.0000
  C   C37       1.0  0.04288455624160291  0.8429607714305334  0.36540924511939477  1.0000
  C   C38       1.0  0.042654639603597264  0.808246929589714  0.33060177462002827  1.0000
  C   C39       1.0  9.32135230157331e-06  0.3716486264455696  0.871680377350252  1.0000
  C   C40       1.0  0.04294843087254206  0.40827020639510175  0.8000900499585484  1.0000
  C   C41       1.0  0.04272878702889216  0.3732296228187693  0.7656089925708329  1.0000
  C   C42       1.0  1.060866495099925e-05  0.3005852943731782  0.8006196440544145  1.0000
  C   C43       1.0  0.9573074866157183  0.2655782859864996  0.8732603483688737  1.0000
  C   C44       1.0  0.9570820469769854  0.3000562340993226  0.9083007871660203  1.0000
  C   C45       1.0  0.999998440286326  0.26530544997860517  0.7653259026969506  1.0000
  C   C46       1.0  0.9999803901690639  0.23467702798182435  0.7346957090486372  1.0000
  C   C47       1.0  0.9999694474376993  0.19939323477560578  0.699405074874008  1.0000
  C   C48       1.0  0.04266188008303825  0.2344087564625994  0.6267583972515425  1.0000
  C   C49       1.0  0.04288868079347451  0.19993112889886794  0.5917165835442191  1.0000
  C   C50       1.0  0.999974247512526  0.12833341058025363  0.6283410587281751  1.0000
  C   C51       1.0  0.9570501307641095  0.09170969322768485  0.6999343794495516  1.0000
  C   C52       1.0  0.9572722990541107  0.12675020524194733  0.7344155369535132  1.0000
  C   C53       1.0  0.7433312736302894  0.371659768333245  0.12833144262967275  1.0000
  C   C54       1.0  0.7083591131368651  0.40827927153955557  0.13462900157406213  1.0000
  C   C55       1.0  0.638836973327784  0.37323869053864905  0.16944408815731998  1.0000
  C   C56       1.0  0.6012064671277103  0.3005953094424072  0.19938913345758633  1.0000
  C   C57       1.0  0.6388370081573882  0.26558276417013366  0.19170916340467406  1.0000
  C   C58       1.0  0.7083586832456277  0.30006123670680296  0.15700830718710534  1.0000
  C   C59       1.0  0.5306319867712831  0.26530633477975124  0.23466973777293995  1.0000
  C   C60       1.0  0.4693718068653682  0.23468382566464638  0.26528697495533743  1.0000
  C   C61       1.0  0.3987995896768197  0.1994111173152717  0.30055671851124544  1.0000
  C   C62       1.0  0.36116726941936855  0.2344172443004524  0.3082594123390977  1.0000
  C   C63       1.0  0.29165051179941054  0.1999416197160641  0.34296518430758033  1.0000
  C   C64       1.0  0.2566731366220197  0.12834763519699516  0.371632505264806  1.0000
  C   C65       1.0  0.2916394141910459  0.09172636770647809  0.3653114952845158  1.0000
  C   C66       1.0  0.361159468803777  0.12676744401279186  0.33048597190092016  1.0000
  C   C67       1.0  0.25666807714245  0.6283181511537635  0.8716555110038513  1.0000
  C   C68       1.0  0.2916499604964499  0.6346109229387621  0.9082762883321893  1.0000
  C   C69       1.0  0.3611715496364169  0.6694242246340848  0.8732339642556327  1.0000
  C   C70       1.0  0.39879663673507776  0.6993754403858716  0.8005852911067565  1.0000
  C   C71       1.0  0.3611566370493762  0.6916938757098308  0.7655736597501033  1.0000
  C   C72       1.0  0.2916348290181359  0.6569942625708832  0.8000535143522499  1.0000
  C   C73       1.0  0.4693707443942756  0.7346676683523726  0.7652989171795285  1.0000
  C   C74       1.0  0.5306317810743336  0.7652967591554044  0.7346905356609382  1.0000
  C   C75       1.0  0.6012051192086573  0.8005804463483627  0.6994157069440167  1.0000
  C   C76       1.0  0.6388438917363217  0.8082794729124602  0.7344250089319643  1.0000
  C   C77       1.0  0.7083652394041022  0.8429843381648182  0.6999457326851726  1.0000
  C   C78       1.0  0.7433331095604243  0.8716506716704726  0.628348924300461  1.0000
  C   C79       1.0  0.7083551530194825  0.8653363806092642  0.5917258215848876  1.0000
  C   C80       1.0  0.6388337164564818  0.8305144082566471  0.6267706807678834  1.0000
  Br  Br1       1.0  0.8964332954521337  0.8087368694230361  0.7948202600536762  1.0000
  Br  Br2       1.0  0.10357121014745019  0.6912658995780705  0.7051789899368615  1.0000
  Br  Br3       1.0  0.8964321810783815  0.6912585158360187  0.912305432010868  1.0000
  Br  Br4       1.0  0.10357085336005403  0.8087412267323657  0.5876954564150481  1.0000
  Br  Br5       1.0  0.8964339771082026  0.08770444345814334  0.3087156277355589  1.0000
  Br  Br6       1.0  0.1035679519282482  0.41230208964289977  0.19128370649379178  1.0000
  Br  Br7       1.0  0.896447758775153  0.20519182813850284  0.19122933287237498  1.0000
  Br  Br8       1.0  0.10355300678240545  0.2948151070046876  0.30877521354089055  1.0000
  Br  Br9       1.0  0.10160293026704895  0.6766492519755545  0.22961005341350924  1.0000
  Br  Br10      1.0  0.8983703867325376  0.7295479984995055  0.17665849829145922  1.0000
  Br  Br11      1.0  0.10154206554654614  0.7703477581571577  0.3234486694920448  1.0000
  Br  Br12      1.0  0.8984005052422788  0.823356012031347  0.27038416007617627  1.0000
  Br  Br13      1.0  0.8984026771468407  0.16879514423931852  0.9249679586420783  1.0000
  Br  Br14      1.0  0.10163558840078209  0.42493648223028657  0.6688294351824525  1.0000
  Br  Br15      1.0  0.8983938143676795  0.0750353319313815  0.8312055693732033  1.0000
  Br  Br16      1.0  0.10154936995912318  0.3311948266627028  0.5750494410529255  1.0000
  Br  Br17      1.0  0.5937611256867186  0.16879731072745593  0.22961100715730254  1.0000
  Br  Br18      1.0  0.5937636121123474  0.4249495227493654  0.17661706452137338  1.0000
  Br  Br19      1.0  0.4062303722884976  0.07506034489416885  0.32328634035851433  1.0000
  Br  Br20      1.0  0.4062487707991592  0.33120004997519453  0.2703849296316889  1.0000
  Br  Br21      1.0  0.4062201572384863  0.7296019315087888  0.6687847019492922  1.0000
  Br  Br22      1.0  0.40625088570300255  0.6765953067836747  0.9249482558985065  1.0000
  Br  Br23      1.0  0.5937507987616184  0.8233153509107182  0.575063482363987  1.0000
  Br  Br24      1.0  0.593781319871276  0.7704071459864534  0.8312083784237958  1.0000
  O   O1        1.0  2.9832323136001435e-06  3.013470582400189e-06  0.4999994700355472  1.0000
  O   O2        1.0  0.1529826890817176  0.02590859584889662  0.43302629991400476  1.0000
  O   O3        1.0  0.0397105327636709  0.1539774352283487  0.3857162605203399  1.0000
  O   O4        1.0  0.9589196613961304  0.9330284950759232  0.4139900367684464  1.0000
  O   O5        1.0  0.15298568530260329  0.12708400859011698  0.4139926109882738  1.0000
  O   O6        1.0  0.04106132036506694  0.9139935367354751  0.4330320754650073  1.0000
  O   O7        1.0  0.9602819521515824  0.07457700714798664  0.38573115092445687  1.0000
  O   O8        1.0  0.8470148611096419  0.9330204155814882  0.5259112008529527  1.0000
  O   O9        1.0  0.9603109612172034  0.8857265330145765  0.6539798909866333  1.0000
  O   O10       1.0  0.847025195381981  0.9139874031738129  0.6270876772669852  1.0000
  O   O11       1.0  0.039707290483569586  0.8857243295068288  0.5745769911045713  1.0000
  O   O12       1.0  0.0410634115887021  0.1270771426904815  0.5259102243224518  1.0000
  O   O13       1.0  0.9589307142855503  0.025898043450496257  0.6270871886989937  1.0000
  O   O14       1.0  2.169287711107807e-06  0.5000010451506967  1.1246384445514465e-07  1.0000
  O   O15       1.0  0.9589306322479697  0.5859966368997929  0.06698034559487819  1.0000
  O   O16       1.0  0.03972502577104819  0.4254293834495897  0.1142688014880378  1.0000
  O   O17       1.0  0.8470180651624872  0.37291759356728693  0.08600518792619036  1.0000
  O   O18       1.0  0.041080700333907226  0.5669737102454064  0.08601425886362787  1.0000
  O   O19       1.0  0.8470163415795541  0.47409087411990924  0.06696582306617674  1.0000
  O   O20       1.0  0.9602896835977646  0.34602635663278375  0.11428969118799165  1.0000
  O   O21       1.0  0.9589255802996135  0.3729118666642249  0.9741055666513817  1.0000
  O   O22       1.0  0.03968928486385444  0.614268859132757  0.8460181201220183  1.0000
  O   O23       1.0  0.041062096796061036  0.474087516120015  0.872928805504266  1.0000
  O   O24       1.0  0.9603012106583719  0.6142814005717838  0.9254249000733027  1.0000
  O   O25       1.0  0.1529910268249495  0.5669769838361773  0.9740868196912871  1.0000
  O   O26       1.0  0.15297450146385905  0.5860048494155732  0.872914246840601  1.0000
