data_image0
_chemical_formula_structural       NiH42C36N20O6
_chemical_formula_sum              "Ni1 H42 C36 N20 O6"
_cell_length_a       8.477420776884946
_cell_length_b       9.218495206681556
_cell_length_c       13.162141825250231
_cell_angle_alpha    96.59374077626582
_cell_angle_beta     104.42029384936941
_cell_angle_gamma    106.99683134782767

_space_group_name_H-M_alt    "P 1"
_space_group_IT_number       1

loop_
  _space_group_symop_operation_xyz
  'x, y, z'

loop_
  _atom_site_type_symbol
  _atom_site_label
  _atom_site_symmetry_multiplicity
  _atom_site_fract_x
  _atom_site_fract_y
  _atom_site_fract_z
  _atom_site_occupancy
  Ni  Ni1       1.0  0.5000010627922364  0.49999787651226063  0.4999993491966777  1.0000
  H   H1        1.0  0.3337248582495462  0.5211825016106815  0.8262972914469274  1.0000
  H   H2        1.0  0.6662644175336538  0.4788079347460723  0.1737052410625566  1.0000
  H   H3        1.0  0.4872525696853812  0.6815734830483534  0.9269448085384723  1.0000
  H   H4        1.0  0.5127351558387545  0.31841590731651337  0.0730597051141189  1.0000
  H   H5        1.0  0.7623645402569821  0.4376473437134081  0.011826582629524315  1.0000
  H   H6        1.0  0.23762155784726244  0.5623409445088398  0.9881783766164602  1.0000
  H   H7        1.0  0.7542193171583874  0.626416417787034  0.04644965948599379  1.0000
  H   H8        1.0  0.24576869769742163  0.37357062977743277  0.9535547326852624  1.0000
  H   H9        1.0  0.9325701811408393  0.35950317428747514  0.7660920633318113  1.0000
  H   H10       1.0  0.06745959449443009  0.6405401318915763  0.23392159625840492  1.0000
  H   H11       1.0  0.7921743160130248  0.40117685715382817  0.5862214657556636  1.0000
  H   H12       1.0  0.20784560983407374  0.5988665282868979  0.4137869606094426  1.0000
  H   H13       1.0  0.41646611193399957  0.5069121151035887  0.7026896504223501  1.0000
  H   H14       1.0  0.5835178693455133  0.4930620302285077  0.297309450404974  1.0000
  H   H15       1.0  0.8365943400923966  0.3262279785364086  0.3090604008542925  1.0000
  H   H16       1.0  0.16341155711345576  0.6737737319248182  0.6909445856948508  1.0000
  H   H17       1.0  0.7417480588340554  0.22058142204093656  0.17478184679931988  1.0000
  H   H18       1.0  0.2582507266846789  0.779423925546986  0.82522159558075  1.0000
  H   H19       1.0  0.04683255061340218  0.27066181703091974  0.22461558127790937  1.0000
  H   H20       1.0  0.9531659688749982  0.7293374065297797  0.7753797925033936  1.0000
  H   H21       1.0  0.0512471920289741  0.20716636957578063  0.3475663468699892  1.0000
  H   H22       1.0  0.948757744741954  0.7928338182329283  0.6524285107184937  1.0000
  H   H23       1.0  0.891486866574084  0.9066558975036187  0.3261911428486357  1.0000
  H   H24       1.0  0.10851380518093379  0.0933363263517961  0.6738055763322421  1.0000
  H   H25       1.0  0.8071984850013577  0.7967627516446213  0.19276252653109785  1.0000
  H   H26       1.0  0.19279030044011594  0.20323663540384024  0.8072299173496448  1.0000
  H   H27       1.0  0.5868769978936613  0.9209742873756851  0.14746237765339026  1.0000
  H   H28       1.0  0.4131165926895193  0.07903345668115949  0.8525389534828776  1.0000
  H   H29       1.0  0.5777889378820688  0.8518805733300922  0.2672381899779595  1.0000
  H   H30       1.0  0.4222101136241462  0.1481257915538094  0.7327615614154509  1.0000
  H   H31       1.0  0.23588230933216178  0.922228765464638  0.4072947452731981  1.0000
  H   H32       1.0  0.7641128162310125  0.07777152968111523  0.5926956468650246  1.0000
  H   H33       1.0  0.2571776207347298  0.19217394540112312  0.4845341736917987  1.0000
  H   H34       1.0  0.742821188085351  0.8078229353591765  0.515461078608176  1.0000
  H   H35       1.0  0.6954533863996276  0.37182356195113186  0.39081327493601487  1.0000
  H   H36       1.0  0.3045519554870779  0.6281794740145159  0.6091955240811231  1.0000
  H   H37       1.0  0.07135715703871161  0.6984944883692846  0.000993795740143405  1.0000
  H   H38       1.0  0.928633043651807  0.3015083997729207  0.9989998595782338  1.0000
  H   H39       1.0  0.3410921484714819  0.9031606488738363  0.9930231156907752  1.0000
  H   H40       1.0  0.6589097111255243  0.09683408685470599  0.006979273689246704  1.0000
  H   H41       1.0  0.251093772518665  0.2284462700872965  0.1947479447288245  1.0000
  H   H42       1.0  0.7489009713157911  0.771552923536376  0.8052438350715008  1.0000
  C   C1        1.0  0.42626106386753554  0.5540816179122601  0.9066082702762586  1.0000
  C   C2        1.0  0.5737245520029716  0.44590887273356816  0.09339297157680448  1.0000
  C   C3        1.0  0.6745699120202033  0.5028493041320559  0.016720998897433496  1.0000
  C   C4        1.0  0.3254200541350301  0.4971424583496784  0.9832862881487544  1.0000
  C   C5        1.0  0.619723809236241  0.46184781847815504  0.822809840348974  1.0000
  C   C6        1.0  0.38027725549400765  0.5381599293019972  0.1771971431995496  1.0000
  C   C7        1.0  0.8192899425908066  0.39631816069528714  0.7541229525642379  1.0000
  C   C8        1.0  0.18074178837644436  0.603723932901346  0.24589090772610686  1.0000
  C   C9        1.0  0.741061929525422  0.41603210569751786  0.6528881313884654  1.0000
  C   C10       1.0  0.2589670288357908  0.58400558119029  0.3471303374816017  1.0000
  C   C11       1.0  0.5351776170866814  0.47928597608384393  0.7192887782381873  1.0000
  C   C12       1.0  0.4648166566974367  0.5207078509268681  0.2807147208156522  1.0000
  C   C13       1.0  0.8050364590325642  0.21361456487353792  0.25744995074208527  1.0000
  C   C14       1.0  0.19497012446989692  0.7863892924811038  0.7425507249331388  1.0000
  C   C15       1.0  0.9756753940784291  0.1853064371720237  0.2628805052220784  1.0000
  C   C16       1.0  0.024325250299824606  0.8146950742794558  0.7371153386282714  1.0000
  C   C17       1.0  0.829353674427466  0.908600168306819  0.24222854574409777  1.0000
  C   C18       1.0  0.17063934555749685  0.0914004063514611  0.7577676400052126  1.0000
  C   C19       1.0  0.6581749447950856  0.9356399550089237  0.23260312072651604  1.0000
  C   C20       1.0  0.3418216965221603  0.0643605372849194  0.7673935879043726  1.0000
  C   C21       1.0  0.5745430018808051  0.11690729038016201  0.3418254750955256  1.0000
  C   C22       1.0  0.4254644496166761  0.883089538573273  0.6581748361357072  1.0000
  C   C23       1.0  0.3384257858147635  0.0218565434812632  0.40079524954916934  1.0000
  C   C24       1.0  0.6615717001533026  0.9781402805077587  0.5991975251323964  1.0000
  C   C25       1.0  0.34818148989852193  0.17019744463959796  0.4448256431766707  1.0000
  C   C26       1.0  0.6518193514143604  0.8297982796890081  0.5551713453731253  1.0000
  C   C27       1.0  0.5900220522460913  0.2693390815087541  0.38898867024283135  1.0000
  C   C28       1.0  0.4099845972135512  0.7306555163251787  0.6110136485377708  1.0000
  C   C29       1.0  0.054225900242400475  0.9967466326706573  0.15327833135361865  1.0000
  C   C30       1.0  0.9457650720135362  0.003251710247568004  0.846718919876352  1.0000
  C   C31       1.0  0.11122871042467607  0.8182797045294592  0.043785210487335705  1.0000
  C   C32       1.0  0.8887638273265424  0.1817230725524013  0.9562072578690531  1.0000
  C   C33       1.0  0.2592507612125983  0.9302760095415646  0.03924873573416926  1.0000
  C   C34       1.0  0.7407411714354026  0.06971874929792683  0.9607468848710355  1.0000
  C   C35       1.0  0.20766622327629136  0.11002592054322952  0.1494841210803202  1.0000
  C   C36       1.0  0.7923307459530448  0.889972257025576  0.8505132338440902  1.0000
  N   N1        1.0  0.5600101900770227  0.4830331023241711  0.908769286702153  1.0000
  N   N2        1.0  0.4399788887715487  0.5169631211554558  0.09123210110788453  1.0000
  N   N3        1.0  0.7645997234546371  0.4228896658808949  0.8386424564839743  1.0000
  N   N4        1.0  0.23540562560316394  0.5771286132558657  0.1613689291523031  1.0000
  N   N5        1.0  0.5996206982475627  0.4601647190572109  0.6374783581920198  1.0000
  N   N6        1.0  0.4003882030468233  0.5398415665650235  0.3625266264265079  1.0000
  N   N7        1.0  0.6863539733688456  0.09091068439598618  0.28937255759075964  1.0000
  N   N8        1.0  0.31365502435514253  0.9090931180490288  0.7106284666721763  1.0000
  N   N9        1.0  0.9467404549715255  0.0298024276568967  0.20767811180635226  1.0000
  N   N10       1.0  0.05325331323464872  0.970196961873775  0.7923181003492205  1.0000
  N   N11       1.0  0.4474681911614624  0.9936998300664612  0.34987923883804234  1.0000
  N   N12       1.0  0.5525372278432101  0.0062981553186674056  0.6501193361433693  1.0000
  N   N13       1.0  0.4764404275834764  0.29311982662470376  0.43770247138355234  1.0000
  N   N14       1.0  0.5235610269406051  0.7068771676781508  0.5622977361532479  1.0000
  N   N15       1.0  0.01048443134799733  0.8492821079668788  0.10056076124575242  1.0000
  N   N16       1.0  0.9895093754385939  0.1507173096391554  0.8994362186846772  1.0000
  N   N17       1.0  0.30777543907454696  0.0766322393224641  0.09369089513091922  1.0000
  N   N18       1.0  0.6922179474029163  0.9233660486861409  0.9063067046867701  1.0000
  N   N19       1.0  0.9156364082041931  0.6582394518403945  0.4306470784757934  1.0000
  N   N20       1.0  0.0843664776991844  0.3417373335574679  0.5693435637994  1.0000
  O   O1        1.0  0.838512668233399  0.5962046209890202  0.4944362523089936  1.0000
  O   O2        1.0  0.1614899619921246  0.4038075609547747  0.5055659483659412  1.0000
  O   O3        1.0  0.8715745746138237  0.5875608383706492  0.33371523605687503  1.0000
  O   O4        1.0  0.128397594374448  0.4123993556344274  0.6662758442260782  1.0000
  O   O5        1.0  0.03300713433925747  0.7885697920820077  0.4637075598261617  1.0000
  O   O6        1.0  0.9670290612177722  0.21138807710236304  0.5362698990795495  1.0000
