data_image0
_chemical_formula_structural       CuNiH12C12N8
_chemical_formula_sum              "Cu1 Ni1 H12 C12 N8"
_cell_length_a       6.912610353467113
_cell_length_b       7.3428220051289905
_cell_length_c       8.765399647645097
_cell_angle_alpha    112.48450369501258
_cell_angle_beta     112.62588575235858
_cell_angle_gamma    92.9518369343493

_space_group_name_H-M_alt    "P 1"
_space_group_IT_number       1

loop_
  _space_group_symop_operation_xyz
  'x, y, z'

loop_
  _atom_site_type_symbol
  _atom_site_label
  _atom_site_symmetry_multiplicity
  _atom_site_fract_x
  _atom_site_fract_y
  _atom_site_fract_z
  _atom_site_occupancy
  Cu  Cu1       1.0  0.5000006442456737  0.49999525411822543  0.5000014683972864  1.0000
  Ni  Ni1       1.0  0.9999871880790611  0.9999988154375856  0.49999674506360503  1.0000
  H   H1        1.0  0.15339046938576928  0.20330771993647548  0.09237405376655522  1.0000
  H   H2        1.0  0.8466148538340478  0.7966951102134985  0.9076181437003827  1.0000
  H   H3        1.0  0.26678065580484406  0.07908318145683783  0.8006811072420207  1.0000
  H   H4        1.0  0.7332241399978231  0.9209242178689652  0.19931017281958682  1.0000
  H   H5        1.0  0.8138210454571464  0.4588645887441204  0.29472417769707  1.0000
  H   H6        1.0  0.18618707792906264  0.541121356263247  0.7052826191966801  1.0000
  H   H7        1.0  0.6304115053921749  0.30554673709786334  0.8126739569636571  1.0000
  H   H8        1.0  0.3695991976061421  0.6944635290055177  0.1873347954996661  1.0000
  H   H9        1.0  0.7090855988935659  0.09245036973295842  0.848571767107515  1.0000
  H   H10       1.0  0.2909254182263653  0.9075554098339612  0.15143102182582188  1.0000
  H   H11       1.0  0.8651989839677158  0.34485464719642084  0.012896983551371487  1.0000
  H   H12       1.0  0.1348051978610556  0.65514801274481  0.9871085268183606  1.0000
  C   C1        1.0  0.3066631183750204  0.23715242318534988  0.09081515376068694  1.0000
  C   C2        1.0  0.693337471170885  0.7628547685252728  0.9091908349131826  1.0000
  C   C3        1.0  0.3604300580941527  0.17657813472111883  0.9463565202684805  1.0000
  C   C4        1.0  0.6395704750188786  0.823423054933258  0.05364289647286576  1.0000
  C   C5        1.0  0.6486261904642348  0.3738651005041688  0.20312068404142272  1.0000
  C   C6        1.0  0.35138161919666544  0.626133013894439  0.796885494846741  1.0000
  C   C7        1.0  0.7025540524707523  0.25050582017421874  0.9168029746459682  1.0000
  C   C8        1.0  0.2974651751142474  0.7495014995624487  0.08320266752902243  1.0000
  C   C9        1.0  0.8172465627881706  0.8455621865989899  0.533798763768722  1.0000
  C   C10       1.0  0.18273252510878996  0.1544283490301837  0.4661898597184546  1.0000
  C   C11       1.0  0.11155219975749725  0.7780691673985841  0.4211892725015359  1.0000
  C   C12       1.0  0.8884256467149357  0.22194096762851256  0.5788123452826  1.0000
  N   N1        1.0  0.4879094051089228  0.3596545091444698  0.24967167821942848  1.0000
  N   N2        1.0  0.5120874939539989  0.6403391806203377  0.7503173666061188  1.0000
  N   N3        1.0  0.5762610907987237  0.265212244437926  0.019523577639745323  1.0000
  N   N4        1.0  0.42375912674005195  0.7347980099257188  0.9804913090981772  1.0000
  N   N5        1.0  0.699518187815798  0.7386621567924152  0.5473654889160713  1.0000
  N   N6        1.0  0.3004708207253658  0.261329868843582  0.45263102407079  1.0000
  N   N7        1.0  0.17710617676868168  0.6330873387218573  0.3699527108266665  1.0000
  N   N8        1.0  0.8228880990815243  0.36690780160984093  0.6300406317559748  1.0000
