data_image0
_chemical_formula_structural       Sr4H28C20N12O24
_chemical_formula_sum              "Sr4 H28 C20 N12 O24"
_cell_length_a       6.954203611302668
_cell_length_b       10.535727441013535
_cell_length_c       12.178205156316244
_cell_angle_alpha    90.00018120151498
_cell_angle_beta     95.7727772847166
_cell_angle_gamma    90.00001232590827

_space_group_name_H-M_alt    "P 1"
_space_group_IT_number       1

loop_
  _space_group_symop_operation_xyz
  'x, y, z'

loop_
  _atom_site_type_symbol
  _atom_site_label
  _atom_site_symmetry_multiplicity
  _atom_site_fract_x
  _atom_site_fract_y
  _atom_site_fract_z
  _atom_site_occupancy
  Sr  Sr1       1.0  0.2500215587513778  0.38981841500734044  0.0196881614912527  1.0000
  Sr  Sr2       1.0  0.7499785315691484  0.8898170423008406  0.4803138277573993  1.0000
  Sr  Sr3       1.0  0.7499786692323624  0.6101818310134063  0.9803122234495373  1.0000
  Sr  Sr4       1.0  0.2500216790868706  0.11018320371840673  0.5196857351080907  1.0000
  H   H1        1.0  0.23750961503335324  0.7678744966477565  0.3230430842426699  1.0000
  H   H2        1.0  0.7624989962636731  0.2678746211145082  0.17695653856087998  1.0000
  H   H3        1.0  0.7624891850727024  0.2321248002229055  0.6769580496085439  1.0000
  H   H4        1.0  0.2375012143927222  0.7321265740561032  0.8230430243059245  1.0000
  H   H5        1.0  0.42907391175939574  0.8014096150267206  0.1527204990954232  1.0000
  H   H6        1.0  0.5709274832099921  0.3014103342401099  0.347278029098092  1.0000
  H   H7        1.0  0.5709277960840708  0.19858873269456723  0.8472816031568866  1.0000
  H   H8        1.0  0.4290712822409972  0.6985899117789032  0.6527214606038355  1.0000
  H   H9        1.0  0.3084444371300634  0.8766078032785242  0.03375483542424009  1.0000
  H   H10       1.0  0.6915570184380259  0.3766051785413183  0.4662439019380145  1.0000
  H   H11       1.0  0.6915586985910808  0.12339149359285528  0.9662465179176465  1.0000
  H   H12       1.0  0.30844320954495436  0.6233931691767155  0.5337564830001398  1.0000
  H   H13       1.0  0.40128325251384916  0.1080724618409192  0.0878644181733108  1.0000
  H   H14       1.0  0.5987165934290529  0.608073665159793  0.41213596529119195  1.0000
  H   H15       1.0  0.5987169927976268  0.8919277841813339  0.9121367888427796  1.0000
  H   H16       1.0  0.4012807268168999  0.3919265808589785  0.5878634512471805  1.0000
  H   H17       1.0  0.24004480499561248  0.35218682695725073  0.7388670776052209  1.0000
  H   H18       1.0  0.7599529172498051  0.8521894000371047  0.761134696096043  1.0000
  H   H19       1.0  0.7599554229881349  0.6478134190635032  0.2611333073355695  1.0000
  H   H20       1.0  0.24004875593897168  0.14781084598389066  0.23886576200830936  1.0000
  H   H21       1.0  0.18811229401948987  0.10282541948269847  0.0232915397070315  1.0000
  H   H22       1.0  0.8118889582435073  0.6028240426556407  0.4767072581715225  1.0000
  H   H23       1.0  0.8118865060869564  0.8971748265393199  0.9767095941455038  1.0000
  H   H24       1.0  0.1881112524121278  0.3971752542122502  0.523292304692653  1.0000
  H   H25       1.0  0.4069178385701234  0.43286196702297985  0.7990029913939197  1.0000
  H   H26       1.0  0.5930813592400593  0.9328680923949052  0.7009974357334697  1.0000
  H   H27       1.0  0.5930809442085875  0.5671382789975326  0.2009973203833155  1.0000
  H   H28       1.0  0.4069188514163357  0.0671331027756992  0.2990021271333418  1.0000
  C   C1        1.0  0.1266717705994864  0.8191522971409951  0.2719179019674982  1.0000
  C   C2        1.0  0.8733354368162835  0.3191535739210352  0.2280817903098721  1.0000
  C   C3        1.0  0.8733284400561486  0.18084699972689577  0.7280816608966775  1.0000
  C   C4        1.0  0.1266647911674639  0.6808466720997187  0.7719185946309183  1.0000
  C   C5        1.0  0.8783327039585841  0.9211015309143631  0.20755929051179575  1.0000
  C   C6        1.0  0.12166735959041829  0.42110388216059397  0.29244031953411553  1.0000
  C   C7        1.0  0.12166896923018558  0.0788987151066252  0.7924411675925496  1.0000
  C   C8        1.0  0.8783314058613311  0.5788982621611327  0.7075591701704552  1.0000
  C   C9        1.0  0.29266934722630106  0.8065804835850086  0.09908802793159309  1.0000
  C   C10       1.0  0.7073334797867618  0.3065795205662099  0.40090976573127796  1.0000
  C   C11       1.0  0.7073337884948502  0.19341881328636387  0.9009133254102933  1.0000
  C   C12       1.0  0.29266673086925005  0.6934207254530379  0.5990897971342121  1.0000
  C   C13       1.0  0.25485936395859443  0.6763805476876072  0.0467414797446679  1.0000
  C   C14       1.0  0.7451390051873616  0.17637978160546197  0.453254910184718  1.0000
  C   C15       1.0  0.7451423092301752  0.32361969833338117  0.9532589783596774  1.0000
  C   C16       1.0  0.2548611881405449  0.8236195152609227  0.5467438306041501  1.0000
  C   C17       1.0  0.6854931568793461  0.9850202080628776  0.2028611976360892  1.0000
  C   C18       1.0  0.31450993523050386  0.48502735047667744  0.2971428469180992  1.0000
  C   C19       1.0  0.3145084989813184  0.014979088805247898  0.7971384383916414  1.0000
  C   C20       1.0  0.6854873503603827  0.5149738446904378  0.7028549254709944  1.0000
  N   N1        1.0  0.1415961573466973  0.8466575596776098  0.16485592712538016  1.0000
  N   N2        1.0  0.8584096270298927  0.3466592257464853  0.33514376849837646  1.0000
  N   N3        1.0  0.8584055158416889  0.15334173719202226  0.8351445309776506  1.0000
  N   N4        1.0  0.14159060095384754  0.6533410202742616  0.6648566164424137  1.0000
  N   N5        1.0  0.9616169029661279  0.8648587964275049  0.301770577149206  1.0000
  N   N6        1.0  0.0383860229968818  0.36486268930416077  0.19822984485490744  1.0000
  N   N7        1.0  0.03838332501722871  0.1351405004418922  0.6982298077902627  1.0000
  N   N8        1.0  0.9616141876591298  0.6351375567150866  0.8017697180105827  1.0000
  N   N9        1.0  0.9832246961161032  0.9113346143304494  0.1217977492225089  1.0000
  N   N10       1.0  0.016775376889874793  0.4113372638142252  0.3782026557311936  1.0000
  N   N11       1.0  0.016776977072666496  0.08866563169053879  0.8782027088818366  1.0000
  N   N12       1.0  0.9832219606845809  0.5886648805087658  0.6217975828851222  1.0000
  O   O1        1.0  0.3882671847737455  0.6287984875367627  0.9957764691818126  1.0000
  O   O2        1.0  0.6117360169742196  0.12879795832971294  0.5042192212589923  1.0000
  O   O3        1.0  0.6117344710872956  0.3712017584827265  0.004223166847232614  1.0000
  O   O4        1.0  0.3882656215590997  0.8712022876882696  0.4957795926947525  1.0000
  O   O5        1.0  0.09628810600406722  0.6208523535756072  0.057322076569718695  1.0000
  O   O6        1.0  0.903714554007635  0.12084967371146858  0.44267437838889373  1.0000
  O   O7        1.0  0.9037121046515607  0.3791469432922838  0.9426774862944498  1.0000
  O   O8        1.0  0.0962870671975722  0.8791496231536583  0.5573236134882292  1.0000
  O   O9        1.0  0.6271681724971073  0.04792291309958329  0.11769542630359099  1.0000
  O   O10       1.0  0.3728316423006817  0.5479239742819287  0.382305611922348  1.0000
  O   O11       1.0  0.3728334833639336  0.9520773329198986  0.8823042097254543  1.0000
  O   O12       1.0  0.6271656952741509  0.4520791191924188  0.6176946266952896  1.0000
  O   O13       1.0  0.5942561010164196  0.9689920379011381  0.2879064517027601  1.0000
  O   O14       1.0  0.4057425559237088  0.46900078099382353  0.21209321840206027  1.0000
  O   O15       1.0  0.40574410963921537  0.0310072589667527  0.7120931111614082  1.0000
  O   O16       1.0  0.59425768938776  0.5309994650284294  0.7879079886140303  1.0000
  O   O17       1.0  0.2991669252873593  0.3736197538009236  0.8131015639158361  1.0000
  O   O18       1.0  0.7008322594362965  0.873624894242937  0.6869003425709792  1.0000
  O   O19       1.0  0.7008318574909751  0.6263795430682323  0.18689874786007718  1.0000
  O   O20       1.0  0.29916943108020183  0.12637535177955778  0.3131009376086737  1.0000
  O   O21       1.0  0.2740710417241843  0.15345515302625048  0.0755577184662712  1.0000
  O   O22       1.0  0.7259302686682644  0.6534554708109822  0.4244420423230223  1.0000
  O   O23       1.0  0.7259277410541499  0.8465441438429052  0.9244425933096423  1.0000
  O   O24       1.0  0.27406849678234113  0.34654382605666706  0.5755574473775907  1.0000
