data_image0
_chemical_formula_structural       Cd2H16C24S4N8Cl4
_chemical_formula_sum              "Cd2 H16 C24 S4 N8 Cl4"
_cell_length_a       5.784978931802728
_cell_length_b       9.466207065489263
_cell_length_c       14.753491361934907
_cell_angle_alpha    99.98188854209255
_cell_angle_beta     89.9971474193441
_cell_angle_gamma    90.00034145385011

_space_group_name_H-M_alt    "P 1"
_space_group_IT_number       1

loop_
  _space_group_symop_operation_xyz
  'x, y, z'

loop_
  _atom_site_type_symbol
  _atom_site_label
  _atom_site_symmetry_multiplicity
  _atom_site_fract_x
  _atom_site_fract_y
  _atom_site_fract_z
  _atom_site_occupancy
  Cd  Cd1       1.0  0.49998611987336244  0.49999761724589586  0.4999950368289064  1.0000
  Cd  Cd2       1.0  1.2100289076500002e-05  4.2900458013e-06  5.163197797999999e-07  1.0000
  H   H1        1.0  0.736919355622362  0.8117379029231628  0.538106550753561  1.0000
  H   H2        1.0  0.23691262698945076  0.6882625664570341  0.9618941100819571  1.0000
  H   H3        1.0  0.2630580698828737  0.18825730046056324  0.46188487486260504  1.0000
  H   H4        1.0  0.7630976409845684  0.3117354189785644  0.03811663067193651  1.0000
  H   H5        1.0  0.3352715823402193  0.1250317245950043  0.7204895425868971  1.0000
  H   H6        1.0  0.8352880233164086  0.37497512741670397  0.7795162896000392  1.0000
  H   H7        1.0  0.6647300431640772  0.8749654060664798  0.2795116050763866  1.0000
  H   H8        1.0  0.164718787621112  0.6250293708631389  0.2204918458227922  1.0000
  H   H9        1.0  0.056239259639618  0.9282012527348231  0.737028124555181  1.0000
  H   H10       1.0  0.5562534633830863  0.5718003898580336  0.7629816327360998  1.0000
  H   H11       1.0  0.9437640943400255  0.07178616309590072  0.26297456512224227  1.0000
  H   H12       1.0  0.443753347715294  0.42820738817148646  0.2370241859971003  1.0000
  H   H13       1.0  0.12980842757627187  0.680996975449304  0.64909613294315  1.0000
  H   H14       1.0  0.6298239842856718  0.819008818869868  0.8509147194278344  1.0000
  H   H15       1.0  0.8701776406918073  0.31900133660212765  0.3509004119501071  1.0000
  H   H16       1.0  0.37018801237103094  0.18099456023616511  0.1490953148483172  1.0000
  C   C1        1.0  0.9937733289273041  0.5709866487314629  0.3994885593134043  1.0000
  C   C2        1.0  0.49375050104922735  0.9290164538404466  0.10050268216547655  1.0000
  C   C3        1.0  0.0061971818757911  0.4290170570011682  0.6005072792723851  1.0000
  C   C4        1.0  0.5062666822596356  0.0709764800725097  0.8994938928772883  1.0000
  C   C5        1.0  0.5884752912996447  0.840694076011197  0.583136093310948  1.0000
  C   C6        1.0  0.08848439157227972  0.6593099358357294  0.9168617950993153  1.0000
  C   C7        1.0  0.4115055912849925  0.15930751579313812  0.41685813494376595  1.0000
  C   C8        1.0  0.9115397059990541  0.3406904434565946  0.08313838766240882  1.0000
  C   C9        1.0  0.5560476698245295  0.9815638959419176  0.6284465987580816  1.0000
  C   C10       1.0  0.0560526585003558  0.5184391304570755  0.8715497714138678  1.0000
  C   C11       1.0  0.44394358445585885  0.018435550829281104  0.3715473711749766  1.0000
  C   C12       1.0  0.9439627959971445  0.48156124884062734  0.1284504114329934  1.0000
  C   C13       1.0  0.36348782206999897  0.015756831114913397  0.6848366379817108  1.0000
  C   C14       1.0  0.8635006842537294  0.484252208529675  0.8151655165582596  1.0000
  C   C15       1.0  0.6365103462905494  0.984240330653556  0.3151631577061949  1.0000
  C   C16       1.0  0.13650439815123863  0.5157533933694153  0.1848413959819126  1.0000
  C   C17       1.0  0.2084274491260274  0.9061041667109895  0.6933224855971645  1.0000
  C   C18       1.0  0.7084363049755851  0.5939048405056796  0.80668314929531  1.0000
  C   C19       1.0  0.7915741763746881  0.09389403646382992  0.3066787911758553  1.0000
  C   C20       1.0  0.2915635913777521  0.40609853860788553  0.1933268851000349  1.0000
  C   C21       1.0  0.24971787050738203  0.7684759841624357  0.6452011887675227  1.0000
  C   C22       1.0  0.7497304539782162  0.7315297074058124  0.8548052733251907  1.0000
  C   C23       1.0  0.7502733834369976  0.2315211931627631  0.3547979309837714  1.0000
  C   C24       1.0  0.2502746281407795  0.2684714955730243  0.1452058548090136  1.0000
  S   S1        1.0  0.739255721079431  0.6258586150186575  0.3731917409635983  1.0000
  S   S2        1.0  0.2392498331439441  0.8741126914873194  0.12679793719839694  1.0000
  S   S3        1.0  0.2607338044110392  0.37414184205729145  0.6268050621150892  1.0000
  S   S4        1.0  0.7607725362379938  0.1258760301311455  0.8731947413307424  1.0000
  N   N1        1.0  0.17808891357973514  0.5280192094462637  0.41610156302873963  1.0000
  N   N2        1.0  0.6781223322462608  0.9719588105119501  0.08388130636883058  1.0000
  N   N3        1.0  0.8218591254708939  0.4719899521815448  0.5838908652988408  1.0000
  N   N4        1.0  0.3219086807707328  0.0280419264816487  0.9161033282163302  1.0000
  N   N5        1.0  0.43669331622145796  0.7365029031400923  0.5911556714759172  1.0000
  N   N6        1.0  0.936702783664778  0.7635014984933265  0.9088463019960855  1.0000
  N   N7        1.0  0.5632875664489702  0.26349871976907485  0.4088372047693697  1.0000
  N   N8        1.0  0.0633126704037679  0.2364987252802138  0.0911606408979182  1.0000
  Cl  Cl1       1.0  0.7547682022393474  0.11120235124854362  0.6128501885689559  1.0000
  Cl  Cl2       1.0  0.2547674812399022  0.3888005287634898  0.887147249250596  1.0000
  Cl  Cl3       1.0  0.24523169520424656  0.8887960541087735  0.3871423001598018  1.0000
  Cl  Cl4       1.0  0.7452358722857682  0.6111942391364097  0.1128631042421802  1.0000
