data_image0
_chemical_formula_structural       SrFe2H16C28N4O18
_chemical_formula_sum              "Sr1 Fe2 H16 C28 N4 O18"
_cell_length_a       7.914289979560585
_cell_length_b       9.329262233604547
_cell_length_c       11.633585164339147
_cell_angle_alpha    104.86185239018101
_cell_angle_beta     98.53064311236193
_cell_angle_gamma    111.20771937098432

_space_group_name_H-M_alt    "P 1"
_space_group_IT_number       1

loop_
  _space_group_symop_operation_xyz
  'x, y, z'

loop_
  _atom_site_type_symbol
  _atom_site_label
  _atom_site_symmetry_multiplicity
  _atom_site_fract_x
  _atom_site_fract_y
  _atom_site_fract_z
  _atom_site_occupancy
  Sr  Sr1       1.0  0.999999597555288  0.9999988764047107  0.99999858251671  1.0000
  Fe  Fe1       1.0  0.5212350901849021  0.23111199225443363  0.7620772801675313  1.0000
  Fe  Fe2       1.0  0.47876135689843125  0.7688856371997234  0.2379233030848411  1.0000
  H   H1        1.0  0.14745913676262762  0.6509474328192654  0.9161845827627387  1.0000
  H   H2        1.0  0.8525441986006256  0.34905387498291424  0.08381488904695539  1.0000
  H   H3        1.0  0.9552053271953299  0.3591067911244466  0.7817620787858884  1.0000
  H   H4        1.0  0.04479786898237859  0.640899616668577  0.2182238550920346  1.0000
  H   H5        1.0  0.796177950989488  0.47780277355168727  0.6715188013315228  1.0000
  H   H6        1.0  0.20382173214565572  0.5221936438661957  0.32848012397734994  1.0000
  H   H7        1.0  0.11469716237787961  0.18233400675595132  0.7078252660218212  1.0000
  H   H8        1.0  0.8853041414481237  0.8176710518590512  0.2921696482644053  1.0000
  H   H9        1.0  0.8188606065428627  0.4836600940143471  0.46015022984966686  1.0000
  H   H10       1.0  0.18113857696774016  0.5163326921042853  0.5398452913995442  1.0000
  H   H11       1.0  0.5770163985034102  0.2521676235854572  0.2744223474131573  1.0000
  H   H12       1.0  0.42297273772886956  0.7478201886966716  0.725579713307063  1.0000
  H   H13       1.0  0.753264233888515  0.06083109636420403  0.1675613710586248  1.0000
  H   H14       1.0  0.24675727810036116  0.9391786643192008  0.8324442840953166  1.0000
  H   H15       1.0  0.9555989003621759  0.12897728136286454  0.25008045100895515  1.0000
  H   H16       1.0  0.04442100585711023  0.8710239230647902  0.7499232174054881  1.0000
  C   C1        1.0  0.2773423050024136  0.9946616166085037  0.2757888810869886  1.0000
  C   C2        1.0  0.7226522710453196  0.0053347850124368  0.7242121143420589  1.0000
  C   C3        1.0  0.42080871523842933  0.1385165062907134  0.5066060731169202  1.0000
  C   C4        1.0  0.5791811762930265  0.8614860183572618  0.49339662640714715  1.0000
  C   C5        1.0  0.27412555922378334  0.013706301803793501  0.5398278108092923  1.0000
  C   C6        1.0  0.725865613875655  0.986296254096004  0.4601724433326168  1.0000
  C   C7        1.0  0.4252681804994792  0.13150355546934384  0.385988953529285  1.0000
  C   C8        1.0  0.5747293642024545  0.8684989504033853  0.6140136396955852  1.0000
  C   C9        1.0  0.6958101719074462  0.5618497717130566  0.8984090119251106  1.0000
  C   C10       1.0  0.30419130734148336  0.43815039319726884  0.10158487429911392  1.0000
  C   C11       1.0  0.41132614619905183  0.6305548727467284  0.9125120584426937  1.0000
  C   C12       1.0  0.5886734470930151  0.3694439793890183  0.08748823772034338  1.0000
  C   C13       1.0  0.4910096119686927  0.5234033213976235  0.8681249684299172  1.0000
  C   C14       1.0  0.5089887938617039  0.4765930890374007  0.13187468861478638  1.0000
  C   C15       1.0  0.2148680911943687  0.5721264556460144  0.8811755256461352  1.0000
  C   C16       1.0  0.7851302375826065  0.42787246231375786  0.1188203613137517  1.0000
  C   C17       1.0  0.5357824244694881  0.8054675442504122  0.9897938069845365  1.0000
  C   C18       1.0  0.4642215795464111  0.19453246474291316  0.010210611292293933  1.0000
  C   C19       1.0  0.10773578769002512  0.41103307252586774  0.8053203373627084  1.0000
  C   C20       1.0  0.8922594119310999  0.5889647198281479  0.19466898210121994  1.0000
  C   C21       1.0  0.6926988098898974  0.3827332601270824  0.5889784141495155  1.0000
  C   C22       1.0  0.3073000998282538  0.617266805876163  0.4110229333085228  1.0000
  C   C23       1.0  0.1952128353681246  0.309664086800531  0.7643289412922555  1.0000
  C   C24       1.0  0.8047874521559136  0.6903336121401156  0.2356660194599627  1.0000
  C   C25       1.0  0.7040810731916736  0.38377680957619725  0.4706797509539554  1.0000
  C   C26       1.0  0.2959167325130495  0.6162183436050342  0.5293221570010758  1.0000
  C   C27       1.0  0.5706706190462683  0.2572100580042829  0.36811696763496116  1.0000
  C   C28       1.0  0.429318858440503  0.7427863763576212  0.6318826706216142  1.0000
  N   N1        1.0  0.3831640306196036  0.3651990979362765  0.796321951163179  1.0000
  N   N2        1.0  0.6168373438649793  0.6348034167505503  0.20367930367734732  1.0000
  N   N3        1.0  0.5536544417043742  0.26168086242614663  0.6060745978870941  1.0000
  N   N4        1.0  0.4463374064425382  0.7383204310682319  0.3939280322524681  1.0000
  O   O1        1.0  0.3008084383467135  0.048156201756860605  0.6599990968749052  1.0000
  O   O2        1.0  0.699191658833115  0.9518463059471003  0.34000288970145925  1.0000
  O   O3        1.0  0.730001689059108  0.435641183567519  0.8523140578385477  1.0000
  O   O4        1.0  0.2699978250479376  0.5643601639584901  0.14768332506283594  1.0000
  O   O5        1.0  0.5509007979030259  0.8537220654285209  0.10639459649816982  1.0000
  O   O6        1.0  0.44910390034483794  0.14627679036970428  0.8936044863678487  1.0000
  O   O7        1.0  0.30103676988235145  0.8652131646013005  0.23101472087780914  1.0000
  O   O8        1.0  0.6989608667942732  0.1347869186880502  0.7689856446697333  1.0000
  O   O9        1.0  0.13997256850948495  0.017317036323810008  0.22902822506232912  1.0000
  O   O10       1.0  0.8600013448300957  0.982668342387527  0.7709752478716041  1.0000
  O   O11       1.0  0.6203687270280083  0.8987188409773949  0.9367000053160124  1.0000
  O   O12       1.0  0.37963009284706567  0.1012836597437072  0.0633027129961903  1.0000
  O   O13       1.0  0.821354482786461  0.6989053289122256  0.9619448008935763  1.0000
  O   O14       1.0  0.17864963452022664  0.3010923788425189  0.0380488214742982  1.0000
  O   O15       1.0  0.1424833521983119  0.8926629127192316  0.4626697303377796  1.0000
  O   O16       1.0  0.8575141882403938  0.10733956888453383  0.5373345765334178  1.0000
  O   O17       1.0  0.8821628445690023  0.1435494097418371  0.1821825183566261  1.0000
  O   O18       1.0  0.11785797958273057  0.8564615405401172  0.8178259017386366  1.0000
