data_image0
_chemical_formula_structural       U4H8C4O12F12
_chemical_formula_sum              "U4 H8 C4 O12 F12"
_cell_length_a       5.995930085661727
_cell_length_b       8.613225827759688
_cell_length_c       9.228658781109344
_cell_angle_alpha    95.63713677021643
_cell_angle_beta     108.94836377516437
_cell_angle_gamma    90.00259008543667

_space_group_name_H-M_alt    "P 1"
_space_group_IT_number       1

loop_
  _space_group_symop_operation_xyz
  'x, y, z'

loop_
  _atom_site_type_symbol
  _atom_site_label
  _atom_site_symmetry_multiplicity
  _atom_site_fract_x
  _atom_site_fract_y
  _atom_site_fract_z
  _atom_site_occupancy
  U   U1        1.0  0.291358991210778  0.6315684223331247  0.34405656166090626  1.0000
  U   U2        1.0  0.9472236305376069  0.8684046668027819  0.6559322461599418  1.0000
  U   U3        1.0  0.7086463193621526  0.3684323656945452  0.6559462899185886  1.0000
  U   U4        1.0  0.0527727185980922  0.13159378761523752  0.3440706302324158  1.0000
  H   H1        1.0  0.6440767534325431  0.6932605006544251  0.17116542023691741  1.0000
  H   H2        1.0  0.4727291073208022  0.8066565888019712  0.8288638234732911  1.0000
  H   H3        1.0  0.3559460846803901  0.30673322514727636  0.8288232643256986  1.0000
  H   H4        1.0  0.5272634407948614  0.19333720711583172  0.17114107344105622  1.0000
  H   H5        1.0  0.61715479906902  0.8480148496731205  0.2698701612864338  1.0000
  H   H6        1.0  0.34709752504215163  0.6519447203255098  0.7301164148201448  1.0000
  H   H7        1.0  0.38286727480814153  0.15200226759287716  0.7301312450923871  1.0000
  H   H8        1.0  0.6528918429039052  0.3480548899972789  0.26988396964507894  1.0000
  C   C1        1.0  0.11155051291879658  0.4605582122716925  0.9926561842940057  1.0000
  C   C2        1.0  0.1188393417628291  0.0394523986344097  0.007272145292084497  1.0000
  C   C3        1.0  0.8884564675903234  0.5394366798356318  0.007332424303967864  1.0000
  C   C4        1.0  0.8811410455361396  0.9605472549638846  0.9927382208863017  1.0000
  O   O1        1.0  0.2992634590403256  0.48618167023931164  0.10426199450460415  1.0000
  O   O2        1.0  0.19483856913082323  0.013802374524509302  0.8956001439735386  1.0000
  O   O3        1.0  0.7007521043940699  0.5138109332059528  0.8957369384826064  1.0000
  O   O4        1.0  0.8051539833042864  0.9861890492045265  0.10439587686204983  1.0000
  O   O5        1.0  0.0876458894662022  0.3743114920393822  0.8676658188932291  1.0000
  O   O6        1.0  0.21996013289601282  0.12575109364733816  0.13221382610411325  1.0000
  O   O7        1.0  0.9123685143979756  0.6256927734249089  0.13233171851905456  1.0000
  O   O8        1.0  0.7800184698905139  0.8742438232892412  0.8677805680950709  1.0000
  O   O9        1.0  0.5331923541547637  0.7493048461758606  0.21578473564835568  1.0000
  O   O10       1.0  0.3172755233417348  0.7506291081676723  0.784232918181125  1.0000
  O   O11       1.0  0.4667791355880978  0.25069008283849564  0.7842124559780356  1.0000
  O   O12       1.0  0.6827259713207424  0.24936702605616293  0.2157730347418789  1.0000
  F   F1        1.0  0.028005356197809292  0.709334064178023  0.4655815070354874  1.0000
  F   F2        1.0  0.5624018629175183  0.7905531509583383  0.5345399908177055  1.0000
  F   F3        1.0  0.9719984482335065  0.2906725681098337  0.5344236984887513  1.0000
  F   F4        1.0  0.4375985742479358  0.20945579850426552  0.4654614388190835  1.0000
  F   F5        1.0  0.6126980634198204  0.481433387374267  0.4043583608683077  1.0000
  F   F6        1.0  0.2082529734175083  0.0186480015582049  0.5955993641377118  1.0000
  F   F7        1.0  0.3873110056616085  0.5185708871483713  0.5956412746143795  1.0000
  F   F8        1.0  0.7917455706831403  0.9813586163061031  0.4044025353493053  1.0000
  F   F9        1.0  0.10801692020756087  0.3921140651040674  0.3097595609937612  1.0000
  F   F10       1.0  0.7981768934260953  0.10790526305871852  0.6902009771161486  1.0000
  F   F11       1.0  0.8919762912700548  0.6078913757241864  0.6902399985242835  1.0000
  F   F12       1.0  0.2018215783821873  0.8921001921930838  0.3098018884391108  1.0000
