data_image0
_chemical_formula_structural       Zn2H24C32N4O8
_chemical_formula_sum              "Zn2 H24 C32 N4 O8"
_cell_length_a       8.695677625699975
_cell_length_b       10.077362821462303
_cell_length_c       10.46354598792334
_cell_angle_alpha    83.80131420648709
_cell_angle_beta     66.84659413946444
_cell_angle_gamma    68.41928291483417

_space_group_name_H-M_alt    "P 1"
_space_group_IT_number       1

loop_
  _space_group_symop_operation_xyz
  'x, y, z'

loop_
  _atom_site_type_symbol
  _atom_site_label
  _atom_site_symmetry_multiplicity
  _atom_site_fract_x
  _atom_site_fract_y
  _atom_site_fract_z
  _atom_site_occupancy
  Zn  Zn1       1.0  0.6483910302158267  0.8423217622069359  0.88393507408302  1.0000
  Zn  Zn2       1.0  0.3516086994665172  0.15767928289852756  0.11606495396733864  1.0000
  H   H1        1.0  0.8762725949954273  0.6598200318681222  0.0386494272138976  1.0000
  H   H2        1.0  0.12372886165439204  0.34017994491830456  0.961350146350789  1.0000
  H   H3        1.0  0.8906606200618513  0.46232265996809474  0.2025374723129474  1.0000
  H   H4        1.0  0.10933833492981651  0.5376773172365716  0.7974629209427423  1.0000
  H   H5        1.0  0.36291754303650947  0.5013580263145913  0.23608995000763142  1.0000
  H   H6        1.0  0.6370818865317959  0.4986408829261748  0.7639094434047493  1.0000
  H   H7        1.0  0.37686607901872543  0.6931920615634726  0.0646521628349817  1.0000
  H   H8        1.0  0.6231353776310942  0.3068079152229544  0.9353474107297048  1.0000
  H   H9        1.0  0.48672894358780633  0.33489946166731954  0.37588846779825513  1.0000
  H   H10       1.0  0.5132700114038544  0.665100515537347  0.6241119254574273  1.0000
  H   H11       1.0  0.8503617367767261  0.31982738918082276  0.3710959734709648  1.0000
  H   H12       1.0  0.14963846748225512  0.6801725879607261  0.6289030547360923  1.0000
  H   H13       1.0  0.8955024643693575  0.014952137210656203  0.7421424448853955  1.0000
  H   H14       1.0  0.10449726687474471  0.9850489077487979  0.2578585383680903  1.0000
  H   H15       1.0  0.9411239095492547  0.18190001329090683  0.5491104252109623  1.0000
  H   H16       1.0  0.05887677084812983  0.8180988957407395  0.4508885583559207  1.0000
  H   H17       1.0  0.45902618187198385  0.1789249608899652  0.5184174850106588  1.0000
  H   H18       1.0  0.5409740239487564  0.8210750161055812  0.4815824983995257  1.0000
  H   H19       1.0  0.4400834128877876  0.0092857766696994  0.7079167135357451  1.0000
  H   H20       1.0  0.5599167929329524  0.9907142003258547  0.29208326987443917  1.0000
  H   H21       1.0  0.8898149088121557  0.13630344142389106  0.09612136399464787  1.0000
  H   H22       1.0  0.11018452387965996  0.8636954675248701  0.9038799398239805  1.0000
  H   H23       1.0  0.08232170517057821  0.4563557477500667  0.6107164491977742  1.0000
  H   H24       1.0  0.9176767752444451  0.5436452974185073  0.3892849439012094  1.0000
  C   C1        1.0  0.765623393187724  0.6206569213263933  0.08500937570483552  1.0000
  C   C2        1.0  0.23437681107126454  0.37934305581516276  0.9149896525022218  1.0000
  C   C3        1.0  0.7713837396631716  0.511636846156911  0.17799915645134234  1.0000
  C   C4        1.0  0.22861569302864385  0.4883620627918432  0.822002147367286  1.0000
  C   C5        1.0  0.6235679835254829  0.4663290165182232  0.2381379864790533  1.0000
  C   C6        1.0  0.3764351985300535  0.5336698920951833  0.7618601773968198  1.0000
  C   C7        1.0  0.4799035313078478  0.5330289872188557  0.1949508037997561  1.0000
  C   C8        1.0  0.5200949475454165  0.46697205809572756  0.8050496340961077  1.0000
  C   C9        1.0  0.4860515638904985  0.6404479332183826  0.10017264793353316  1.0000
  C   C10       1.0  0.5139478672395653  0.35955097587638113  0.8998277006819749  1.0000
  C   C11       1.0  0.6087652977949604  0.35963983165255803  0.3432202647076537  1.0000
  C   C12       1.0  0.39123490646402803  0.640360145488998  0.6567787634994035  1.0000
  C   C13       1.0  0.7279613770406216  0.2959489595209561  0.4039311929080469  1.0000
  C   C14       1.0  0.272039304918522  0.7040499493646878  0.596068745861956  1.0000
  C   C15       1.0  0.8014706535693321  0.054896430129119295  0.6900519663207735  1.0000
  C   C16       1.0  0.19853032538033208  0.9451046149132201  0.3099466966809602  1.0000
  C   C17       1.0  0.8263094901778558  0.14779905168770574  0.5819269398074243  1.0000
  C   C18       1.0  0.17369071408113254  0.8522009254538433  0.41807208839963295  1.0000
  C   C19       1.0  0.703576306598606  0.19691099743806723  0.5158167537030991  1.0000
  C   C20       1.0  0.2964238976603751  0.803088979703489  0.48418227450395807  1.0000
  C   C21       1.0  0.5598916411498253  0.14648616057762354  0.5640885757279293  1.0000
  C   C22       1.0  0.4401090408093111  0.8535127483080204  0.4359113630420738  1.0000
  C   C23       1.0  0.546741550516174  0.05283778508223241  0.6714162629786742  1.0000
  C   C24       1.0  0.4532599045718941  0.9471621918501967  0.3285823553828777  1.0000
  C   C25       1.0  0.7574554587278043  0.022768597258043102  0.0304288124895535  1.0000
  C   C26       1.0  0.24254474709293566  0.9772313797375036  0.9695711709206306  1.0000
  C   C27       1.0  0.9159978710336248  0.04375305450873411  0.03491930042871161  1.0000
  C   C28       1.0  0.08400156165819078  0.9562458544400271  0.9650820033899238  1.0000
  C   C29       1.0  0.8461179980042388  0.655760158350546  0.6371897338708052  1.0000
  C   C30       1.0  0.1538829825071844  0.3442408865457907  0.3628098843340625  1.0000
  C   C31       1.0  0.9908021092784761  0.5216768098526501  0.5617111603853646  1.0000
  C   C32       1.0  0.009198094980511858  0.4783231672888989  0.43828786782169266  1.0000
  N   N1        1.0  0.6251579772776878  0.6859745370294236  0.04653760561478032  1.0000
  N   N2        1.0  0.3748409777139728  0.3140254401752429  0.9534627876409021  1.0000
  N   N3        1.0  0.6637662059794067  0.007644858951302101  0.7355124568083655  1.0000
  N   N4        1.0  0.33623525067041266  0.9923551178351246  0.2644871167563211  1.0000
  O   O1        1.0  0.7825559697539859  0.9089724948396449  0.9711017287334371  1.0000
  O   O2        1.0  0.2174429867994334  0.0910274822190189  0.02889961972537242  1.0000
  O   O3        1.0  0.608628993061501  0.12434107769348658  0.08735013473647517  1.0000
  O   O4        1.0  0.3913707366208429  0.8756599674119697  0.9126498933138905  1.0000
  O   O5        1.0  0.8474370806869088  0.678886567978765  0.75667072804022  1.0000
  O   O6        1.0  0.1525626489954348  0.3211144771266917  0.24332930001013864  1.0000
  O   O7        1.0  0.7365836921320792  0.7336573459613052  0.5863389996598302  1.0000
  O   O8        1.0  0.26341651368866786  0.26634263103424166  0.4136609837503542  1.0000
