data_image0
_chemical_formula_structural       V2Cu2P4H48C50N6O16
_chemical_formula_sum              "V2 Cu2 P4 H48 C50 N6 O16"
_cell_length_a       8.977120349171246
_cell_length_b       11.02754739169564
_cell_length_c       13.612070204251529
_cell_angle_alpha    74.90100101108055
_cell_angle_beta     82.00679557820024
_cell_angle_gamma    81.34517608399908

_space_group_name_H-M_alt    "P 1"
_space_group_IT_number       1

loop_
  _space_group_symop_operation_xyz
  'x, y, z'

loop_
  _atom_site_type_symbol
  _atom_site_label
  _atom_site_symmetry_multiplicity
  _atom_site_fract_x
  _atom_site_fract_y
  _atom_site_fract_z
  _atom_site_occupancy
  V   V1        1.0  0.989336105097216  0.9570835342452925  0.7859433366793878  1.0000
  V   V2        1.0  0.010651844024167202  0.04292003098629489  0.2140597133992515  1.0000
  Cu  Cu1       1.0  0.6311389320325205  0.7847861267982096  0.836088091870991  1.0000
  Cu  Cu2       1.0  0.36884969736840395  0.21520616988377841  0.16392543560242248  1.0000
  P   P1        1.0  0.29535256382853703  0.7951736777899184  0.7203570661368985  1.0000
  P   P2        1.0  0.7046415658997985  0.20482607894861357  0.27963962157288347  1.0000
  P   P3        1.0  0.16205863895368114  0.11899689729284547  0.37514202940655383  1.0000
  P   P4        1.0  0.8379604123529775  0.8810086862394397  0.6248436940012709  1.0000
  H   H1        1.0  0.5559466498202355  0.06392244595728869  0.7135852917682328  1.0000
  H   H2        1.0  0.44405117746282496  0.9360755425306805  0.286419515400226  1.0000
  H   H3        1.0  0.34381286312027737  0.23637004858191796  0.7321032982148665  1.0000
  H   H4        1.0  0.6561857805200332  0.7636298082410916  0.2678980855490424  1.0000
  H   H5        1.0  0.1626057430784087  0.20175401968847953  0.8933967768611594  1.0000
  H   H6        1.0  0.837394996678377  0.7982467951131296  0.10660346581672545  1.0000
  H   H7        1.0  0.2015367093225535  0.0025754108801408  0.028046109206812293  1.0000
  H   H8        1.0  0.7984673945458952  0.9974254177698326  0.9719523444782681  1.0000
  H   H9        1.0  0.266151408024065  0.8227292745932502  0.1395548668399158  1.0000
  H   H10       1.0  0.7338531416003136  0.17726872470456811  0.8604448972302661  1.0000
  H   H11       1.0  0.5838340035146175  0.4792229785266784  0.17503905995999963  1.0000
  H   H12       1.0  0.4161648837091079  0.5207825810195175  0.8249625252989716  1.0000
  H   H13       1.0  0.7765527461785169  0.38648627544832687  0.09689437394394672  1.0000
  H   H14       1.0  0.2234512100849599  0.6135154991335127  0.9031038871315431  1.0000
  H   H15       1.0  0.9780302422880778  0.28801725189133265  0.9879599455681569  1.0000
  H   H16       1.0  0.02197369927035452  0.7119844804732834  0.012034652725674314  1.0000
  H   H17       1.0  0.029470264482824884  0.4023346876402983  0.8006240264179424  1.0000
  H   H18       1.0  0.9705342305740174  0.5976708978009952  0.19937482137179793  1.0000
  H   H19       1.0  0.8807003667554058  0.6131838135512311  0.7363017582630746  1.0000
  H   H20       1.0  0.11929156336661614  0.38681605779226663  0.2637068662680946  1.0000
  H   H21       1.0  0.2058881254095013  0.7772975850132298  0.2889284032905053  1.0000
  H   H22       1.0  0.7941110968866596  0.22269845430852092  0.7110708206864373  1.0000
  H   H23       1.0  0.09922109826072763  0.7011784304983806  0.46643136030588284  1.0000
  H   H24       1.0  0.9007765667123239  0.2988204617042243  0.533569591471327  1.0000
  H   H25       1.0  0.3725119591015655  0.34285827892068  0.4843609584895034  1.0000
  H   H26       1.0  0.6274857058714788  0.6571406132819246  0.5156399932877064  1.0000
  H   H27       1.0  0.47694859500555264  0.4144150831382092  0.30543449389192284  1.0000
  H   H28       1.0  0.5230497534248144  0.5855866655485329  0.6945665046527975  1.0000
  H   H29       1.0  0.14634839643923675  0.371391989670478  0.615118037982576  1.0000
  H   H30       1.0  0.8536478558746552  0.6286088010376645  0.38488410164816134  1.0000
  H   H31       1.0  0.05873742149010751  0.5276897835404313  0.6148964877562193  1.0000
  H   H32       1.0  0.9412607793352803  0.472312911078184  0.3851043181789109  1.0000
  H   H33       1.0  0.24506832968044986  0.480258356620375  0.650111712182145  1.0000
  H   H34       1.0  0.7549300158089025  0.5197433836229166  0.3498885538062452  1.0000
  H   H35       1.0  0.3927468146399136  0.9151500224853776  0.4364494440060867  1.0000
  H   H36       1.0  0.6072561629563039  0.0848507874760642  0.5635483850827114  1.0000
  H   H37       1.0  0.2351064086644712  0.8398979184369465  0.4997457308410418  1.0000
  H   H38       1.0  0.764894322269285  0.16010287103431864  0.5002523141678523  1.0000
  H   H39       1.0  0.2806141606488879  0.10140976516652238  0.522827635089527  1.0000
  H   H40       1.0  0.7193909277688492  0.8985920449907496  0.4771727156949055  1.0000
  H   H41       1.0  0.11210412815282209  0.029009926066272798  0.553173630771191  1.0000
  H   H42       1.0  0.8878987018384166  0.9709918298270352  0.44682400570801667  1.0000
  H   H43       1.0  0.4625922365192424  0.9284019259742138  0.6093890976834614  1.0000
  H   H44       1.0  0.5374132888313952  0.07159702950055188  0.39061036581708203  1.0000
  H   H45       1.0  0.4827232146602682  0.7781329766734402  0.5863729211497883  1.0000
  H   H46       1.0  0.5172787872096903  0.22186687711104008  0.41362520850864826  1.0000
  H   H47       1.0  0.09391929033801466  0.7355834794278377  0.6669590170609182  1.0000
  H   H48       1.0  0.9060782211480429  0.26441634181974644  0.33304027699404054  1.0000
  C   C1        1.0  0.47394109716722715  0.0547407309421502  0.781337626526685  1.0000
  C   C2        1.0  0.5260625638863061  0.945262935503422  0.21866024932962344  1.0000
  C   C3        1.0  0.3560194944960103  0.14965514893918197  0.7924974471296549  1.0000
  C   C4        1.0  0.6439778723260758  0.8503456266837117  0.2075023868720436  1.0000
  C   C5        1.0  0.25691156018427813  0.1307722439313608  0.8818820059042949  1.0000
  C   C6        1.0  0.7430891854545293  0.8692285877571352  0.1181197018862505  1.0000
  C   C7        1.0  0.27832165583320284  0.0187687314502298  0.9577053536031386  1.0000
  C   C8        1.0  0.7216838577533978  0.9812301902507554  0.04229117967208411  1.0000
  C   C9        1.0  0.3983498752844596  0.9279148520805265  0.9411068879632438  1.0000
  C   C10       1.0  0.6016542949155621  0.0720784241997592  0.0588954122276064  1.0000
  C   C11       1.0  0.4353142585588188  0.8058054030140127  0.014339674464288518  1.0000
  C   C12       1.0  0.5646830389906938  0.1942029165351329  0.9856555804753171  1.0000
  C   C13       1.0  0.3643883113600879  0.7643029669574588  0.11272548780504363  1.0000
  C   C14       1.0  0.6356163770462331  0.2356940610781493  0.8872722712057379  1.0000
  C   C15       1.0  0.419300613563955  0.6469977193359641  0.1755256427939784  1.0000
  C   C16       1.0  0.5806991534075863  0.353002147732134  0.8244756330098821  1.0000
  C   C17       1.0  0.5406551767923914  0.5731756810896088  0.13275103584832243  1.0000
  C   C18       1.0  0.45934526481343585  0.42682701713228255  0.8672480890540513  1.0000
  C   C19       1.0  0.6032371541395348  0.6182334065806857  0.032596469945971825  1.0000
  C   C20       1.0  0.3967708171050575  0.381757028865465  0.9674031539681776  1.0000
  C   C21       1.0  0.7244238085369474  0.5507560444634407  0.9752698958715552  1.0000
  C   C22       1.0  0.27557006421456254  0.4492457139036289  0.024735929851345925  1.0000
  C   C23       1.0  0.8035813438712083  0.43416561235059  0.017111344073249834  1.0000
  C   C24       1.0  0.1964242627528279  0.5658399495620045  0.9828844655311214  1.0000
  C   C25       1.0  0.9151523091570937  0.37889913888763976  0.9547231625508985  1.0000
  C   C26       1.0  0.0848526287146569  0.6211036087580483  0.045276263067613266  1.0000
  C   C27       1.0  0.9442874944895934  0.44204915001991907  0.8524649948789927  1.0000
  C   C28       1.0  0.055715883118033147  0.5579564420631795  0.14753542598346311  1.0000
  C   C29       1.0  0.8615187598465468  0.5591338015298248  0.8153484718000354  1.0000
  C   C30       1.0  0.1384850488119582  0.440868918983888  0.18464959666586372  1.0000
  C   C31       1.0  0.3537828901342976  0.6031934885008425  0.28250653960515837  1.0000
  C   C32       1.0  0.6462170156191861  0.3968054073050453  0.7174927311392948  1.0000
  C   C33       1.0  0.24559306237767228  0.6818629410864149  0.33038064097341646  1.0000
  C   C34       1.0  0.7544047502003507  0.3181350051843239  0.669620503413384  1.0000
  C   C35       1.0  0.18427006732431292  0.6391384782853393  0.431230505845086  1.0000
  C   C36       1.0  0.8157263237715214  0.3608613411606072  0.5687696287262511  1.0000
  C   C37       1.0  0.22933973208008493  0.5169430679218652  0.4888666056848762  1.0000
  C   C38       1.0  0.7706545658402887  0.4830558019889252  0.511135402528808  1.0000
  C   C39       1.0  0.3370767425407947  0.43881336077913596  0.4411773680371596  1.0000
  C   C40       1.0  0.6629177000435361  0.5611845547563377  0.5588241002297849  1.0000
  C   C41       1.0  0.39785567725079574  0.4800882389333623  0.3403623510480287  1.0000
  C   C42       1.0  0.6021398916057734  0.5199096952906431  0.659639741815205  1.0000
  C   C43       1.0  0.1659709942785882  0.4711136825346215  0.598108444381367  1.0000
  C   C44       1.0  0.8340265201484769  0.528886147156406  0.40189158222992216  1.0000
  C   C45       1.0  0.3094184728041042  0.9081203028579098  0.5045595685467106  1.0000
  C   C46       1.0  0.6905870437235035  0.09187862728651912  0.49543769728484216  1.0000
  C   C47       1.0  0.2163845770751038  0.0370144679274844  0.5004375335441367  1.0000
  C   C48       1.0  0.7836187104361015  0.9629844923874485  0.4995643435455008  1.0000
  C   C49       1.0  0.39777407061726683  0.8572281002767923  0.59794978973472  1.0000
  C   C50       1.0  0.6022282323446504  0.14276987853084924  0.402050190255558  1.0000
  N   N1        1.0  0.4940781732842083  0.9468052531586508  0.8531510707989296  1.0000
  N   N2        1.0  0.505934633788165  0.05319758308953482  0.14684906421191357  1.0000
  N   N3        1.0  0.5520743313919495  0.7329597178774206  0.9774967857476184  1.0000
  N   N4        1.0  0.4479279803930041  0.26703828626055787  0.022505391911657607  1.0000
  N   N5        1.0  0.7545348517515507  0.6120440127985489  0.8753048609019913  1.0000
  N   N6        1.0  0.24546124119333262  0.3879576900676795  0.12469415589383462  1.0000
  O   O1        1.0  0.4026423503474489  0.727168465850603  0.7977787004677381  1.0000
  O   O2        1.0  0.59735088763226  0.27282283300196036  0.20222652965543383  1.0000
  O   O3        1.0  0.19010001229158044  0.6998518705046806  0.7076036434770998  1.0000
  O   O4        1.0  0.809903390473494  0.30014605100048186  0.2923903681024882  1.0000
  O   O5        1.0  0.1941984347640898  0.9135099910342318  0.7497172534587405  1.0000
  O   O6        1.0  0.8057942764230717  0.0864916473229513  0.2502791569919083  1.0000
  O   O7        1.0  0.9594967222267529  0.0864326171096863  0.8271069459686585  1.0000
  O   O8        1.0  0.04050025046594642  0.9135633932784444  0.17289176137204984  1.0000
  O   O9        1.0  0.3057667423957042  0.160063634145537  0.3078151554015776  1.0000
  O   O10       1.0  0.6942119676694176  0.8399341210718275  0.6921863591933783  1.0000
  O   O11       1.0  0.9132049865608848  0.8435558192713233  0.8720304580706679  1.0000
  O   O12       1.0  0.08680137843829527  0.15643095549576463  0.12798260565956807  1.0000
  O   O13       1.0  0.1021502577555751  0.014164587175073998  0.33345716635094647  1.0000
  O   O14       1.0  0.8978507654471244  0.9858343019890086  0.6665405313207983  1.0000
  O   O15       1.0  0.035821498595922215  0.22441641979059307  0.3873412211670484  1.0000
  O   O16       1.0  0.964182162457611  0.7755872466549859  0.6126566546892533  1.0000
