data_image0
_chemical_formula_structural       Cu8H56C56I8N16O4
_chemical_formula_sum              "Cu8 H56 C56 I8 N16 O4"
_cell_length_a       4.20628951
_cell_length_b       18.885905383461214
_cell_length_c       21.4131
_cell_angle_alpha    105.51094472564759
_cell_angle_beta     90.0
_cell_angle_gamma    90.0

_space_group_name_H-M_alt    "P 1"
_space_group_IT_number       1

loop_
  _space_group_symop_operation_xyz
  'x, y, z'

loop_
  _atom_site_type_symbol
  _atom_site_label
  _atom_site_symmetry_multiplicity
  _atom_site_fract_x
  _atom_site_fract_y
  _atom_site_fract_z
  _atom_site_occupancy
  Cu  Cu1       1.0  0.024387289499721  0.9423263462192963  0.29534085893568834  1.0000
  Cu  Cu2       1.0  0.5243885364419469  0.5576734499953488  0.7046596767541047  1.0000
  Cu  Cu3       1.0  0.975612826992503  0.057675899128803096  0.7046608381639532  1.0000
  Cu  Cu4       1.0  0.47561633483474  0.44232494879081935  0.2953401790839365  1.0000
  Cu  Cu5       1.0  0.473471927042894  0.014047644178475599  0.1839246927179161  1.0000
  Cu  Cu6       1.0  0.9734707965928847  0.48595265423229955  0.816076661926111  1.0000
  Cu  Cu7       1.0  0.5265305668415579  0.9859540516607764  0.8160764077701758  1.0000
  Cu  Cu8       1.0  0.026531697291567  0.5140457445538686  0.18392272690808653  1.0000
  H   H1        1.0  0.1045386911563284  0.9616239979271554  0.4245852504257215  1.0000
  H   H2        1.0  0.6045470702752453  0.5383752487786424  0.5754137546448348  1.0000
  H   H3        1.0  0.8954590479436604  0.0383754998767074  0.5754143976238737  1.0000
  H   H4        1.0  0.3954601783936624  0.46162369951638027  0.4245857637970687  1.0000
  H   H5        1.0  0.3604887386840829  0.9626339951889307  0.5304121043759054  1.0000
  H   H6        1.0  0.8604923630185439  0.5373658010257073  0.4695874973062005  1.0000
  H   H7        1.0  0.6395090004159059  0.0373666016326268  0.4695878028891016  1.0000
  H   H8        1.0  0.1395125082581359  0.4626336967781555  0.5304126177472455  1.0000
  H   H9        1.0  0.6350775412983864  0.8521992020990936  0.5441862622968898  1.0000
  H   H10       1.0  0.1350762943561605  0.647800044606697  0.45581180876597943  1.0000
  H   H11       1.0  0.3649201978016023  0.14780139472246387  0.45581364496811727  1.0000
  H   H12       1.0  0.8649238221360562  0.3521994531971657  0.5441869052759358  1.0000
  H   H13       1.0  0.6312737137297049  0.7360429228886858  0.4549007767531634  1.0000
  H   H14       1.0  0.13127959896417  0.7639574228347995  0.5450984875327975  1.0000
  H   H15       1.0  0.368721647978056  0.26395877295056636  0.5450998567310847  1.0000
  H   H16       1.0  0.8687181401358188  0.2360431739867579  0.45490095272836584  1.0000
  H   H17       1.0  0.4357902601906289  0.6657860186954849  0.3451140784945608  1.0000
  H   H18       1.0  0.9357938845250828  0.8342126785014656  0.6548847969682966  1.0000
  H   H19       1.0  0.5642098563015949  0.3342140286172253  0.6548847651550531  1.0000
  H   H20       1.0  0.064203854574906  0.1657868193024044  0.3451153180851493  1.0000
  H   H21       1.0  0.11952577177694221  0.6665382963077633  0.24675183245661714  1.0000
  H   H22       1.0  0.6195341508958592  0.8334609503980275  0.7532467056100954  1.0000
  H   H23       1.0  0.8804743447152816  0.3334633995314887  0.7532474000161002  1.0000
  H   H24       1.0  0.3804707203808206  0.1665374483881408  0.2467531502279456  1.0000
  H   H25       1.0  0.8060904966096842  0.7295933375451256  0.18743395842599847  1.0000
  H   H26       1.0  0.3060987592363773  0.7704075576872143  0.8125654354676612  1.0000
  H   H27       1.0  0.1939096198825396  0.27040890780297383  0.8125658706582684  1.0000
  H   H28       1.0  0.6939084894325305  0.22959139060780837  0.1874354839857659  1.0000
  H   H29       1.0  0.6478797984592362  0.8181115197597321  0.2281750191340493  1.0000
  H   H30       1.0  0.1478856836937013  0.6818888259637603  0.771825179159599  1.0000
  H   H31       1.0  0.3521179406407526  0.1818896265706726  0.7718259517463437  1.0000
  H   H32       1.0  0.8521168101907435  0.318111221348957  0.22817553250538938  1.0000
  H   H33       1.0  0.1916772485781664  0.7358637830043904  0.09198673120754818  1.0000
  H   H34       1.0  0.6916832503048482  0.7641371122279494  0.9080135966937988  1.0000
  H   H35       1.0  0.8083181131295945  0.2641395613614037  0.90801382409596  1.0000
  H   H36       1.0  0.3083192435795965  0.2358601875405242  0.09198693393652492  1.0000
  H   H37       1.0  0.713819149362358  0.8039440826524924  0.032940660091142625  1.0000
  H   H38       1.0  0.2138202798123601  0.6960573620886947  0.9670602644217468  1.0000
  H   H39       1.0  0.2861762123454028  0.19605871220445437  0.9670602326085104  1.0000
  H   H40       1.0  0.7861774592876287  0.3039404871886262  0.0329394618085885  1.0000
  H   H41       1.0  0.8053439954493271  0.8945965572309403  0.0788341403740347  1.0000
  H   H42       1.0  0.3053498806837922  0.6054043380013994  0.921166654531156  1.0000
  H   H43       1.0  0.1946513662584266  0.1054056881171661  0.9211661557140759  1.0000
  H   H44       1.0  0.6946526132006525  0.39459351127592157  0.078833538703023  1.0000
  H   H45       1.0  0.3154466654864194  0.939663975852973  0.03076700734620624  1.0000
  H   H46       1.0  0.8154526672131013  0.5603369193793668  0.969232853551297  1.0000
  H   H47       1.0  0.6845486962213414  0.0603377199862862  0.9692317581226678  1.0000
  H   H48       1.0  0.1845498266713435  0.43966147940680134  0.030768403298274894  1.0000
  H   H49       1.0  0.6428492364996501  0.9077391603375204  0.9780484957979921  1.0000
  H   H50       1.0  0.1428479895574313  0.5922606358771246  0.021951572887949983  1.0000
  H   H51       1.0  0.3571532573847946  0.0922614364840371  0.021950944463164004  1.0000
  H   H52       1.0  0.8571545043270206  0.4077383124178908  0.978049346565477  1.0000
  H   H53       1.0  0.1699264870619928  0.8579426685735712  0.9322215053761909  1.0000
  H   H54       1.0  0.6699277340042116  0.6420565781322267  0.0677784337020526  1.0000
  H   H55       1.0  0.8300736294302311  0.1420568292302917  0.0677781426734114  1.0000
  H   H56       1.0  0.3300747598802332  0.3579429196716362  0.9322216813513862  1.0000
  C   C1        1.0  0.2197423638583516  0.9127847505756178  0.43211599789631094  1.0000
  C   C2        1.0  0.7197483655850405  0.5872144961301798  0.5678839411819325  1.0000
  C   C3        1.0  0.7802529978494022  0.0872152967370923  0.5678847137686773  1.0000
  C   C4        1.0  0.2802565056916393  0.41278500167368987  0.4321166408753498  1.0000
  C   C5        1.0  0.3635936129370236  0.9131435798530632  0.49009089516238186  1.0000
  C   C6        1.0  0.8635972372714775  0.586856216361582  0.5099087065197168  1.0000
  C   C7        1.0  0.6364065035551931  0.0868575664773417  0.5099091417103239  1.0000
  C   C8        1.0  0.1364052566129743  0.41314328144228085  0.4900909415298785  1.0000
  C   C9        1.0  0.5179957287343271  0.8497082784932033  0.498232596221662  1.0000
  C   C10       1.0  0.0179968591843291  0.6502915177214419  0.501766538456593  1.0000
  C   C11       1.0  0.4820067651501247  0.1502928678372015  0.5017674406510437  1.0000
  C   C12       1.0  0.9820008799156595  0.3497079800824281  0.4982326425891586  1.0000
  C   C13       1.0  0.5163410637419474  0.7855663087554134  0.4489706967166782  1.0000
  C   C14       1.0  0.0163398167997215  0.7144345864769264  0.5510282301731451  1.0000
  C   C15       1.0  0.4836542979658063  0.21443483757499845  0.551028873152184  1.0000
  C   C16       1.0  0.9836555449080321  0.2855654608357838  0.4489710804803124  1.0000
  C   C17       1.0  0.3578117950326245  0.7823346472230384  0.3898750237387247  1.0000
  C   C18       1.0  0.8578177967593135  0.7176635004650647  0.6101241891202704  1.0000
  C   C19       1.0  0.6421835666751363  0.2176659495985191  0.6101248835262824  1.0000
  C   C20       1.0  0.1421823197329104  0.282335997338798  0.3898754589293247  1.0000
  C   C21       1.0  0.2138797146181233  0.8476635560715096  0.3807878123621792  1.0000
  C   C22       1.0  0.7138880937370402  0.6523351411254337  0.6192124641122092  1.0000
  C   C23       1.0  0.7861156470896375  0.1523370407500479  0.6192130289105151  1.0000
  C   C24       1.0  0.2861191549318747  0.347664356678429  0.3807876509412367  1.0000
  C   C25       1.0  0.3279565034029233  0.7164710662659032  0.33987922660623576  1.0000
  C   C26       1.0  0.8279625051296122  0.7835276309310402  0.6601201158604654  1.0000
  C   C27       1.0  0.6720388583048305  0.2835295305556542  0.6601206806587712  1.0000
  C   C28       1.0  0.1720399887548396  0.21647131736397537  0.3398798695852747  1.0000
  C   C29       1.0  0.1572359673359713  0.7169084753085428  0.2851029046785811  1.0000
  C   C30       1.0  0.6572419690626603  0.7830907713972477  0.7148970343996623  1.0000
  C   C31       1.0  0.8427617717640175  0.2830921215130147  0.7148970025864189  1.0000
  C   C32       1.0  0.3427629022140195  0.2169076273889203  0.2851032884422224  1.0000
  C   C33       1.0  0.0352377076393893  0.783771612859347  0.2781568426486772  1.0000
  C   C34       1.0  0.5352484641505342  0.7162281833552909  0.7218427590334286  1.0000
  C   C35       1.0  0.9647576540683716  0.2162300829799051  0.7218433238317346  1.0000
  C   C36       1.0  0.4647564071261456  0.2837707649397245  0.278157693416162  1.0000
  C   C37       1.0  0.8657939476923957  0.7852657274158048  0.2162314814435788  1.0000
  C   C38       1.0  0.3657998329268608  0.7147346183076806  0.7837682498462256  1.0000
  C   C39       1.0  0.1342014140153651  0.2147354189146  0.7837680884252833  1.0000
  C   C40       1.0  0.6342002835653631  0.2852648794961822  0.21623186520722026  1.0000
  C   C41       1.0  0.2226713110862377  0.7921988805452002  0.12037595346664891  1.0000
  C   C42       1.0  0.7226749354206987  0.7078020146871395  0.8796239074308545  1.0000
  C   C43       1.0  0.777324050621516  0.2078044638205938  0.8796236678291721  1.0000
  C   C44       1.0  0.2773251810715252  0.2921952850813412  0.12037662319946921  1.0000
  C   C45       1.0  0.3944854475791928  0.8508067466794313  0.11014809794965429  1.0000
  C   C46       1.0  0.8944890719136467  0.649194148552908  0.8898522299516997  1.0000
  C   C47       1.0  0.605512291520796  0.1491965976863625  0.8898524573538609  1.0000
  C   C48       1.0  0.1055110445785772  0.3508026017067181  0.11014770406708152  1.0000
  C   C49       1.0  0.6100602428576067  0.8575986760350105  0.05692379792252917  1.0000
  C   C50       1.0  0.1100637506998439  0.6424022191973293  0.9430765299788179  1.0000
  C   C51       1.0  0.389932741457919  0.1424041188219363  0.94307662777328  1.0000
  C   C52       1.0  0.8899339884001449  0.357594531062297  0.05692340403996351  1.0000
  C   C53       1.0  0.4545978101255344  0.8903175318351585  0.00662968226443178  1.0000
  C   C54       1.0  0.9546014344599882  0.6096822643794866  0.993369919417674  1.0000
  C   C55       1.0  0.5453975515822265  0.1096836144952533  0.9933694206005867  1.0000
  C   C56       1.0  0.0453986820322285  0.3903155848978344  0.0066307408203555886  1.0000
  I   I1        1.0  0.5397227163281997  0.0275562201775159  0.3166974003460439  1.0000
  I   I2        1.0  0.0397238467782017  0.4724440782332592  0.6833034872941468  1.0000
  I   I3        1.0  0.4602797775562522  0.9724465746794307  0.6833058273728271  1.0000
  I   I4        1.0  0.9602857792829411  0.527554320552909  0.3166935665208328  1.0000
  I   I5        1.0  0.9551529894574459  0.0751063197727291  0.1495358259479929  1.0000
  I   I6        1.0  0.4551517425152198  0.424893978638046  0.8504645946883542  1.0000
  I   I7        1.0  0.0448495044270061  0.9248942770488284  0.8504640813170071  1.0000
  I   I8        1.0  0.5448507513692249  0.5751055191658168  0.14953552036509174  1.0000
  N   N1        1.0  0.0672897096900016  0.847924023265243  0.3233774184196321  1.0000
  N   N2        1.0  0.5672980888089185  0.6520752234405477  0.676622987662455  1.0000
  N   N3        1.0  0.9327056520177592  0.15207712306516188  0.6766230854569102  1.0000
  N   N4        1.0  0.4327067824677613  0.3479237248544677  0.3233774647871357  1.0000
  N   N5        1.0  0.0624517165010801  0.8201337123186789  0.17669172684343692  1.0000
  N   N6        1.0  0.562455340835541  0.6798671829136609  0.8233086010579103  1.0000
  N   N7        1.0  0.9375460225989087  0.1798690825382749  0.8233091658562159  1.0000
  N   N8        1.0  0.4375471530489108  0.3201306663636601  0.17669112517242522  1.0000
  N   N9        1.0  0.1289188484793584  0.8917033931486457  0.20121941067142046  1.0000
  N   N10       1.0  0.6289200954215843  0.608297502083694  0.7987818512376137  1.0000
  N   N11       1.0  0.8710860227973214  0.108299401708301  0.7987828830397633  1.0000
  N   N12       1.0  0.3710823984628675  0.391700347193634  0.20121740798887805  1.0000
  N   N13       1.0  0.3331915210943208  0.9103366886598322  0.1614076944079486  1.0000
  N   N14       1.0  0.8331927680365467  0.5896642065725004  0.8385935675010857  1.0000
  N   N15       1.0  0.6668085953978959  0.0896666557059618  0.8385937949032538  1.0000
  N   N16       1.0  0.166809725847898  0.4103330931959732  0.16140556211770732  1.0000
  O   O1        1.0  0.2567155678259496  0.835475999341952  0.9652242817161678  1.0000
  O   O2        1.0  0.7567168147681755  0.664523796872693  0.034775319965930904  1.0000
  O   O3        1.0  0.7432821712740321  0.1645245974796055  0.0347756255488321  1.0000
  O   O4        1.0  0.24328330172404122  0.3354751514223295  0.9652241984759654  1.0000
