data_image0
_chemical_formula_structural       Al4H20C32O24
_chemical_formula_sum              "Al4 H20 C32 O24"
_cell_length_a       6.743518860704602
_cell_length_b       13.43612168123643
_cell_length_c       16.464818767716444
_cell_angle_alpha    89.9814620803125
_cell_angle_beta     89.89513188871557
_cell_angle_gamma    89.84760073838642

_space_group_name_H-M_alt    "P 1"
_space_group_IT_number       1

loop_
  _space_group_symop_operation_xyz
  'x, y, z'

loop_
  _atom_site_type_symbol
  _atom_site_label
  _atom_site_symmetry_multiplicity
  _atom_site_fract_x
  _atom_site_fract_y
  _atom_site_fract_z
  _atom_site_occupancy
  Al  Al1       1.0  0.0003887935169473  0.998747644132642  0.501283243968544  1.0000
  Al  Al2       1.0  0.5003714898143059  0.0014215839285683005  0.49904013454411716  1.0000
  Al  Al3       1.0  0.9978920116291191  0.500031499329708  3.755553960619998e-05  1.0000
  Al  Al4       1.0  0.4978665611906052  0.5001573231350136  0.00028135071909220005  1.0000
  H   H1        1.0  0.24949489745675626  0.8668518763070809  0.4972200041650225  1.0000
  H   H2        1.0  0.7522159942569857  0.1333028866959296  0.5005580035202328  1.0000
  H   H3        1.0  0.24695649658610822  0.6320558805658578  0.9989281947936846  1.0000
  H   H4        1.0  0.7483174638226799  0.3681196486447861  0.9998048070066474  1.0000
  H   H5        1.0  0.06740104779391488  0.6919840152936916  0.8102865502998996  1.0000
  H   H6        1.0  0.42887414068260904  0.692860625873742  0.8108158111038222  1.0000
  H   H7        1.0  0.0669763317556544  0.806702862611168  0.6917030389922658  1.0000
  H   H8        1.0  0.5672292505349361  0.3101226694145679  0.1921029894047948  1.0000
  H   H9        1.0  0.9289234715473711  0.3049835101400192  0.1870538600454452  1.0000
  H   H10       1.0  0.565015654050228  0.1954713119505911  0.3107116071817302  1.0000
  H   H11       1.0  0.9296240631270223  0.31005769146552353  0.8086853949585943  1.0000
  H   H12       1.0  0.5679753085178874  0.30563854804351825  0.8120917490240132  1.0000
  H   H13       1.0  0.931545840336348  0.19509964786920622  0.6903771766909799  1.0000
  H   H14       1.0  0.06787618795215881  0.6888174382797488  0.1916061294281448  1.0000
  H   H15       1.0  0.42962080991267737  0.6956099960941273  0.1880208472708915  1.0000
  H   H16       1.0  0.06742669732800272  0.8037646722104198  0.3100159264424533  1.0000
  H   H17       1.0  0.41857849779179906  0.8569720567239614  0.6417838339836237  1.0000
  H   H18       1.0  0.9164690531979006  0.13927001061239963  0.3549501058815636  1.0000
  H   H19       1.0  0.5807195366806326  0.1399039581425257  0.6445617458340323  1.0000
  H   H20       1.0  0.4188842821875554  0.8618760310294747  0.3551444361850855  1.0000
  C   C1        1.0  0.7530238472815044  0.8817931416417011  0.3874575972101014  1.0000
  C   C2        1.0  0.7538286403598136  0.8815943573959617  0.6126625356851392  1.0000
  C   C3        1.0  0.24706596914612794  0.11824480466206921  0.6127928706820569  1.0000
  C   C4        1.0  0.24989583388630623  0.11846316921479877  0.387550963325033  1.0000
  C   C5        1.0  0.7476377027849423  0.6174400971868367  0.1112395782030688  1.0000
  C   C6        1.0  0.74731581340707  0.6179442345292684  0.8893536970621199  1.0000
  C   C7        1.0  0.2487135224342225  0.3825954592879627  0.8890825078031456  1.0000
  C   C8        1.0  0.24802804200994188  0.3823034567128616  0.1109644212308609  1.0000
  C   C9        1.0  0.7484944084127534  0.8147343112057258  0.683326154835548  1.0000
  C   C10       1.0  0.7478186386095017  0.686223006447449  0.8174815291134578  1.0000
  C   C11       1.0  0.5662056978162228  0.782402914001878  0.7176873254702159  1.0000
  C   C12       1.0  0.9288565468130726  0.7180059478451072  0.7838739470134115  1.0000
  C   C13       1.0  0.5683108861122292  0.71803119800164  0.7845893495418608  1.0000
  C   C14       1.0  0.9277448037774363  0.7815178866797083  0.7177655493125387  1.0000
  C   C15       1.0  0.2464133884964781  0.1851468280015496  0.31677775445226086  1.0000
  C   C16       1.0  0.24784168782102256  0.3138733781477043  0.1827350835539292  1.0000
  C   C17       1.0  0.0647606632067124  0.2160856517294363  0.280937045362279  1.0000
  C   C18       1.0  0.42830113054104396  0.28321548229892807  0.2175861343862309  1.0000
  C   C19       1.0  0.0678918719436936  0.28075404317896613  0.21424653026942764  1.0000
  C   C20       1.0  0.42614298237854337  0.21970973806872965  0.2837198439451285  1.0000
  C   C21       1.0  0.2502264673695009  0.18516777515130664  0.683388161836355  1.0000
  C   C22       1.0  0.2490250557153928  0.3142165319827726  0.8172843836026544  1.0000
  C   C23       1.0  0.4319262151322008  0.21646426806372426  0.7187396382191054  1.0000
  C   C24       1.0  0.0685157014847562  0.2832605741303881  0.7829157975927928  1.0000
  C   C25       1.0  0.42886204276808826  0.28124623573773994  0.7853146524001389  1.0000
  C   C26       1.0  0.07050962025874699  0.21959794119062792  0.7169070142634338  1.0000
  C   C27       1.0  0.7489291268385828  0.8149058658410979  0.3168273653517558  1.0000
  C   C28       1.0  0.7483360899296939  0.6858033756407875  0.1830282797099017  1.0000
  C   C29       1.0  0.5667355996275489  0.784335418065865  0.281395769126938  1.0000
  C   C30       1.0  0.929333395153499  0.7160921061828489  0.21738587566676423  1.0000
  C   C31       1.0  0.5689663818805428  0.7194967648768015  0.2148690036633951  1.0000
  C   C32       1.0  0.9281698804179115  0.7797496417632459  0.28340837025231014  1.0000
  O   O1        1.0  0.9180327834230796  0.9065044115788581  0.41862869884216286  1.0000
  O   O2        1.0  0.5849329456986894  0.9084462941673054  0.5817046096322258  1.0000
  O   O3        1.0  0.4176419352972117  0.08886744190431271  0.5845862641784692  1.0000
  O   O4        1.0  0.0804586653794175  0.08843187786089152  0.4156641865055448  1.0000
  O   O5        1.0  0.08228943873004371  0.09277267500165462  0.5818787158111363  1.0000
  O   O6        1.0  0.4158455518314952  0.0938968540164922  0.4185605017166196  1.0000
  O   O7        1.0  0.5826871360805798  0.9119622774171392  0.41534333329437345  1.0000
  O   O8        1.0  0.9205009298618523  0.9093622081773562  0.5845468495941475  1.0000
  O   O9        1.0  0.2519547131725517  0.9388718185561015  0.5000320455471794  1.0000
  O   O10       1.0  0.7505092953754441  0.06120080703956891  0.5001660526790417  1.0000
  O   O11       1.0  0.9160482004170447  0.5910800639256096  0.08338730809592221  1.0000
  O   O12       1.0  0.5789144490731317  0.5917980064320502  0.9171842351357  1.0000
  O   O13       1.0  0.41672196470859996  0.4082122435884443  0.9173469562080712  1.0000
  O   O14       1.0  0.07991137215623209  0.4079374618466788  0.0825876875696849  1.0000
  O   O15       1.0  0.07994498777667762  0.4089379565630082  0.9166336433531371  1.0000
  O   O16       1.0  0.4165953414286818  0.40873007685588897  0.08351338930335571  1.0000
  O   O17       1.0  0.5793110406207234  0.5918428466080884  0.0832940880340942  1.0000
  O   O18       1.0  0.9156635041126718  0.5921560490518658  0.9174175922452221  1.0000
  O   O19       1.0  0.24759419453727824  0.5600547392628173  0.00020264097653919998  1.0000
  O   O20       1.0  0.7480451184242014  0.4401342542363977  5.035590694999997e-05  1.0000
  O   O21       1.0  0.3884885430437565  0.811748560708324  0.6883801585896521  1.0000
  O   O22       1.0  0.8867078491868979  0.18518928423277714  0.30869969001300035  1.0000
  O   O23       1.0  0.6102363754527785  0.18587902813761303  0.6907063193484646  1.0000
  O   O24       1.0  0.38874301023192004  0.8157570151271187  0.3091756033925748  1.0000
