data_image0
_chemical_formula_structural       Cd4H28C48N12O24
_chemical_formula_sum              "Cd4 H28 C48 N12 O24"
_cell_length_a       7.507186112038645
_cell_length_b       14.097384978641475
_cell_length_c       20.995334569333576
_cell_angle_alpha    90.00027870347816
_cell_angle_beta     89.99937698185788
_cell_angle_gamma    100.87260763329249

_space_group_name_H-M_alt    "P 1"
_space_group_IT_number       1

loop_
  _space_group_symop_operation_xyz
  'x, y, z'

loop_
  _atom_site_type_symbol
  _atom_site_label
  _atom_site_symmetry_multiplicity
  _atom_site_fract_x
  _atom_site_fract_y
  _atom_site_fract_z
  _atom_site_occupancy
  Cd  Cd1       1.0  0.4598317579204618  0.3958600652244188  0.5667246984548128  1.0000
  Cd  Cd2       1.0  0.5401510830505885  0.10413432165473323  0.06671441702115999  1.0000
  Cd  Cd3       1.0  0.540161346307933  0.604142305799215  0.43327761207571297  1.0000
  Cd  Cd4       1.0  0.45985180089539307  0.895857310883308  0.9332745571768939  1.0000
  H   H1        1.0  0.509905455443601  0.3404260351021977  0.9091582071573965  1.0000
  H   H2        1.0  0.4900704055886608  0.1595706127490858  0.40915591962666287  1.0000
  H   H3        1.0  0.4900650924681784  0.6595725720613221  0.09084362711455898  1.0000
  H   H4        1.0  0.5099363400238204  0.8404246501655951  0.5908463908659128  1.0000
  H   H5        1.0  0.5017559263390439  0.0641730623718004  0.8189939370652723  1.0000
  H   H6        1.0  0.4982475271586893  0.4358262460312049  0.31899107952566647  1.0000
  H   H7        1.0  0.49825830481606903  0.9358287389716297  0.18100361046039373  1.0000
  H   H8        1.0  0.5017539713867903  0.5641733027197944  0.6810069443173816  1.0000
  H   H9        1.0  0.4602654538500488  0.13780382812540642  0.7137721884119657  1.0000
  H   H10       1.0  0.5397345057365256  0.3621913639090054  0.2137679798020145  1.0000
  H   H11       1.0  0.5397572656862764  0.8621994749501954  0.286226787988518  1.0000
  H   H12       1.0  0.46026580157391095  0.6378045735702004  0.7862309966301096  1.0000
  H   H13       1.0  0.8295316963918609  0.5288745210770855  0.6119761531660612  1.0000
  H   H14       1.0  0.17047742022062096  0.9711358241218947  0.11197706367960336  1.0000
  H   H15       1.0  0.1704842024868114  0.4711323360477096  0.3880204417719355  1.0000
  H   H16       1.0  0.8295314696520675  0.028865939076311502  0.8880209601526659  1.0000
  H   H17       1.0  0.17139574310420608  0.5351309873699392  0.613748786948335  1.0000
  H   H18       1.0  0.8286100810622371  0.9648735781181301  0.11374855060157778  1.0000
  H   H19       1.0  0.8286190587135916  0.4648765824709501  0.38624685540035125  1.0000
  H   H20       1.0  0.17139857058682398  0.03512746282211761  0.8862480443411156  1.0000
  H   H21       1.0  0.0992136150233449  0.27578602005275604  0.5144226329621375  1.0000
  H   H22       1.0  0.9007808922605559  0.22421469226179624  0.014423722010569394  1.0000
  H   H23       1.0  0.9007910306071594  0.724214992287287  0.4855782486549103  1.0000
  H   H24       1.0  0.09922360924483797  0.7757899218198149  0.9855790647977327  1.0000
  H   H25       1.0  0.7569668665538741  0.27193130234256563  0.5106819475165665  1.0000
  H   H26       1.0  0.24303122828771956  0.2280759031986862  0.010681792715693897  1.0000
  H   H27       1.0  0.24304054384730017  0.7280740530648516  0.48931988669470156  1.0000
  H   H28       1.0  0.7569768968531037  0.7719316189720191  0.9893195652013773  1.0000
  C   C1        1.0  0.45685101159388347  0.2789294346932111  0.7513426740150065  1.0000
  C   C2        1.0  0.5431355127535014  0.22106079199695475  0.2513403786905073  1.0000
  C   C3        1.0  0.5431337483577819  0.7210678328598593  0.24865773133832644  1.0000
  C   C4        1.0  0.456869897560729  0.778934461377979  0.7486605029157685  1.0000
  C   C5        1.0  0.4687829703948124  0.33375881687363335  0.8074885461028956  1.0000
  C   C6        1.0  0.531182379314444  0.16623296043412245  0.3074846915085843  1.0000
  C   C7        1.0  0.5311758478559341  0.666232500983952  0.19251233558750158  1.0000
  C   C8        1.0  0.46883199592451763  0.8337652391740918  0.6925138086035786  1.0000
  C   C9        1.0  0.49758948199870195  0.2954907413932305  0.8666144212639819  1.0000
  C   C10       1.0  0.5023945224323044  0.20450648759924664  0.366612707051864  1.0000
  C   C11       1.0  0.5023895543149166  0.7045093674992846  0.1333874129939119  1.0000
  C   C12       1.0  0.4976108878475286  0.7954887657809737  0.6333905560358771  1.0000
  C   C13       1.0  0.5090146924186029  0.197597276541167  0.8711919249492723  1.0000
  C   C14       1.0  0.49096855926064364  0.3024021299893677  0.37118866550706997  1.0000
  C   C15       1.0  0.4909824178077215  0.8024051230858404  0.1288075277957645  1.0000
  C   C16       1.0  0.5090306509957898  0.6975945202048736  0.6288088820394577  1.0000
  C   C17       1.0  0.49322495737075667  0.14049077780308042  0.8160177011161593  1.0000
  C   C18       1.0  0.506763417067937  0.35950696798185083  0.31601551703939623  1.0000
  C   C19       1.0  0.5067868413839635  0.8595117267230494  0.18398032271165476  1.0000
  C   C20       1.0  0.49323226369284606  0.6404910981164706  0.6839839357014339  1.0000
  C   C21       1.0  0.46887127430655795  0.18140626290385597  0.7568894400956339  1.0000
  C   C22       1.0  0.5311343549777732  0.31858989041266744  0.2568860769217166  1.0000
  C   C23       1.0  0.5311384743964993  0.8185940653213565  0.24310858373264915  1.0000
  C   C24       1.0  0.4688592757519743  0.6814059993815605  0.7431119469307106  1.0000
  C   C25       1.0  0.44880304547125144  0.32195656989961924  0.6861763766492783  1.0000
  C   C26       1.0  0.551196043291874  0.17803344389145082  0.18617343504374867  1.0000
  C   C27       1.0  0.5511916323546726  0.678046532910088  0.3138235523979134  1.0000
  C   C28       1.0  0.4488051228695652  0.821961058611592  0.8138241124955171  1.0000
  C   C29       1.0  0.5353397570346486  0.15668939781316027  0.9355537258086953  1.0000
  C   C30       1.0  0.4646575157263725  0.3433140105173679  0.4355521293335585  1.0000
  C   C31       1.0  0.46466355331135384  0.8433116049850257  0.0644447743294663  1.0000
  C   C32       1.0  0.535344603391465  0.6566833810079732  0.5644468470973931  1.0000
  C   C33       1.0  0.8917178179246434  0.4734973257316357  0.5894095011600697  1.0000
  C   C34       1.0  0.1082857771141263  0.026509564145385408  0.0894092197918681  1.0000
  C   C35       1.0  0.10829336024396237  0.5265073360222631  0.4105885226724268  1.0000
  C   C36       1.0  0.8917192509063767  0.9734885687047099  0.9105883277457565  1.0000
  C   C37       1.0  0.07831234036339652  0.47642774533024845  0.5906127806760821  1.0000
  C   C38       1.0  0.9216912199318655  0.023579149885918603  0.09061218914202838  1.0000
  C   C39       1.0  0.9216983114138912  0.523583397636145  0.4093819090938382  1.0000
  C   C40       1.0  0.07831766994082309  0.9764226133122879  0.9093858346902406  1.0000
  C   C41       1.0  0.03770114942774683  0.3328015169081341  0.5353051026132007  1.0000
  C   C42       1.0  0.9623010050226026  0.16720006754405867  0.0353029112097687  1.0000
  C   C43       1.0  0.9623095522042034  0.6672017003436044  0.4646962552919403  1.0000
  C   C44       1.0  0.037710411355874336  0.8328053164699086  0.9646974941048895  1.0000
  C   C45       1.0  0.8513076308133875  0.3304360041743097  0.5335264576970145  1.0000
  C   C46       1.0  0.14869285734187088  0.16956844233035182  0.03352409913046019  1.0000
  C   C47       1.0  0.14870087665554624  0.669568638515962  0.4664758528072567  1.0000
  C   C48       1.0  0.8513134560053075  0.8304376257921079  0.9664763061952114  1.0000
  N   N1        1.0  0.44148514322969845  0.43442762884837555  0.8063285036017972  1.0000
  N   N2        1.0  0.5584922577864048  0.06556422915019061  0.3063289814157527  1.0000
  N   N3        1.0  0.5584648042498371  0.5655650667670004  0.19367428329320543  1.0000
  N   N4        1.0  0.4415160613273273  0.9344317655653571  0.6936776157415776  1.0000
  N   N5        1.0  0.7799653089615005  0.4013088860096873  0.5601102353821402  1.0000
  N   N6        1.0  0.22003693804808935  0.09869929927799603  0.06010832390732189  1.0000
  N   N7        1.0  0.22004391326083814  0.5986979234417549  0.43989064623536217  1.0000
  N   N8        1.0  0.7799659899629318  0.9013045830016965  0.9398896999399399  1.0000
  N   N9        1.0  0.15001133505883496  0.40644224803372014  0.5630878422562587  1.0000
  N   N10       1.0  0.8499873464688007  0.09355944063481302  0.06308442067696518  1.0000
  N   N11       1.0  0.849998413602968  0.5935580801978377  0.43691303934977543  1.0000
  N   N12       1.0  0.1500233551906548  0.9064437766126973  0.9369150320430037  1.0000
  O   O1        1.0  0.5338331280952532  0.40851141306209376  0.6773067615316748  1.0000
  O   O2        1.0  0.4661591579065244  0.09148139316150863  0.17730101331006407  1.0000
  O   O3        1.0  0.46616422033405763  0.591491708826041  0.32269554899181674  1.0000
  O   O4        1.0  0.5338444406278101  0.9085124061630624  0.8226979631122191  1.0000
  O   O5        1.0  0.36622529216150906  0.2692944901529942  0.6423124213954736  1.0000
  O   O6        1.0  0.6337673837457058  0.23070031801317012  0.1423112341115953  1.0000
  O   O7        1.0  0.633772676888306  0.7307064745020785  0.35768750764187013  1.0000
  O   O8        1.0  0.36622829703570403  0.7692977480819752  0.8576867897403558  1.0000
  O   O9        1.0  0.532134987292693  0.06623492586048492  0.9421998246844864  1.0000
  O   O10       1.0  0.46788393517885407  0.43377010905155816  0.4421951732554561  1.0000
  O   O11       1.0  0.4678747613278417  0.9337654023774108  0.05780391469930628  1.0000
  O   O12       1.0  0.5321255752318094  0.5662294969262761  0.557806184646175  1.0000
  O   O13       1.0  0.5584235701402845  0.2144308988542961  0.9829290610220269  1.0000
  O   O14       1.0  0.4415707609664352  0.28557198792347555  0.48292736804246766  1.0000
  O   O15       1.0  0.44157864315172196  0.7855708166589327  0.0170680102305454  1.0000
  O   O16       1.0  0.5584198168111881  0.7144267622759346  0.5170687506353245  1.0000
  O   O17       1.0  0.5554186776182205  0.49560357333487565  0.8340935970385317  1.0000
  O   O18       1.0  0.44456860413169597  0.004388484173887301  0.33409574891566507  1.0000
  O   O19       1.0  0.44449068364888694  0.5043953174349342  0.16592347883401704  1.0000
  O   O20       1.0  0.5554581711334378  0.9956069218094542  0.6659156111677972  1.0000
  O   O21       1.0  0.3030436271487815  0.45031996839549754  0.7795414182599743  1.0000
  O   O22       1.0  0.6969368357290691  0.04967466928262351  0.2795408309672638  1.0000
  O   O23       1.0  0.6969152411629479  0.549663423715721  0.22045184267687995  1.0000
  O   O24       1.0  0.3030670951549083  0.9503241762951973  0.7204610032402669  1.0000
