data_image0
_chemical_formula_structural       In4H96C160N8O32
_chemical_formula_sum              "In4 H96 C160 N8 O32"
_cell_length_a       20.68403713589218
_cell_length_b       20.684376667510254
_cell_length_c       22.75726602052963
_cell_angle_alpha    103.15472967185262
_cell_angle_beta     105.17499206964607
_cell_angle_gamma    117.49510565328866

_space_group_name_H-M_alt    "P 1"
_space_group_IT_number       1

loop_
  _space_group_symop_operation_xyz
  'x, y, z'

loop_
  _atom_site_type_symbol
  _atom_site_label
  _atom_site_symmetry_multiplicity
  _atom_site_fract_x
  _atom_site_fract_y
  _atom_site_fract_z
  _atom_site_occupancy
  In  In1       1.0  0.0026923060659526095  0.0617681356870321  0.8134117412740808  1.0000
  In  In2       1.0  0.7484296812821184  0.18932957917536442  0.6865812942093895  1.0000
  In  In3       1.0  0.9973281618940816  0.938278876713241  0.18663202649640445  1.0000
  In  In4       1.0  0.25158081902866053  0.810638785657396  0.3133479512433794  1.0000
  H   H1        1.0  0.4732344217128102  0.796751916873049  0.4111756292070369  1.0000
  H   H2        1.0  0.8854936924644008  0.06191222032381923  0.08878888920338572  1.0000
  H   H3        1.0  0.5267366638822111  0.20324088889772443  0.588765040058334  1.0000
  H   H4        1.0  0.11456498828356836  0.9381376279166107  0.9112512826432565  1.0000
  H   H5        1.0  0.7270333877736518  0.968957518220762  0.6834113450274727  1.0000
  H   H6        1.0  0.7854325333618775  0.04355912481773321  0.8165500037868726  1.0000
  H   H7        1.0  0.2729769428657746  0.031072112549409822  0.3165930406146273  1.0000
  H   H8        1.0  0.21462980691613603  0.9564839640271501  0.1834711433673775  1.0000
  H   H9        1.0  0.28857975325122714  0.7007109020952741  0.47863519649042285  1.0000
  H   H10       1.0  0.7218360516331117  0.8098198415691585  0.021376711512658544  1.0000
  H   H11       1.0  0.7114154959540285  0.29927477524165624  0.521320022133466  1.0000
  H   H12       1.0  0.27819998691413167  0.1902081544888861  0.9786551090078037  1.0000
  H   H13       1.0  0.13446070027943344  0.029249184719319157  0.6879462379875038  1.0000
  H   H14       1.0  0.8412420366747425  0.4465380672805993  0.8121173150080593  1.0000
  H   H15       1.0  0.8654508946705519  0.9706859299749055  0.3120189562304745  1.0000
  H   H16       1.0  0.15870855369132641  0.5533926952793423  0.18790704590951895  1.0000
  H   H17       1.0  0.3721348796081259  0.42957050281100345  0.672400043717822  1.0000
  H   H18       1.0  0.25715159854842534  0.6999457399251341  0.827557634794893  1.0000
  H   H19       1.0  0.6278335424135548  0.5704052745910533  0.3275772638565897  1.0000
  H   H20       1.0  0.7428578737743693  0.3000534162090461  0.17244341547138484  1.0000
  H   H21       1.0  0.5569756499806217  0.7677318685444662  0.489548500118751  1.0000
  H   H22       1.0  0.7781728546034969  0.06729408533321651  0.010334986708258423  1.0000
  H   H23       1.0  0.4430266111618408  0.23229547271433412  0.5103888037291712  1.0000
  H   H24       1.0  0.22190456258040567  0.9327623086272967  0.9897167462873642  1.0000
  H   H25       1.0  0.5817878660868699  0.8623049983913307  0.61520694149565  1.0000
  H   H26       1.0  0.7469014852375863  0.966440027633901  0.8846836531207671  1.0000
  H   H27       1.0  0.41825396492104966  0.1377322154656967  0.3847674909160617  1.0000
  H   H28       1.0  0.2531632187865753  0.03362116374012909  0.1153518323579448  1.0000
  H   H29       1.0  0.10833119086077395  0.013083764767330358  0.47164626920563535  1.0000
  H   H30       1.0  0.04142548014802118  0.6366479795899949  0.028422138240870313  1.0000
  H   H31       1.0  0.8916182968120053  0.9868225878256995  0.5283327978245113  1.0000
  H   H32       1.0  0.958535411030013  0.36333411284692146  0.971623987103257  1.0000
  H   H33       1.0  0.29631385680502115  0.2940756177146185  0.6666836464706094  1.0000
  H   H34       1.0  0.1274123476947862  0.6297277697057027  0.8333069416105657  1.0000
  H   H35       1.0  0.7036588269609537  0.7058964093155141  0.3332841894748597  1.0000
  H   H36       1.0  0.8726050017340156  0.3702394063600992  0.16671737058317146  1.0000
  H   H37       1.0  0.37734531849623204  0.06712313450857016  0.4960772604586268  1.0000
  H   H38       1.0  0.07110685887413129  0.8812335161257537  0.00392837778390742  1.0000
  H   H39       1.0  0.6226125665881952  0.9328103675045298  0.5039084808398543  1.0000
  H   H40       1.0  0.9288711001415634  0.11877069566924084  0.996094901370796  1.0000
  H   H41       1.0  0.6336739381588075  0.6841636940439886  0.6265371522069643  1.0000
  H   H42       1.0  0.5577525397510358  0.007411425272785505  0.8736783348867193  1.0000
  H   H43       1.0  0.3663802833553405  0.31587631999861543  0.37344726734156813  1.0000
  H   H44       1.0  0.44231061715589703  0.9926732471780894  0.12635329467894965  1.0000
  H   H45       1.0  0.37150229355716385  0.6720133692086138  0.5577589687598845  1.0000
  H   H46       1.0  0.6140816415767533  0.8136324007100416  0.9421645867473674  1.0000
  H   H47       1.0  0.6285257633968442  0.32802076771566396  0.44221005707202476  1.0000
  H   H48       1.0  0.38596192986181416  0.18638734935984755  0.0578616083933952  1.0000
  H   H49       1.0  0.7787341056169623  0.7931525868366907  0.6974523782493591  1.0000
  H   H50       1.0  0.5958371667220136  0.08155809254988389  0.8027295432311236  1.0000
  H   H51       1.0  0.22130182813361188  0.20689705534821468  0.302546614061022  1.0000
  H   H52       1.0  0.4042363494566459  0.9185238640078169  0.19731122204123608  1.0000
  H   H53       1.0  0.21496594972003175  0.059176900584816505  0.6208917243356424  1.0000
  H   H54       1.0  0.9383545767808384  0.5940997859090659  0.8792298431429231  1.0000
  H   H55       1.0  0.7849865879929254  0.9407745076960907  0.37909946814281176  1.0000
  H   H56       1.0  0.061606456454143185  0.4058310478545408  0.12078585975870482  1.0000
  H   H57       1.0  0.34717840428881164  0.3329236645570859  0.4720994904379126  1.0000
  H   H58       1.0  0.36079498881559147  0.8752300781368874  0.027899853402338734  1.0000
  H   H59       1.0  0.6527835886980853  0.6670519529568966  0.527870805558564  1.0000
  H   H60       1.0  0.6392296262244272  0.12482943026382302  0.9721236470863347  1.0000
  H   H61       1.0  0.11980877267657766  0.9092694611306201  0.4013276599942445  1.0000
  H   H62       1.0  0.007895454529169364  0.7184628261330063  0.09867406553744466  1.0000
  H   H63       1.0  0.8801374870332949  0.09065011189299116  0.598642265114691  1.0000
  H   H64       1.0  0.9920587516030324  0.28151856983961926  0.9013630025476684  1.0000
  H   H65       1.0  0.36724792645520676  0.17155633023468655  0.5675946917841941  1.0000
  H   H66       1.0  0.10403762522526688  0.7996119843038231  0.9324739695233789  1.0000
  H   H67       1.0  0.6327002701113926  0.8283740400114041  0.43238256501398814  1.0000
  H   H68       1.0  0.8959420998992015  0.20039433198387963  0.0675564440836708  1.0000
  H   H69       1.0  0.41405402742831393  0.5682040952590556  0.467770074528147  1.0000
  H   H70       1.0  0.6004540823858092  0.9463690236533823  0.03221854086726946  1.0000
  H   H71       1.0  0.5859093433851684  0.43178803526810583  0.5321927044221442  1.0000
  H   H72       1.0  0.39957273515835107  0.05369699755865324  0.9678250631574273  1.0000
  H   H73       1.0  0.3495327208466392  0.4337418170798912  0.4662638756111122  1.0000
  H   H74       1.0  0.46747932909732987  0.883450391117414  0.03373239808490075  1.0000
  H   H75       1.0  0.6504394262851604  0.5662640273356346  0.5337190303748329  1.0000
  H   H76       1.0  0.5325292259178694  0.11659481644308323  0.9662881497278522  1.0000
  H   H77       1.0  0.06400946721209516  0.18568063547189698  0.6487532362317411  1.0000
  H   H78       1.0  0.036777263232415994  0.415110491355314  0.8509861164849469  1.0000
  H   H79       1.0  0.9358933042811017  0.8142494782764161  0.35117630986005116  1.0000
  H   H80       1.0  0.9632060706065461  0.5848126643899932  0.14907506570921908  1.0000
  H   H81       1.0  0.14003913724874195  0.21297021695302482  0.5780320790075066  1.0000
  H   H82       1.0  0.13485016416215234  0.5618253212465519  0.921789602827218  1.0000
  H   H83       1.0  0.8599220211016387  0.7869830719721592  0.4219408923326712  1.0000
  H   H84       1.0  0.8651385123409768  0.43809484124305703  0.078259015278384  1.0000
  H   H85       1.0  0.27102092423618274  0.19808108412232886  0.46604939200498313  1.0000
  H   H86       1.0  0.23202874596707806  0.8049918272115661  0.03397190480024655  1.0000
  H   H87       1.0  0.7289679494068864  0.8018987171570159  0.5339280641209427  1.0000
  H   H88       1.0  0.7679946420077073  0.19503812510031812  0.9660645885799755  1.0000
  H   H89       1.0  0.5382525542199659  0.670020493332949  0.6822317303166727  1.0000
  H   H90       1.0  0.4878271933455237  0.8559607479394986  0.8177376239722635  1.0000
  H   H91       1.0  0.4617432448616654  0.3299854462388724  0.3177336386599876  1.0000
  H   H92       1.0  0.5122164339158317  0.1440877892310937  0.1822684453180301  1.0000
  H   H93       1.0  0.4732351802728658  0.5357176387356547  0.6811909165272212  1.0000
  H   H94       1.0  0.35454368957715593  0.7920571586920462  0.8187752208425892  1.0000
  H   H95       1.0  0.5267509261053148  0.4642923860840824  0.31877790990954946  1.0000
  H   H96       1.0  0.6454833713583881  0.20795976821989373  0.18122674089878638  1.0000
  C   C1        1.0  0.7610891853314213  0.886857579502518  0.6941803517628813  1.0000
  C   C2        1.0  0.6927342229148863  0.06706568401354229  0.8059251552264328  1.0000
  C   C3        1.0  0.23892840000456056  0.11317495644042457  0.30581220346253707  1.0000
  C   C4        1.0  0.30734371981316133  0.9330124461311585  0.19410689881618742  1.0000
  C   C5        1.0  0.8481748825974051  0.9499586654871595  0.7357395255098638  1.0000
  C   C6        1.0  0.7142978162681715  0.11252145769817214  0.7643103577307288  1.0000
  C   C7        1.0  0.1518244391767993  0.05008394864810842  0.26429266806592017  1.0000
  C   C8        1.0  0.2857512068786079  0.8875074337508336  0.23567361004502635  1.0000
  C   C9        1.0  0.3766699304801904  0.7503684937735573  0.44090471750182303  1.0000
  C   C10       1.0  0.8092994408957068  0.9356281524668686  0.059101280710891005  1.0000
  C   C11       1.0  0.6233088190026379  0.24960629216485603  0.5590375811862174  1.0000
  C   C12       1.0  0.19072497935456312  0.06440622041430567  0.9409440068270103  1.0000
  C   C13       1.0  0.48089724165888004  0.6285701636300942  0.5750209421500756  1.0000
  C   C14       1.0  0.5535348950333726  0.9059023373088312  0.9249637751062281  1.0000
  C   C15       1.0  0.5191134649561704  0.3714473618162729  0.42494264400598786  1.0000
  C   C16       1.0  0.4465084457924107  0.09416986105323838  0.07506473678515847  1.0000
  C   C17       1.0  0.3288196229021521  0.77002236061616  0.3955956383269594  1.0000
  C   C18       1.0  0.8742447994731465  0.9330873851045355  0.10444874475099646  1.0000
  C   C19       1.0  0.6711435228560062  0.22992255527493916  0.6043304024576202  1.0000
  C   C20       1.0  0.12576925353493346  0.06694358140678972  0.8955963230813353  1.0000
  C   C21       1.0  0.45216377944355196  0.7693149656670358  0.44363794182931576  1.0000
  C   C22       1.0  0.8255809948240795  0.008390658420616062  0.05632701623391502  1.0000
  C   C23       1.0  0.547820961003282  0.23068129938621254  0.5563080162575957  1.0000
  C   C24       1.0  0.17447071624833643  0.9916545030023373  0.9437216877674289  1.0000
  C   C25       1.0  0.7056558508053357  0.9063486113223079  0.6707998128509018  1.0000
  C   C26       1.0  0.7355066914876219  0.03489420403372644  0.8292298282421983  1.0000
  C   C27       1.0  0.294364694557693  0.0936814831075949  0.32918793785328404  1.0000
  C   C28       1.0  0.26457059228091845  0.9651803822766925  0.17080871163815198  1.0000
  C   C29       1.0  0.5979208309335461  0.7657921405918487  0.6159427694244641  1.0000
  C   C30       1.0  0.6498535974446114  0.9820952779081795  0.8841223690703047  1.0000
  C   C31       1.0  0.402109961334844  0.23423020551585697  0.38401523685775635  1.0000
  C   C32       1.0  0.35022941013460235  0.018000022438840784  0.11593446606996591  1.0000
  C   C33       1.0  0.4689012159040473  0.7186304684788072  0.5280517813321595  1.0000
  C   C34       1.0  0.6904994154077638  0.9407479046993006  0.9718719149031045  1.0000
  C   C35       1.0  0.5311226674797282  0.2813972169014321  0.4719112715973709  1.0000
  C   C36       1.0  0.3095483394591554  0.059298480964109494  0.028167479654278838  1.0000
  C   C37       1.0  0.3471633166168147  0.714375047318697  0.48139594764658267  1.0000
  C   C38       1.0  0.7327885363608218  0.8656472503841215  0.018595313003231653  1.0000
  C   C39       1.0  0.652833029970921  0.2856159356633157  0.5185574013844274  1.0000
  C   C40       1.0  0.2672404472477723  0.1343842150099947  0.9814431912277543  1.0000
  C   C41       1.0  0.255040416783622  0.9219930841971263  0.4014980384282795  1.0000
  C   C42       1.0  0.020509486489537158  0.8535860079239868  0.09845500780832592  1.0000
  C   C43       1.0  0.7449178519860383  0.0779382827537917  0.5984284599485435  1.0000
  C   C44       1.0  0.9795381268907093  0.14646030308512784  0.901617632075059  1.0000
  C   C45       1.0  0.13646493287406242  0.06921488260201882  0.6634120571439227  1.0000
  C   C46       1.0  0.9057388591841615  0.4730309704558666  0.8365979645639997  1.0000
  C   C47       1.0  0.8634605986464834  0.930729727490288  0.336558129457373  1.0000
  C   C48       1.0  0.09422163429341886  0.52689593712374  0.16342434193359887  1.0000
  C   C49       1.0  0.23731046055680582  0.09843195519454895  0.52269286615266  1.0000
  C   C50       1.0  0.07575380410438719  0.7145358495225553  0.9773484398115572  1.0000
  C   C51       1.0  0.762641846239795  0.9015051830105635  0.4772831470251335  1.0000
  C   C52       1.0  0.9242339238935955  0.2854513218618635  0.022686322747752303  1.0000
  C   C53       1.0  0.35047263357991904  0.37931939390158936  0.6269780362480688  1.0000
  C   C54       1.0  0.2523284542308488  0.723680954574178  0.8729933459365854  1.0000
  C   C55       1.0  0.6494968132388976  0.6206610545500126  0.3729937501967271  1.0000
  C   C56       1.0  0.7476840722264128  0.27632911119680875  0.12701615118628942  1.0000
  C   C57       1.0  0.40596330882371484  0.47319947124059086  0.5735921314543547  1.0000
  C   C58       1.0  0.3996156090742105  0.8325185284063895  0.9263896912137285  1.0000
  C   C59       1.0  0.5940123859839445  0.5268016696481509  0.4263811836509887  1.0000
  C   C60       1.0  0.6004121667645492  0.1675435897362192  0.073619681628152  1.0000
  C   C61       1.0  0.49820533696326663  0.7533468254649309  0.4867983102248274  1.0000
  C   C62       1.0  0.7664932750104468  0.011280732226239692  0.013128996613645014  1.0000
  C   C63       1.0  0.5017992348831015  0.24666970945918382  0.5131514011052901  1.0000
  C   C64       1.0  0.23356243862340148  0.9887660360095938  0.9869159556186845  1.0000
  C   C65       1.0  0.2490819386398968  0.9828623402344264  0.44509710351565  1.0000
  C   C66       1.0  0.03775127433123522  0.8039593716801791  0.05488711606315635  1.0000
  C   C67       1.0  0.75086881158213  0.01705753870518836  0.5548528593151474  1.0000
  C   C68       1.0  0.9622590087071996  0.19605853054869013  0.9451672659342378  1.0000
  C   C69       1.0  0.3649577753473564  0.3929870661386445  0.5722300667100058  1.0000
  C   C70       1.0  0.32074770335588443  0.7929168068384059  0.9277469557140564  1.0000
  C   C71       1.0  0.6350145430635905  0.6070049907144793  0.4277428323103791  1.0000
  C   C72       1.0  0.6792678175500342  0.2071197482616327  0.07226203398469977  1.0000
  C   C73       1.0  0.624554996254865  0.8465679274650884  0.632554620301562  1.0000
  C   C74       1.0  0.7139283801365082  0.9919971995079707  0.8674310145386387  1.0000
  C   C75       1.0  0.37547507991749995  0.15345611199556702  0.3674116195678181  1.0000
  C   C76       1.0  0.2861546213694197  0.008091256067508868  0.1326216200466703  1.0000
  C   C77       1.0  0.09555388790602126  0.10630864315302092  0.672547863128564  1.0000
  C   C78       1.0  0.9336164298250936  0.42292507011080743  0.8273562890903392  1.0000
  C   C79       1.0  0.9043616162414098  0.8936320362439006  0.32741588316009285  1.0000
  C   C80       1.0  0.06635505300420151  0.5770030596315224  0.17267877493652858  1.0000
  C   C81       1.0  0.1669787122798071  0.02421311851922795  0.47721502467494065  1.0000
  C   C82       1.0  0.046998782699340325  0.689724924947363  0.022834476490963648  1.0000
  C   C83       1.0  0.8329772359478937  0.9757095862713998  0.5227633849342938  1.0000
  C   C84       1.0  0.9529701684496387  0.3102616384344757  0.9772012229700309  1.0000
  C   C85       1.0  0.30711014418372423  0.3029734528743405  0.6239635585587564  1.0000
  C   C86       1.0  0.17902083947864608  0.6832466771121163  0.8760351597700194  1.0000
  C   C87       1.0  0.6928641325242069  0.6970004044244433  0.3760052762892485  1.0000
  C   C88       1.0  0.8209922609749611  0.3167423876126705  0.12398855759140286  1.0000
  C   C89       1.0  0.3191487089806984  0.05664188555365982  0.49136285727923484  1.0000
  C   C90       1.0  0.06528760351948645  0.8277234560506769  0.008625998468289695  1.0000
  C   C91       1.0  0.6807988045550175  0.9432825668088257  0.5086005834853893  1.0000
  C   C92       1.0  0.9347095035031714  0.17228681098902154  0.9914152129017211  1.0000
  C   C93       1.0  0.6538726115167464  0.7464584442858568  0.639582949170631  1.0000
  C   C94       1.0  0.6069828172937903  0.014550112494696345  0.8606014324095171  1.0000
  C   C95       1.0  0.3461645235095289  0.2535735411173762  0.360384396664756  1.0000
  C   C96       1.0  0.3930964280253875  0.9855420938314768  0.13944627346018731  1.0000
  C   C97       1.0  0.2768422739169764  0.2360533948060494  0.5656656125554421  1.0000
  C   C98       1.0  0.17040628437209893  0.7111830894000734  0.9343595710857855  1.0000
  C   C99       1.0  0.7231275548499028  0.7639096483521259  0.43430709739843826  1.0000
  C   C100      1.0  0.8296016484813366  0.28880852029595877  0.06566972935793551  1.0000
  C   C101      1.0  0.1838232444866463  0.13931589248011997  0.5967121342326466  1.0000
  C   C102      1.0  0.042593430874894846  0.5870186860367781  0.9032752176607418  1.0000
  C   C103      1.0  0.8161336801155841  0.8606401518499781  0.4032691412128314  1.0000
  C   C104      1.0  0.9573940444533733  0.4129312779756802  0.09676752447969524  1.0000
  C   C105      1.0  0.39296760330103814  0.698479683384612  0.5249541399791016  1.0000
  C   C106      1.0  0.6733661323893685  0.8678971111298922  0.9749898210509045  1.0000
  C   C107      1.0  0.6070552645307004  0.30154428195660193  0.47501086909399254  1.0000
  C   C108      1.0  0.3266686943719392  0.1321379776568321  0.025042600844052704  1.0000
  C   C109      1.0  0.7343613520345186  0.8066161382753027  0.6786368792787343  1.0000
  C   C110      1.0  0.62809944626121  0.055982541379329405  0.8215401799553562  1.0000
  C   C111      1.0  0.2656692484369215  0.19342073988156733  0.3213466167799623  1.0000
  C   C112      1.0  0.37198314468748345  0.9441050814176322  0.17850190714423064  1.0000
  C   C113      1.0  0.1807995433940164  0.08569508526473882  0.6261654984161497  1.0000
  C   C114      1.0  0.9595283814675923  0.5546036309566775  0.8738702212413685  1.0000
  C   C115      1.0  0.8191432332157832  0.9142525566536153  0.3738135580252831  1.0000
  C   C116      1.0  0.04044469302901626  0.4453315003068071  0.1261604906729445  1.0000
  C   C117      1.0  0.33589171895339826  0.32541603734092217  0.5149653263200236  1.0000
  C   C118      1.0  0.3104308397776733  0.8210736105542652  0.9850227371178164  1.0000
  C   C119      1.0  0.6640728815136967  0.6745664537346344  0.48500818885483454  1.0000
  C   C120      1.0  0.6895881957389564  0.17896585225552297  0.014998711321041436  1.0000
  C   C121      1.0  0.17317463188046398  0.9667094535599433  0.4384859556737057  1.0000
  C   C122      1.0  0.0282063623224644  0.7346683874501706  0.06152882902419071  1.0000
  C   C123      1.0  0.8267792848519022  0.03321158315053201  0.5614820750709058  1.0000
  C   C124      1.0  0.9717744442435574  0.2653309899565672  0.9385175469922302  1.0000
  C   C125      1.0  0.3135106114394688  0.11434024021860993  0.5303645452079664  1.0000
  C   C126      1.0  0.0839967800638347  0.783063036605313  0.9696634453018123  1.0000
  C   C127      1.0  0.6864388142590555  0.8855881865730525  0.46960439294579004  1.0000
  C   C128      1.0  0.9159945429702319  0.2169357233467295  0.030373747815957496  1.0000
  C   C129      1.0  0.42699968595184146  0.5605924668268685  0.5143622720392145  1.0000
  C   C130      1.0  0.5462356856173539  0.912715019882235  0.9856305605520319  1.0000
  C   C131      1.0  0.5729882435412179  0.43941634929763757  0.48560717738321574  1.0000
  C   C132      1.0  0.4537974330064856  0.08735696530035854  0.014400270989987935  1.0000
  C   C133      1.0  0.39134028458527576  0.4850072891599596  0.5139221562673484  1.0000
  C   C134      1.0  0.47109120235419516  0.8775548591426842  0.9860712578850654  1.0000
  C   C135      1.0  0.6086368444325386  0.51500260281005  0.48605559789628217  1.0000
  C   C136      1.0  0.5289338206937727  0.12251582454154435  0.013952088059177487  1.0000
  C   C137      1.0  0.09677227473511624  0.1579606303958984  0.6414826223145129  1.0000
  C   C138      1.0  0.01633086215377236  0.4551397290266483  0.8583341346509672  1.0000
  C   C139      1.0  0.9031375385268632  0.8419684320221493  0.3584652744477026  1.0000
  C   C140      1.0  0.9836470944298981  0.5447882661670179  0.14171752373143684  1.0000
  C   C141      1.0  0.13976682435735902  0.17383711636789212  0.6031027709148375  1.0000
  C   C142      1.0  0.0706465576391365  0.5365097831690239  0.8967603592818634  1.0000
  C   C143      1.0  0.8601731984573605  0.8261056300510107  0.3968651759769345  1.0000
  C   C144      1.0  0.9293383106001941  0.46342753528396224  0.10329345483193453  1.0000
  C   C145      1.0  0.2933215520483614  0.24878364493722668  0.5113484354078608  1.0000
  C   C146      1.0  0.2374356277327012  0.7820297499011064  0.9886643506886374  1.0000
  C   C147      1.0  0.706652951660665  0.7511930671586955  0.48862778906426746  1.0000
  C   C148      1.0  0.7625799613511718  0.21798965177253393  0.01136373215871341  1.0000
  C   C149      1.0  0.4970251760862824  0.6179577757614184  0.6350223101003749  1.0000
  C   C150      1.0  0.4829466937576683  0.8620225576670255  0.8649466449891322  1.0000
  C   C151      1.0  0.5029705668726194  0.38205207774373673  0.3649406302063057  1.0000
  C   C152      1.0  0.5170991147074915  0.13804478079742927  0.13506642834460783  1.0000
  C   C153      1.0  0.4597524297573514  0.5420059369872875  0.6339996958456098  1.0000
  C   C154      1.0  0.4080207985519593  0.8258213199939066  0.8659748518969296  1.0000
  C   C155      1.0  0.540232523115634  0.4580026961206869  0.3659685715140597  1.0000
  C   C156      1.0  0.5920152512289009  0.17423383360229397  0.13403202371269882  1.0000
  C   C157      1.0  0.05587387318480115  0.09502784801836152  0.7190634084485625  1.0000
  C   C158      1.0  0.8756798770364893  0.33675212160014223  0.780841623277155  1.0000
  C   C159      1.0  0.9440677472305836  0.9049454529875051  0.28092888223980594  1.0000
  C   C160      1.0  0.12431376587426979  0.6631802854016443  0.21915415756257073  1.0000
  N   N1        1.0  0.5165748182512856  0.7046546890086988  0.5743724161129578  1.0000
  N   N2        1.0  0.630257866819477  0.9422038149013762  0.9256079744449225  1.0000
  N   N3        1.0  0.48345205429990296  0.2953663126382793  0.4255852520695385  1.0000
  N   N4        1.0  0.3698025078041169  0.05787058427377898  0.0744369443831232  1.0000
  N   N5        1.0  0.23198181965974368  0.15863402227960682  0.5614142797754839  1.0000
  N   N6        1.0  0.09725838322974996  0.6704864474862761  0.9386414280071946  1.0000
  N   N7        1.0  0.7679812426221417  0.8413209668103222  0.4385635775204548  1.0000
  N   N8        1.0  0.9027363565227658  0.32948852974772797  0.061391946513559496  1.0000
  O   O1        1.0  0.8943578840864815  0.9297879482363173  0.7619560910530296  1.0000
  O   O2        1.0  0.6679931735405091  0.13258909644491734  0.7381354564864538  1.0000
  O   O3        1.0  0.10564626313038161  0.07025913975964226  0.23807556545187947  1.0000
  O   O4        1.0  0.33204324187524753  0.8674126107397486  0.26181736533985867  1.0000
  O   O5        1.0  0.36158371303332604  0.8094032334629091  0.3644141477877625  1.0000
  O   O6        1.0  0.9448313265658684  0.997035348063065  0.13562881530256024  1.0000
  O   O7        1.0  0.6383948453236884  0.19054689593823343  0.6355189411200969  1.0000
  O   O8        1.0  0.05517740315163163  0.0030011144704005033  0.8644127465095863  1.0000
  O   O9        1.0  0.3210811013357215  0.9422535982316945  0.3967113639164098  1.0000
  O   O10       1.0  0.04544941528722992  0.9243649058175835  0.10314521127474308  1.0000
  O   O11       1.0  0.6788865278379889  0.0577008863527413  0.6032239495259477  1.0000
  O   O12       1.0  0.9546172557773999  0.07568744856432404  0.8969351354053998  1.0000
  O   O13       1.0  0.25801107001732493  0.7480714175022882  0.3894217003324627  1.0000
  O   O14       1.0  0.8584631550935029  0.868463602001114  0.11062438667568833  1.0000
  O   O15       1.0  0.7419429884329674  0.2518599146043529  0.6104803263632448  1.0000
  O   O16       1.0  0.14155829689842386  0.13157093812866788  0.8894250939500736  1.0000
  O   O17       1.0  0.8744097620036086  0.022237157174153498  0.7443469219655583  1.0000
  O   O18       1.0  0.7778885240878993  0.12998107101050513  0.7556175208369141  1.0000
  O   O19       1.0  0.12556444966014615  0.9778070969699045  0.2557120904786458  1.0000
  O   O20       1.0  0.22214811744557753  0.8700228902259044  0.24435163075018113  1.0000
  O   O21       1.0  0.19242619875671352  0.8509221697764174  0.3688308982038678  1.0000
  O   O22       1.0  0.982214834016048  0.8237124653266152  0.13121607759583032  1.0000
  O   O23       1.0  0.8075471332462881  0.14900304770316822  0.6310736473833956  1.0000
  O   O24       1.0  0.0178401470496467  0.17634623202827993  0.8688651444283693  1.0000
  O   O25       1.0  0.04220256125218917  0.035094726186308586  0.7348181904910833  1.0000
  O   O26       1.0  0.800021840591299  0.3074342848030655  0.7650902266114913  1.0000
  O   O27       1.0  0.957800586914324  0.9649243372640514  0.265229672110081  1.0000
  O   O28       1.0  0.19995711213069708  0.692493496554164  0.2348324552784007  1.0000
  O   O29       1.0  0.04037459858003707  0.14421874858984318  0.7428783095704575  1.0000
  O   O30       1.0  0.9009207706332134  0.297292007942474  0.7569857287351596  1.0000
  O   O31       1.0  0.959544917103578  0.8557431209240461  0.2570978516000936  1.0000
  O   O32       1.0  0.09910755587030451  0.7026646247422832  0.24303817616068815  1.0000
