data_image0
_chemical_formula_structural       Ag8H64C40N24
_chemical_formula_sum              "Ag8 H64 C40 N24"
_cell_length_a       11.946127030086503
_cell_length_b       12.026111849868261
_cell_length_c       12.523253497977286
_cell_angle_alpha    107.88366089116226
_cell_angle_beta     107.64940990768432
_cell_angle_gamma    111.26860867405121

_space_group_name_H-M_alt    "P 1"
_space_group_IT_number       1

loop_
  _space_group_symop_operation_xyz
  'x, y, z'

loop_
  _atom_site_type_symbol
  _atom_site_label
  _atom_site_symmetry_multiplicity
  _atom_site_fract_x
  _atom_site_fract_y
  _atom_site_fract_z
  _atom_site_occupancy
  Ag  Ag1       1.0  0.8140130341639206  0.6219281373640654  0.3973426552692345  1.0000
  Ag  Ag2       1.0  0.08342598239817513  0.7755022813600545  0.3973562748134397  1.0000
  Ag  Ag3       1.0  0.18598710193221982  0.37807277038625386  0.6026579809328041  1.0000
  Ag  Ag4       1.0  0.916573644900467  0.22449761707719765  0.6026431169840976  1.0000
  Ag  Ag5       1.0  0.86086184815165  0.40385821349806145  0.11369637759741379  1.0000
  Ag  Ag6       1.0  0.7530182554812441  0.7100340895417432  0.11375272117659546  1.0000
  Ag  Ag7       1.0  0.13913727072645782  0.5961406728568261  0.8863033661147596  1.0000
  Ag  Ag8       1.0  0.24698086301989966  0.2899647995824352  0.8862454262164405  1.0000
  H   H1        1.0  0.5260010685337092  0.25006448440674933  0.8954916584849072  1.0000
  H   H2        1.0  0.8694335805479128  0.6455737378095276  0.895687144172534  1.0000
  H   H3        1.0  0.4739985589534184  0.7499354126458541  0.10450853147219874  1.0000
  H   H4        1.0  0.1305669266270967  0.35442616171862074  0.10431330013265233  1.0000
  H   H5        1.0  0.38799600406027673  0.5103512309371182  0.1458107784991043  1.0000
  H   H6        1.0  0.25789339209328677  0.6353522442138128  0.14588308637431163  1.0000
  H   H7        1.0  0.6120050117237523  0.48964967928874586  0.8541901120510076  1.0000
  H   H8        1.0  0.7421071148932371  0.36464765669897753  0.854116559771299  1.0000
  H   H9        1.0  0.5536395068020923  0.6186459559625702  0.276535147942937  1.0000
  H   H10       1.0  0.22317725229920862  0.658015059443663  0.2766785732241955  1.0000
  H   H11       1.0  0.44636150898192983  0.3813549542632941  0.723465742607182  1.0000
  H   H12       1.0  0.7768223749994406  0.3419848389935821  0.7233208185733346  1.0000
  H   H13       1.0  0.35093240443493556  0.33640643884624666  0.2205198809529705  1.0000
  H   H14       1.0  0.369778838129605  0.8839861329427878  0.2203540474149294  1.0000
  H   H15       1.0  0.6490677314727263  0.6635944702887214  0.7794799570894924  1.0000
  H   H16       1.0  0.6302216690453973  0.11601376658535398  0.7796463968902572  1.0000
  H   H17       1.0  0.5192341532715545  0.4366372893142767  0.3445288195408978  1.0000
  H   H18       1.0  0.32544494062840096  0.9079861477992354  0.344270303996403  1.0000
  H   H19       1.0  0.4807654742155663  0.5633626077383269  0.6554713704162082  1.0000
  H   H20       1.0  0.6745555665466014  0.09201375172890638  0.6557301403087834  1.0000
  H   H21       1.0  0.3560088672753351  0.45949078650966857  0.4253860786334726  1.0000
  H   H22       1.0  0.5696410536353225  0.9661358199908248  0.4255722631932385  1.0000
  H   H23       1.0  0.6439916398996672  0.54050911301848  0.5746143656717067  1.0000
  H   H24       1.0  0.43035894493065996  0.033863068839608  0.5744277348670153  1.0000
  H   H25       1.0  0.30083633594972525  0.5205986814123519  0.3201464737602605  1.0000
  H   H26       1.0  0.5196313227635372  0.7997538982799242  0.320447252374926  1.0000
  H   H27       1.0  0.6991641712252771  0.4794012181157895  0.6798539705449257  1.0000
  H   H28       1.0  0.48036918422298674  0.20024600263286624  0.6795523937706848  1.0000
  H   H29       1.0  0.47018573183643747  0.6167975301791698  0.44436973753990827  1.0000
  H   H30       1.0  0.4743212969673251  0.8277754942978319  0.4444717465536954  1.0000
  H   H31       1.0  0.5298147755270505  0.38320236796432977  0.5556315049248467  1.0000
  H   H32       1.0  0.5256795809095821  0.17222339977743667  0.5555269095354873  1.0000
  H   H33       1.0  0.773694844473347  0.0021617894575242983  0.2977819408652209  1.0000
  H   H34       1.0  0.02452860909077963  0.29591759392479833  0.29768554365826816  1.0000
  H   H35       1.0  0.22630603321507417  0.9978371060023787  0.7022159170644001  1.0000
  H   H36       1.0  0.9754729153022621  0.7040843269987744  0.7023157931367832  1.0000
  H   H37       1.0  0.9555465913433422  0.8766605915717135  0.655022936624917  1.0000
  H   H38       1.0  0.19930845067620584  0.7782195830866455  0.655429025199652  1.0000
  H   H39       1.0  0.0444526648764381  0.12334031508770951  0.3449766470694798  1.0000
  H   H40       1.0  0.8006911766224362  0.22178031535060677  0.3445703665978853  1.0000
  H   H41       1.0  0.980448674707418  0.04249804639768939  0.7141128019404661  1.0000
  H   H42       1.0  0.233319704497269  0.6712857532704958  0.7143286620210603  1.0000
  H   H43       1.0  0.01954919321546782  0.9575018470884725  0.2858860811609104  1.0000
  H   H44       1.0  0.7666799228013801  0.32871414516675657  0.28567072977647706  1.0000
  H   H45       1.0  0.7315690401713653  0.9413627648080477  0.6645357110509308  1.0000
  H   H46       1.0  0.432766613381801  0.7229338918092335  0.6650604338897708  1.0000
  H   H47       1.0  0.2684297074394024  0.058637131153659504  0.3354634263985261  1.0000
  H   H48       1.0  0.5672352822785811  0.27706701950752677  0.3349415091679973  1.0000
  H   H49       1.0  0.7190168798620817  0.7815757791815655  0.6228153891953951  1.0000
  H   H50       1.0  0.40357310506782057  0.8409032176057207  0.6231893437873524  1.0000
  H   H51       1.0  0.2809813593281447  0.21842310469778428  0.377184100168698  1.0000
  H   H52       1.0  0.5964279109046802  0.15909769123548753  0.3768123449223353  1.0000
  H   H53       1.0  0.7643837603184591  0.8937431982606724  0.8500462961442777  1.0000
  H   H54       1.0  0.5856901575194013  0.9562750191891138  0.8502634117291094  1.0000
  H   H55       1.0  0.2356158671686686  0.10625669879193106  0.1499538938128282  1.0000
  H   H56       1.0  0.4143099789537034  0.04372588579190759  0.1497388207920736  1.0000
  H   H57       1.0  0.9037820272945609  0.8743778126565829  0.8462492346839456  1.0000
  H   H58       1.0  0.44258135478759164  0.9719393227331916  0.8465147684849794  1.0000
  H   H59       1.0  0.0962170912065829  0.1256210764675956  0.1537489127090907  1.0000
  H   H60       1.0  0.55741790180916  0.028061581156940497  0.15348641152854725  1.0000
  H   H61       1.0  0.9153687089152882  0.0344239913735862  0.8852249532627711  1.0000
  H   H62       1.0  0.4701291480195166  0.8510950809038957  0.8858557907191269  1.0000
  H   H63       1.0  0.08463040977434094  0.9655748963659503  0.11477399228983376  1.0000
  H   H64       1.0  0.5298706171862476  0.14890683368394514  0.11414583553933963  1.0000
  C   C1        1.0  0.5302305419263647  0.4475563051519487  0.13618631385464397  1.0000
  C   C2        1.0  0.10603584116780938  0.6885577692346274  0.13623272443083317  1.0000
  C   C3        1.0  0.46977047385765747  0.5524446050739086  0.8638145766954678  1.0000
  C   C4        1.0  0.8939648033488794  0.3114441505980566  0.8637675598565694  1.0000
  C   C5        1.0  0.5481145715717801  0.32200449331640607  0.9872834637672767  1.0000
  C   C6        1.0  0.9391679501623144  0.6653849882543525  0.9874573602940657  1.0000
  C   C7        1.0  0.4518850559153477  0.6779954037361974  0.012716726189829277  1.0000
  C   C8        1.0  0.06083204821519662  0.3346139019607292  0.012541839606612367  1.0000
  C   C9        1.0  0.4752047206042747  0.5120941345779784  0.21118471799565694  1.0000
  C   C10       1.0  0.23613108158048118  0.699047764842632  0.21120981298838604  1.0000
  C   C11       1.0  0.5247954154918659  0.487906773172341  0.7888159182063816  1.0000
  C   C12       1.0  0.7638685457181679  0.30095213359461326  0.788789578809151  1.0000
  C   C13       1.0  0.43254002153960164  0.44170118322762875  0.28721649421169815  1.0000
  C   C14       1.0  0.3548708276677884  0.8455509361414997  0.2871297809478221  1.0000
  C   C15       1.0  0.5674596059475261  0.5582987138249675  0.7127836957454079  1.0000
  C   C16       1.0  0.6451282912103197  0.1544479502133882  0.7128699627643512  1.0000
  C   C17       1.0  0.38740382956980557  0.5132718481906905  0.37373147361124376  1.0000
  C   C18       1.0  0.48657824572957475  0.8606698436286704  0.3738829875574508  1.0000
  C   C19       1.0  0.6125966776051966  0.48672805133745095  0.6262689706939355  1.0000
  C   C20       1.0  0.513421752647929  0.1393290465864041  0.6261162123432271  1.0000
  C   C21       1.0  0.8566260089443599  0.9198865208053344  0.5160464129569744  1.0000
  C   C22       1.0  0.1592892528269301  0.5961580198460651  0.5162673718086168  1.0000
  C   C23       1.0  0.1433763945711206  0.0801154067477228  0.4839527837074442  1.0000
  C   C24       1.0  0.8407117627686062  0.403842891764441  0.48373272058192635  1.0000
  C   C25       1.0  0.7959753095373543  0.9550050385022927  0.35642375071239474  1.0000
  C   C26       1.0  0.06078401823708641  0.40164124248570937  0.356425771258948  1.0000
  C   C27       1.0  0.2040246886516712  0.044993853097430786  0.6435746510287145  1.0000
  C   C28       1.0  0.9392161176705756  0.5983596666492587  0.6435740667835218  1.0000
  C   C29       1.0  0.9041225023088373  0.9356632383387192  0.6470367967721559  1.0000
  C   C30       1.0  0.24267477374512927  0.7111861960681976  0.6473893097790793  1.0000
  C   C31       1.0  0.0958748568165504  0.06433564583437597  0.35296084192471977  1.0000
  C   C32       1.0  0.7573271215382886  0.2888147180178462  0.35261103695955137  1.0000
  C   C33       1.0  0.7900861677957136  0.8909639872217098  0.6840428468656937  1.0000
  C   C34       1.0  0.39377904131891456  0.7928701927050381  0.6845018410536028  1.0000
  C   C35       1.0  0.20991345969140704  0.10903590983089369  0.3159573430914051  1.0000
  C   C36       1.0  0.606223363138973  0.20713172792478224  0.3155013464086664  1.0000
  C   C37       1.0  0.8462002796999427  0.9249805539763398  0.8238821622763053  1.0000
  C   C38       1.0  0.47774077672559645  0.8989011600916396  0.8242987806499895  1.0000
  C   C39       1.0  0.1537988389896796  0.07501833376318959  0.1761167832762922  1.0000
  C   C40       1.0  0.522258479871148  0.10109974379848546  0.1757023993635372  1.0000
  N   N1        1.0  0.658838210196727  0.47419660591879154  0.18516817987093498  1.0000
  N   N2        1.0  0.026519501683153864  0.7109887171782387  0.1852865753647278  1.0000
  N   N3        1.0  0.3411619258994136  0.5258043018315277  0.8148324563311036  1.0000
  N   N4        1.0  0.9734801256154882  0.2890111812590064  0.8147128164328096  1.0000
  N   N5        1.0  0.6704169446849946  0.3931420530208102  0.08921908574450298  1.0000
  N   N6        1.0  0.9189439644607091  0.6961987220033166  0.08940791286903498  1.0000
  N   N7        1.0  0.32958268280212605  0.6068578440317933  0.910781104212603  1.0000
  N   N8        1.0  0.08105515441739182  0.30380016435157126  0.9105918308431382  1.0000
  N   N9        1.0  0.457157526604  0.3520804036970232  0.012085630146870557  1.0000
  N   N10       1.0  0.05487610293495481  0.6599629280378777  0.012151731641573226  1.0000
  N   N11       1.0  0.5428431181011675  0.6479215147510046  0.9879154523001005  1.0000
  N   N12       1.0  0.9451244042400547  0.34003697149027085  0.9878487126636131  1.0000
  N   N13       1.0  0.8184256350957  0.8089613736397678  0.4129165153142295  1.0000
  N   N14       1.0  0.09455698288844855  0.6041157762166519  0.41316619518124037  1.0000
  N   N15       1.0  0.18157348359392955  0.19103751409976868  0.5870824302383683  1.0000
  N   N16       1.0  0.9054435240980753  0.39588412469613826  0.5868334509643702  1.0000
  N   N17       1.0  0.7792275735918676  0.8314965819793229  0.310202416946808  1.0000
  N   N18       1.0  0.031279443611651754  0.4790002864640426  0.3103141624295843  1.0000
  N   N19       1.0  0.2207720535182958  0.1685033178425783  0.6897961766911536  1.0000
  N   N20       1.0  0.9687214346422124  0.5209986048419281  0.6896860899787426  1.0000
  N   N21       1.0  0.8442222411134778  0.014631241208881799  0.48395407494973597  1.0000
  N   N22       1.0  0.1397670808055976  0.4693464228937997  0.4840208954682978  1.0000
  N   N23       1.0  0.15577701510630249  0.9853696654505414  0.5160455087446537  1.0000
  N   N24       1.0  0.8602343058688078  0.5306534804945356  0.5159790050253931  1.0000
