data_image0
_chemical_formula_structural       Zn4H40C44Br8N16O4
_chemical_formula_sum              "Zn4 H40 C44 Br8 N16 O4"
_cell_length_a       8.361711488583156
_cell_length_b       10.05378243620395
_cell_length_c       16.62702586309034
_cell_angle_alpha    90.00023217222474
_cell_angle_beta     89.99965435361219
_cell_angle_gamma    103.97978703745038

_space_group_name_H-M_alt    "P 1"
_space_group_IT_number       1

loop_
  _space_group_symop_operation_xyz
  'x, y, z'

loop_
  _atom_site_type_symbol
  _atom_site_label
  _atom_site_symmetry_multiplicity
  _atom_site_fract_x
  _atom_site_fract_y
  _atom_site_fract_z
  _atom_site_occupancy
  Zn  Zn1       1.0  0.7916408349423489  0.7388928166860464  0.10608662718535561  1.0000
  Zn  Zn2       1.0  0.7083567477311589  0.26110668411472204  0.6060853896334352  1.0000
  Zn  Zn3       1.0  0.20835849892491606  0.2611042838639576  0.8939145335127635  1.0000
  Zn  Zn4       1.0  0.29163959170440273  0.7388924644757039  0.393915169641275  1.0000
  H   H1        1.0  0.26408787540411527  0.24439474286931775  0.25677462438330423  1.0000
  H   H2        1.0  0.23590747919467958  0.7556075285049316  0.7567757195278733  1.0000
  H   H3        1.0  0.735909660153375  0.7556044063791987  0.7432253334591225  1.0000
  H   H4        1.0  0.7640873588821079  0.24439469379819193  0.24322544118336248  1.0000
  H   H5        1.0  0.11695372931490058  0.08975885917334378  0.3734714151851861  1.0000
  H   H6        1.0  0.3830463611356335  0.9102439462484496  0.8734718416778406  1.0000
  H   H7        1.0  0.8830524760374343  0.9102413197000984  0.6265279412148672  1.0000
  H   H8        1.0  0.6169550597322127  0.08975622999125926  0.1265293190208894  1.0000
  H   H9        1.0  0.32030795749389535  0.3988503619752776  0.14652590744536553  1.0000
  H   H10       1.0  0.17968558691762118  0.6011493566329376  0.646526192810285  1.0000
  H   H11       1.0  0.6796961525848387  0.6011508405879623  0.8534728475286502  1.0000
  H   H12       1.0  0.8202970013004388  0.39884773467917967  0.35347256219135664  1.0000
  H   H13       1.0  0.7920931413766326  0.7162638425648992  0.2856929832189934  1.0000
  H   H14       1.0  0.7079085061235587  0.28373647840435  0.7856912011351157  1.0000
  H   H15       1.0  0.20790888169510416  0.2837342843113645  0.7143069746153614  1.0000
  H   H16       1.0  0.29209350866873507  0.7162657478541518  0.21430935813475574  1.0000
  H   H17       1.0  0.9358438929245236  0.5172951117353646  0.1646666671558066  1.0000
  H   H18       1.0  0.564154854943375  0.4827067061753282  0.6646658097518099  1.0000
  H   H19       1.0  0.06415841882839152  0.48270813953322284  0.8353338921148749  1.0000
  H   H20       1.0  0.4358450645624857  0.5172965437784499  0.3353365538139101  1.0000
  H   H21       1.0  0.37872165040909067  0.5338145924415655  0.0273639636784466  1.0000
  H   H22       1.0  0.1212806387129035  0.4661856131709072  0.5273646966029659  1.0000
  H   H23       1.0  0.6212797704651647  0.4661855837954078  0.972635994159333  1.0000
  H   H24       1.0  0.8787186868845466  0.5338155867572354  0.47263526123925464  1.0000
  H   H25       1.0  0.32169292936666943  0.730940074253894  0.9519126825875333  1.0000
  H   H26       1.0  0.17830872490113586  0.26905898986812093  0.4519137126898514  1.0000
  H   H27       1.0  0.6783069984314594  0.2690590763121747  0.04808667382079081  1.0000
  H   H28       1.0  0.8216914998576142  0.730941185708026  0.5480856437192755  1.0000
  H   H29       1.0  0.07120898131395852  0.8167303026108144  0.989268014640814  1.0000
  H   H30       1.0  0.42879317366355707  0.18326790705651055  0.4892686752018988  1.0000
  H   H31       1.0  0.9287942296098847  0.1832719243016854  0.010730138905358901  1.0000
  H   H32       1.0  0.5712097485694868  0.816729195467765  0.5107306811993695  1.0000
  H   H33       1.0  0.981951143262634  0.027383411901254796  0.12311797624249012  1.0000
  H   H34       1.0  0.5180501430537134  0.972617193352619  0.6231184610322416  1.0000
  H   H35       1.0  0.01804788537740623  0.9726167630154304  0.876881380168456  1.0000
  H   H36       1.0  0.48194978473800615  0.0273819572161855  0.3768820982370258  1.0000
  H   H37       1.0  0.9430763691940881  0.8553441837935054  0.4008758813808414  1.0000
  H   H38       1.0  0.5569231505466945  0.1446576853943923  0.900874817805537  1.0000
  H   H39       1.0  0.056928046115082495  0.144653944401675  0.5991240764498826  1.0000
  H   H40       1.0  0.44307737115984475  0.8553435151973044  0.0991269443262865  1.0000
  C   C1        1.0  0.08574460217977278  0.29746015055134484  0.181702604498831  1.0000
  C   C2        1.0  0.4142512644837096  0.7025366549974804  0.6817048322746473  1.0000
  C   C3        1.0  0.9142520342356659  0.7025400230409531  0.8182943461938594  1.0000
  C   C4        1.0  0.5857432849151037  0.29746044291195517  0.31829512556979017  1.0000
  C   C5        1.0  0.049517447337201786  0.027792153238159787  0.3249865226493328  1.0000
  C   C6        1.0  0.4504810732767621  0.9722073559783763  0.824986896474073  1.0000
  C   C7        1.0  0.9504863657905315  0.9722080243108876  0.6750104280324649  1.0000
  C   C8        1.0  0.5495188545085412  0.027791794593156293  0.17501486565613797  1.0000
  C   C9        1.0  0.16404440647886528  0.5112532969268314  0.10343980360246262  1.0000
  C   C10       1.0  0.3359552811343746  0.4887452040113088  0.6034417444458882  1.0000
  C   C11       1.0  0.8359594066424519  0.4887468806249584  0.8965583499402783  1.0000
  C   C12       1.0  0.6640401591398868  0.5112549689311122  0.3965594162619155  1.0000
  C   C13       1.0  0.868823733830581  0.819478435044047  0.2772025994254222  1.0000
  C   C14       1.0  0.6311765111530007  0.18052082164027178  0.7772007970046957  1.0000
  C   C15       1.0  0.13117709312885487  0.18051969117001923  0.7227961555498015  1.0000
  C   C16       1.0  0.36882222052641106  0.8194783282663352  0.22279855940544024  1.0000
  C   C17       1.0  0.05844029266366849  0.07890700678171919  0.24651553251796096  1.0000
  C   C18       1.0  0.4415599641191221  0.9210911211879776  0.7465158079936032  1.0000
  C   C19       1.0  0.9415608312595932  0.9210921444410686  0.753482621027608  1.0000
  C   C20       1.0  0.5584384705900547  0.0789070037126507  0.2534853527071377  1.0000
  C   C21       1.0  0.02593056959421594  0.5627300328597256  0.1192649149723479  1.0000
  C   C22       1.0  0.4740686439994872  0.4372716144171063  0.6192639044768953  1.0000
  C   C23       1.0  0.9740717421554944  0.43727321841023326  0.8807362457287979  1.0000
  C   C24       1.0  0.5259324716315062  0.5627316361933975  0.3807372562260696  1.0000
  C   C25       1.0  0.27208151928193297  0.5731980691236342  0.042192442143814915  1.0000
  C   C26       1.0  0.22791612416020968  0.42680322630192785  0.5421927546825245  1.0000
  C   C27       1.0  0.727920198552944  0.42680313212342463  0.9578075156947748  1.0000
  C   C28       1.0  0.7720790108771992  0.5732000210112814  0.4578084060295069  1.0000
  C   C29       1.0  0.24051259987334095  0.6836651557454444  0.0004563580533201  1.0000
  C   C30       1.0  0.25948937405231476  0.3163369768522201  0.5004587093868269  1.0000
  C   C31       1.0  0.7594909162809385  0.3163339967989954  0.9995429983495541  1.0000
  C   C32       1.0  0.7405072540580163  0.6836672961332652  0.49954365418514624  1.0000
  C   C33       1.0  0.10217424045326592  0.7306642227175927  0.0200446147285334  1.0000
  C   C34       1.0  0.39782334226627813  0.26933594696744473  0.5200452278901508  1.0000
  C   C35       1.0  0.8978277743454437  0.26933800353818077  0.9799547416803946  1.0000
  C   C36       1.0  0.602176280285377  0.7306662779735119  0.47995593281381593  1.0000
  C   C37       1.0  0.9732426973373265  0.9938662612736378  0.18571966734380405  1.0000
  C   C38       1.0  0.5267552320436764  0.006133602370304898  0.6857195582841982  1.0000
  C   C39       1.0  0.02675454126595869  0.006131862962064399  0.8142790876368694  1.0000
  C   C40       1.0  0.47324200654677634  0.9938645218708686  0.3142816024183546  1.0000
  C   C41       1.0  0.952418409639783  0.8969548838921424  0.3402240609534744  1.0000
  C   C42       1.0  0.5475823592410336  0.1030446600827304  0.8402229236240757  1.0000
  C   C43       1.0  0.04758420735640099  0.10304529300292127  0.6597752954520217  1.0000
  C   C44       1.0  0.4524199607913245  0.8969544918036189  0.1597770342110891  1.0000
  Br  Br1       1.0  0.6070127620955857  0.5413360577132449  0.16345050195955219  1.0000
  Br  Br2       1.0  0.8929887044846436  0.45865858223785927  0.6634515944008685  1.0000
  Br  Br3       1.0  0.3929934598220369  0.4586559223929782  0.8365464487085319  1.0000
  Br  Br4       1.0  0.10701272465943386  0.5413374946209756  0.3365495662928168  1.0000
  Br  Br5       1.0  0.727928829656193  0.8641113110873632  0.9945578597635888  1.0000
  Br  Br6       1.0  0.7720822376764287  0.1358971401660725  0.4945534669644331  1.0000
  Br  Br7       1.0  0.2720708011813143  0.13588681446861978  0.005441496643925302  1.0000
  Br  Br8       1.0  0.2279176901152908  0.8641020104027249  0.5054470923048271  1.0000
  N   N1        1.0  0.880995310850366  0.8675902355807991  0.2010988310127289  1.0000
  N   N2        1.0  0.6190054489332792  0.13240764996369586  0.7010969474769695  1.0000
  N   N3        1.0  0.1190028269110144  0.13240686430427928  0.7988999239653225  1.0000
  N   N4        1.0  0.3809941819074395  0.8675904755909226  0.2989018075000729  1.0000
  N   N5        1.0  0.9974087567324972  0.6696548459461268  0.0780024340321148  1.0000
  N   N6        1.0  0.5025939099682616  0.3303445297651918  0.5780025925007521  1.0000
  N   N7        1.0  0.0025941572211038806  0.33034635596038686  0.921997523804663  1.0000
  N   N8        1.0  0.4974084100480595  0.669654622128  0.4220003724867638  1.0000
  N   N9        1.0  0.15313674375942546  0.2099294118323556  0.2269504148753896  1.0000
  N   N10       1.0  0.3468607272798109  0.7900706751944282  0.7269506563233961  1.0000
  N   N11       1.0  0.8468622848902354  0.7900707630802372  0.7730471372441414  1.0000
  N   N12       1.0  0.6531365113138462  0.20992744904537358  0.273049902948685  1.0000
  N   N13       1.0  0.19937764421205625  0.4030880446730406  0.1468232028639136  1.0000
  N   N14       1.0  0.3006185862252194  0.5969127016168229  0.64682371212497  1.0000
  N   N15       1.0  0.8006252697415447  0.596913157233473  0.853176754972857  1.0000
  N   N16       1.0  0.6993717726103481  0.40308644367905083  0.353178050019757  1.0000
  O   O1        1.0  0.9341935675939084  0.2802810750780012  0.17176325841039394  1.0000
  O   O2        1.0  0.5658080990132958  0.7197187270670325  0.6717623761809578  1.0000
  O   O3        1.0  0.06580516409833584  0.7197180748231345  0.8282336922778556  1.0000
  O   O4        1.0  0.4341963080196436  0.2802835005090215  0.3282375816548112  1.0000
