data_image0
_chemical_formula_structural       Cd4H12C8Br4N16
_chemical_formula_sum              "Cd4 H12 C8 Br4 N16"
_cell_length_a       6.499740505023773
_cell_length_b       7.992838641038455
_cell_length_c       10.486037786015146
_cell_angle_alpha    90.00017845261864
_cell_angle_beta     90.00007254264416
_cell_angle_gamma    90.00030502899122

_space_group_name_H-M_alt    "P 1"
_space_group_IT_number       1

loop_
  _space_group_symop_operation_xyz
  'x, y, z'

loop_
  _atom_site_type_symbol
  _atom_site_label
  _atom_site_symmetry_multiplicity
  _atom_site_fract_x
  _atom_site_fract_y
  _atom_site_fract_z
  _atom_site_occupancy
  Cd  Cd1       1.0  0.9933504318369445  0.6887139453316352  0.75616859236564  1.0000
  Cd  Cd2       1.0  0.5066522979754211  0.31128776627583227  0.25616881235023936  1.0000
  Cd  Cd3       1.0  0.0066493748276599  0.18871171981949433  0.743833135220065  1.0000
  Cd  Cd4       1.0  0.4933518678351021  0.8112877974408049  0.24383394717651902  1.0000
  H   H1        1.0  0.7636023822756712  0.8039150449466989  0.0092440020655147  1.0000
  H   H2        1.0  0.7363936666755607  0.1960869033526649  0.5092424261702675  1.0000
  H   H3        1.0  0.2363909651502212  0.30391982331043016  0.49075397180880037  1.0000
  H   H4        1.0  0.2636061886966202  0.6960782060914071  0.99075264327373  1.0000
  H   H5        1.0  0.869051071585524  0.7206384923327462  0.13993105580568974  1.0000
  H   H6        1.0  0.6309452561581425  0.27936149061707033  0.6399315047606465  1.0000
  H   H7        1.0  0.1309448024104753  0.22064103059978632  0.3600657677823591  1.0000
  H   H8        1.0  0.3690536111647872  0.7793577130388557  0.8600666222668212  1.0000
  H   H9        1.0  0.6763378241982282  0.1618796429654594  0.991418768041271  1.0000
  H   H10       1.0  0.8236669459789211  0.838114277265028  0.49142333068770233  1.0000
  H   H11       1.0  0.323663343651738  0.6618904913677638  0.5085800352511286  1.0000
  H   H12       1.0  0.17633585864000167  0.3381143150335006  0.008584260427518604  1.0000
  C   C1        1.0  0.7143289961143039  0.2933886776804755  0.9818786324267992  1.0000
  C   C2        1.0  0.7856788308253682  0.7066252212886112  0.4818857170299184  1.0000
  C   C3        1.0  0.2856684254011909  0.7933843889375967  0.5181157131248  1.0000
  C   C4        1.0  0.21433541274703316  0.20660294097365287  0.0181225172357244  1.0000
  C   C5        1.0  0.751174912733198  0.5530992636152307  0.018022994466122103  1.0000
  C   C6        1.0  0.7488242319888768  0.4469002185255703  0.5180258347203336  1.0000
  C   C7        1.0  0.24882139234521358  0.0531053103191539  0.4819743871757823  1.0000
  C   C8        1.0  0.2511757427786705  0.9468939341396309  0.9819755488500734  1.0000
  Br  Br1       1.0  0.30274045125419496  0.4366892873458213  0.7201153334265558  1.0000
  Br  Br2       1.0  0.19726535636839765  0.5633076302418161  0.2201134304968306  1.0000
  Br  Br3       1.0  0.6972563789952559  0.9366903408433135  0.7798850723918705  1.0000
  Br  Br4       1.0  0.80274178584704  0.0633127193050882  0.2798849289014171  1.0000
  N   N1        1.0  0.8366237838925129  0.5226840380430743  0.903982987081058  1.0000
  N   N2        1.0  0.663373107166379  0.47731828080265604  0.40398467028596496  1.0000
  N   N3        1.0  0.16337030974365516  0.022688132802194602  0.5960145338781189  1.0000
  N   N4        1.0  0.3366290790506596  0.9773107771896435  0.0960156203210687  1.0000
  N   N5        1.0  0.6721775021953462  0.4120104030242473  0.0702093353767665  1.0000
  N   N6        1.0  0.8278248308850849  0.587983037919045  0.5702144753111826  1.0000
  N   N7        1.0  0.3278211753312092  0.9120179951800014  0.42978889374141727  1.0000
  N   N8        1.0  0.1721773869968928  0.0879835371380437  0.9297917826745563  1.0000
  N   N9        1.0  0.7481815334870845  0.7115737393518985  0.07677368397504133  1.0000
  N   N10       1.0  0.75181619804831  0.28842723525941943  0.5767742449817704  1.0000
  N   N11       1.0  0.25181428059759975  0.21157830641094222  0.42322407186042454  1.0000
  N   N12       1.0  0.24818426770990953  0.7884194455714493  0.9232239034479194  1.0000
  N   N13       1.0  0.8106837085214877  0.35527407408936545  0.8805745100622675  1.0000
  N   N14       1.0  0.6893177481584304  0.6447256463569745  0.3805747007157408  1.0000
  N   N15       1.0  0.18931412210778825  0.8552810485111665  0.6194266571721203  1.0000
  N   N16       1.0  0.3106822395852831  0.14471795765322076  0.11942671185897075  1.0000
