data_image0
_chemical_formula_structural       Zn2H24C32O12
_chemical_formula_sum              "Zn2 H24 C32 O12"
_cell_length_a       7.9229334744115505
_cell_length_b       7.965641947794138
_cell_length_c       11.654948188050886
_cell_angle_alpha    82.67336896182837
_cell_angle_beta     78.64071383822758
_cell_angle_gamma    72.56738495881318

_space_group_name_H-M_alt    "P 1"
_space_group_IT_number       1

loop_
  _space_group_symop_operation_xyz
  'x, y, z'

loop_
  _atom_site_type_symbol
  _atom_site_label
  _atom_site_symmetry_multiplicity
  _atom_site_fract_x
  _atom_site_fract_y
  _atom_site_fract_z
  _atom_site_occupancy
  Zn  Zn1       1.0  0.023131407088776368  0.7440096904176341  0.5068980673105941  1.0000
  Zn  Zn2       1.0  0.9768702670759098  0.25598573618903225  0.4931028040589993  1.0000
  H   H1        1.0  0.20138454263665304  0.6906142273092112  0.16129261850094423  1.0000
  H   H2        1.0  0.7986089607472097  0.30939178920074534  0.8387077096009462  1.0000
  H   H3        1.0  0.36380763443354175  0.5744692660476358  0.9712743857700518  1.0000
  H   H4        1.0  0.6361897338928699  0.4255367402916048  0.02872540771137007  1.0000
  H   H5        1.0  0.1093241980424722  0.15613521200852884  0.040456531392827295  1.0000
  H   H6        1.0  0.8906768259751987  0.8438668990586675  0.9595404817188464  1.0000
  H   H7        1.0  0.3750149579707339  0.521990427245967  0.7939714293521262  1.0000
  H   H8        1.0  0.6249829671539969  0.47800903265374467  0.20602707573526396  1.0000
  H   H9        1.0  0.5815214419978715  0.8742655136570219  0.7765222974696755  1.0000
  H   H10       1.0  0.4184867515283131  0.12572978098093293  0.22348197174243004  1.0000
  H   H11       1.0  0.3695724618220382  0.003063002162065194  0.9496670918296954  1.0000
  H   H12       1.0  0.630434637083141  0.9969362039709466  0.050338743563187856  1.0000
  H   H13       1.0  0.6266572498006654  0.6502643721023271  0.5357209921310613  1.0000
  H   H14       1.0  0.3733312663209105  0.3497364536999328  0.4642778528388121  1.0000
  H   H15       1.0  0.5964799183400231  0.6252687090803304  0.6922542297498708  1.0000
  H   H16       1.0  0.40351135254498155  0.37473604104976477  0.3077447890049783  1.0000
  H   H17       1.0  0.4085001937500935  0.6543482420831521  0.6173728618639059  1.0000
  H   H18       1.0  0.5914898389125938  0.3456472840461871  0.3826270400411218  1.0000
  H   H19       1.0  0.8070496262809782  0.062214518391954195  0.28792685561298004  1.0000
  H   H20       1.0  0.19295054690071817  0.9377861848841246  0.7120738165967779  1.0000
  H   H21       1.0  0.03013810949684637  0.9997853341446329  0.20869792726395534  1.0000
  H   H22       1.0  0.9698604001249223  0.00021669168904030068  0.7913028733626674  1.0000
  H   H23       1.0  0.8475527544736609  0.11993827682261575  0.1326670088426383  1.0000
  H   H24       1.0  0.1524490822679638  0.8800611038958761  0.8673335349502551  1.0000
  C   C1        1.0  0.061879777884605906  0.4938287564871258  0.20975340549458824  1.0000
  C   C2        1.0  0.9381155671942449  0.5061798685735537  0.7902473243890639  1.0000
  C   C3        1.0  0.17912186605493466  0.5752334105311827  0.13267791974401896  1.0000
  C   C4        1.0  0.820874151724823  0.424772691212304  0.8673186208429229  1.0000
  C   C5        1.0  0.27031904306549864  0.5095483295390366  0.02634343666887417  1.0000
  C   C6        1.0  0.7296797951276661  0.4904524461377874  0.9736548404217302  1.0000
  C   C7        1.0  0.24974099919344186  0.3540031570461223  0.9928581880094427  1.0000
  C   C8        1.0  0.7502548871256138  0.6459989445785367  0.007140395704851719  1.0000
  C   C9        1.0  0.13029615946687303  0.27310822662247597  0.0671911952551199  1.0000
  C   C10       1.0  0.869701046282593  0.7268938256049464  0.9328089258030017  1.0000
  C   C11       1.0  0.03524997535865279  0.3409945176037894  0.17382984239043958  1.0000
  C   C12       1.0  0.9647470021638969  0.6590128309063059  0.8261690435256952  1.0000
  C   C13       1.0  0.3595082245843173  0.27363295195561926  0.8851030416178104  1.0000
  C   C14       1.0  0.6404949315877319  0.726366379365629  0.11489903951891017  1.0000
  C   C15       1.0  0.4221838786722785  0.3795994399402501  0.7912174070209871  1.0000
  C   C16       1.0  0.5778140464524455  0.6204000199594617  0.20878109806639603  1.0000
  C   C17       1.0  0.5419801393547915  0.3072278916804265  0.692590437684366  1.0000
  C   C18       1.0  0.45802201040012147  0.6927702618847106  0.3074067247971826  1.0000
  C   C19       1.0  0.6025818546946198  0.12074108285698767  0.6869554532120219  1.0000
  C   C20       1.0  0.39742294947924256  0.8792569489101607  0.313045641732515  1.0000
  C   C21       1.0  0.5330564239065865  0.016926070726540787  0.7804671998838231  1.0000
  C   C22       1.0  0.46694930889382386  0.9830732538142184  0.21953452483925423  1.0000
  C   C23       1.0  0.4133276075779476  0.08952622124650127  0.8772170057779576  1.0000
  C   C24       1.0  0.5866785315844467  0.9104717381199022  0.12278648428572575  1.0000
  C   C25       1.0  0.553493432886988  0.5975254733572867  0.6143579367805643  1.0000
  C   C26       1.0  0.44649805066682546  0.40247400349363  0.38564145934093835  1.0000
  C   C27       1.0  0.9006508579901791  0.10221765839673219  0.21521618550546157  1.0000
  C   C28       1.0  0.09934967487915002  0.8977817487154949  0.7847836787189308  1.0000
  C   C29       1.0  0.7416022156773963  0.02867693525220718  0.592300982470924  1.0000
  C   C30       1.0  0.2583990676834275  0.9713198335253207  0.4076989813333897  1.0000
  C   C31       1.0  0.9853666084177561  0.5662547203587778  0.3264180921645731  1.0000
  C   C32       1.0  0.014634346371664716  0.43374329857559246  0.6735843951757516  1.0000
  O   O1        1.0  0.9164116028799966  0.2655302631606843  0.24501812371176615  1.0000
  O   O2        1.0  0.08358847695300402  0.7344705781364024  0.7549774018460409  1.0000
  O   O3        1.0  0.016136331822593792  0.710474426511908  0.3421004140403454  1.0000
  O   O4        1.0  0.9838658646066634  0.28952365804272506  0.657899321767182  1.0000
  O   O5        1.0  0.6051790754159613  0.40994137727623314  0.6035018738530055  1.0000
  O   O6        1.0  0.3948226835350895  0.5900581184597582  0.3964943810632562  1.0000
  O   O7        1.0  0.8100482921766882  0.11223532949320257  0.5030270845788536  1.0000
  O   O8        1.0  0.1899517184280625  0.8877614196710581  0.4969739152076115  1.0000
  O   O9        1.0  0.7905701437564687  0.8594446953907419  0.6042213492372  1.0000
  O   O10       1.0  0.20943283428051987  0.14055070482218207  0.3957802017009016  1.0000
  O   O11       1.0  0.8966970460904451  0.48854658934718026  0.4081519339899059  1.0000
  O   O12       1.0  0.10330369944768591  0.5114475444858754  0.5918483076011469  1.0000
