data_image0
_chemical_formula_structural       Zn4H64C40N8O20
_chemical_formula_sum              "Zn4 H64 C40 N8 O20"
_cell_length_a       7.6396809530031575
_cell_length_b       11.431873963000854
_cell_length_c       13.953257188006537
_cell_angle_alpha    89.9999595879633
_cell_angle_beta     90.00010284520175
_cell_angle_gamma    90.00001868696187

_space_group_name_H-M_alt    "P 1"
_space_group_IT_number       1

loop_
  _space_group_symop_operation_xyz
  'x, y, z'

loop_
  _atom_site_type_symbol
  _atom_site_label
  _atom_site_symmetry_multiplicity
  _atom_site_fract_x
  _atom_site_fract_y
  _atom_site_fract_z
  _atom_site_occupancy
  Zn  Zn1       1.0  0.9274377126169427  0.5406951065254545  0.5745915855440841  1.0000
  Zn  Zn2       1.0  0.5725607941446498  0.4593061785870631  0.0745913343604414  1.0000
  Zn  Zn3       1.0  0.4274376317434019  0.9593062748470229  0.425408132146039  1.0000
  Zn  Zn4       1.0  0.0725608448773514  0.040693722594468795  0.9254090395391046  1.0000
  H   H1        1.0  0.1901850731058587  0.7159574673222762  0.9506610716540749  1.0000
  H   H2        1.0  0.309814795544277  0.28404513248320745  0.45066187015370224  1.0000
  H   H3        1.0  0.690183544820947  0.7840429875849254  0.0493384136673143  1.0000
  H   H4        1.0  0.80981749677521  0.21595394566988796  0.5493380194384656  1.0000
  H   H5        1.0  0.0637489759026835  0.6684074606871631  0.0470368853030863  1.0000
  H   H6        1.0  0.4362508739115897  0.3315937393040329  0.5470365485058295  1.0000
  H   H7        1.0  0.5637478255338878  0.8315938414056203  0.9529631928636347  1.0000
  H   H8        1.0  0.9362519259429406  0.16840449166333823  0.45296274824035976  1.0000
  H   H9        1.0  0.1085663025911785  0.5090719013328524  0.8726033311392527  1.0000
  H   H10       1.0  0.3914346182283667  0.4909281418567063  0.3726033741057862  1.0000
  H   H11       1.0  0.6085651320467207  0.9909276610350659  0.1273967909226315  1.0000
  H   H12       1.0  0.8914322394701985  0.0090692045934162  0.6273965954239032  1.0000
  H   H13       1.0  0.8512319748802143  0.8092739183787926  0.731862993487937  1.0000
  H   H14       1.0  0.6487683582057286  0.1907254809876591  0.23186225448279174  1.0000
  H   H15       1.0  0.35123124557640045  0.6907265716342577  0.2681373662437849  1.0000
  H   H16       1.0  0.14876802262994465  0.3092735620591397  0.7681374773769392  1.0000
  H   H17       1.0  0.5816983663577631  0.6144204603471763  0.6990748741996596  1.0000
  H   H18       1.0  0.918301858866684  0.3855798421723973  0.19907428729348456  1.0000
  H   H19       1.0  0.08169784000093472  0.885579970910868  0.3009259382260296  1.0000
  H   H20       1.0  0.4183015360682917  0.11442013437631718  0.8009257085505794  1.0000
  H   H21       1.0  0.5964714280772868  0.6993522485557688  0.8041141306944083  1.0000
  H   H22       1.0  0.903530451646468  0.30064796296324653  0.30411357808822  1.0000
  H   H23       1.0  0.09646920577654332  0.8006490606696416  0.1958866961991177  1.0000
  H   H24       1.0  0.40352982474878013  0.19935201036546593  0.6958864032883839  1.0000
  H   H25       1.0  0.5025810773869424  0.793432263029189  0.6052278791872041  1.0000
  H   H26       1.0  0.9974188391123207  0.20656724604736354  0.1052274725586813  1.0000
  H   H27       1.0  0.0025794634447891002  0.7065672762353188  0.394772139071172  1.0000
  H   H28       1.0  0.4974202213468432  0.2934318730010689  0.8947718840961087  1.0000
  H   H29       1.0  0.27842670142928944  0.7316120270779508  0.7801998361367737  1.0000
  H   H30       1.0  0.22157260645601443  0.26838809616580045  0.2801984071651233  1.0000
  H   H31       1.0  0.7784257262660007  0.7683884470648081  0.2197997356098682  1.0000
  H   H32       1.0  0.721573258182474  0.23161183749930103  0.7197999626431795  1.0000
  H   H33       1.0  0.27692643521454136  0.6592039997628588  0.6671760669238722  1.0000
  H   H34       1.0  0.2230751187706232  0.34079622139925897  0.1671745978457793  1.0000
  H   H35       1.0  0.7769258671952742  0.8407964740529081  0.33282350335358757  1.0000
  H   H36       1.0  0.7230747980188922  0.15920371259326768  0.832823773433624  1.0000
  H   H37       1.0  0.2000921265980367  0.8057827550337106  0.6769407323321631  1.0000
  H   H38       1.0  0.2999081505558722  0.19421745766827317  0.17694013935044242  1.0000
  H   H39       1.0  0.7000914549288809  0.6942177020331924  0.3230587626927388  1.0000
  H   H40       1.0  0.7999078692073597  0.30578249307251326  0.8230590238587824  1.0000
  H   H41       1.0  0.6402218609166683  0.9457983256753052  0.7157067666147796  1.0000
  H   H42       1.0  0.8597784190237265  0.05420196243456129  0.21570774602516  1.0000
  H   H43       1.0  0.1402211181387258  0.5542012435934538  0.2842926697726327  1.0000
  H   H44       1.0  0.3597782032133807  0.44579887610375124  0.7842929091786317  1.0000
  H   H45       1.0  0.4711311613004342  0.9152354774969778  0.8000439899012548  1.0000
  H   H46       1.0  0.0288695208229157  0.08476462855436039  0.3000439109872417  1.0000
  H   H47       1.0  0.9711313402077125  0.5847650386528899  0.19995577058317346  1.0000
  H   H48       1.0  0.5288675789604724  0.4152361378503713  0.6999557034407503  1.0000
  H   H49       1.0  0.41934872023318803  0.9738269651487526  0.6856133184792412  1.0000
  H   H50       1.0  0.08065158545161212  0.026173240039483396  0.1856133239247981  1.0000
  H   H51       1.0  0.9193479380325229  0.5261735397131346  0.3143863912883305  1.0000
  H   H52       1.0  0.5806513575751779  0.4738266629057008  0.8143870578988341  1.0000
  H   H53       1.0  0.9060852768129096  0.7312455328287653  0.8807909935524307  1.0000
  H   H54       1.0  0.5939142372434175  0.26875373751329323  0.3807915893758463  1.0000
  H   H55       1.0  0.4060840956605604  0.768754094394602  0.1192087032248068  1.0000
  H   H56       1.0  0.09391206470824191  0.23124441882862357  0.6192080887584057  1.0000
  H   H57       1.0  0.933122569632083  0.7758411546619114  0.5790119940564863  1.0000
  H   H58       1.0  0.5668772606265763  0.2241601266210793  0.0790118723272002  1.0000
  H   H59       1.0  0.4331236684258499  0.7241602279499235  0.4209877292020394  1.0000
  H   H60       1.0  0.06687741156242312  0.2758406480690637  0.9209877793270776  1.0000
  H   H61       1.0  0.7371837161854061  0.7162419882079617  0.5618596476995492  1.0000
  H   H62       1.0  0.7628160576468446  0.2837593079351919  0.0618589669747251  1.0000
  H   H63       1.0  0.23718359153205887  0.7837584769444703  0.4381398836535979  1.0000
  H   H64       1.0  0.26281492697065545  0.21624063471992366  0.9381401599056077  1.0000
  C   C1        1.0  0.3010899794595332  0.5738333254546432  0.0247963435282372  1.0000
  C   C2        1.0  0.198908488235773  0.4261705180462839  0.5247957199699655  1.0000
  C   C3        1.0  0.8010889484066227  0.9261689031222246  0.9752046837716578  1.0000
  C   C4        1.0  0.6989095672815894  0.0738285359305451  0.4752040609983439  1.0000
  C   C5        1.0  0.14163203740096014  0.6362408574816171  0.986193992813746  1.0000
  C   C6        1.0  0.35836794814062506  0.3637617115399506  0.48619479309341074  1.0000
  C   C7        1.0  0.6416304311256907  0.8637595868413614  0.0138061616326794  1.0000
  C   C8        1.0  0.8583704935799902  0.13623650244984728  0.5138051440525189  1.0000
  C   C9        1.0  0.026704331415707803  0.5667553295431488  0.9164131170065275  1.0000
  C   C10       1.0  0.47329673352359  0.43324467569177477  0.4164132732718073  1.0000
  C   C11       1.0  0.5267029886032619  0.9332442149799361  0.08358692487860249  1.0000
  C   C12       1.0  0.9732968567054598  0.06675268860315238  0.5835874931144502  1.0000
  C   C13       1.0  0.8938387813480662  0.4894618610951511  0.9709184002189276  1.0000
  C   C14       1.0  0.6061636471076994  0.5105382059126595  0.4709188692050433  1.0000
  C   C15       1.0  0.39383848665673343  0.010536360626808499  0.0290808549876544  1.0000
  C   C16       1.0  0.10616261304234341  0.9894604811846149  0.5290805338254216  1.0000
  C   C17       1.0  0.9088482596445501  0.6281443781927577  0.7613809127628173  1.0000
  C   C18       1.0  0.5911547884607415  0.3718567450944191  0.2613828800374378  1.0000
  C   C19       1.0  0.40884883057901783  0.87185524963278  0.2386195033999172  1.0000
  C   C20       1.0  0.09115295843108134  0.12814316013983523  0.7386182287509229  1.0000
  C   C21       1.0  0.8098623816143233  0.7228585219475574  0.7053924761369074  1.0000
  C   C22       1.0  0.6901378643952327  0.27714264984543746  0.2053931613862403  1.0000
  C   C23       1.0  0.3098617815572738  0.777141959047796  0.2946071263984251  1.0000
  C   C24       1.0  0.19013757372588466  0.2228581517135027  0.7946073276693824  1.0000
  C   C25       1.0  0.6144052949444686  0.7021943381637569  0.7257933576935969  1.0000
  C   C26       1.0  0.8855950181760761  0.29780594120795456  0.225793505832435  1.0000
  C   C27       1.0  0.1144046378598631  0.7978061002242567  0.2742067700870692  1.0000
  C   C28       1.0  0.38559334135690904  0.20219402821095395  0.7742064579774635  1.0000
  C   C29       1.0  0.48377675489635413  0.7895054868123379  0.6834511837916255  1.0000
  C   C30       1.0  0.016222234719109  0.21049472024930788  0.1834503036184358  1.0000
  C   C31       1.0  0.9837773787085953  0.7104950320941512  0.3165485890782803  1.0000
  C   C32       1.0  0.516223232966091  0.2895051686518996  0.816548581745792  1.0000
  C   C33       1.0  0.2988266435323084  0.743715940178873  0.7027340591836264  1.0000
  C   C34       1.0  0.2011724095176248  0.25628425017699646  0.20273333386050751  1.0000
  C   C35       1.0  0.7988272262555114  0.7562845384106539  0.2972662492222824  1.0000
  C   C36       1.0  0.7011720130306855  0.24371567904071864  0.797265732645606  1.0000
  C   C37       1.0  0.5059845844011194  0.9127188667220807  0.723432505044201  1.0000
  C   C38       1.0  0.9940157209533852  0.08728141469485708  0.22343288025546573  1.0000
  C   C39       1.0  0.005983832350125301  0.5872815480319743  0.2765667998692436  1.0000
  C   C40       1.0  0.4940154635869051  0.41271945310569425  0.7765671897435027  1.0000
  N   N1        1.0  0.9381428331329078  0.6491234041793562  0.8533752119313149  1.0000
  N   N2        1.0  0.5618552817797636  0.3508776394086863  0.35337572920119703  1.0000
  N   N3        1.0  0.43814309119700573  0.8508753552853746  0.14662379956592286  1.0000
  N   N4        1.0  0.06185446831565142  0.14912225943908908  0.646624634212813  1.0000
  N   N5        1.0  0.8491439543629369  0.710689087479153  0.6024014924923051  1.0000
  N   N6        1.0  0.6508559528394359  0.2893121735403382  0.10240141560230141  1.0000
  N   N7        1.0  0.34914369905150994  0.7893114020787806  0.3975988651946167  1.0000
  N   N8        1.0  0.15085468608482697  0.210688619455567  0.8975990349796348  1.0000
  O   O1        1.0  0.400104693307931  0.6294243721857454  0.0820804918170879  1.0000
  O   O2        1.0  0.09989658074432131  0.37057854693988185  0.5820805198832488  1.0000
  O   O3        1.0  0.9001047556397669  0.8705778779744974  0.9179220658167111  1.0000
  O   O4        1.0  0.5998948805641364  0.1294204854521368  0.4179220308243358  1.0000
  O   O5        1.0  0.33943478053807047  0.4693417276554541  0.9989502989425532  1.0000
  O   O6        1.0  0.16056524696487173  0.5306617050626556  0.4989493763003878  1.0000
  O   O7        1.0  0.8394316607977006  0.030660855942656398  0.0010496196559586  1.0000
  O   O8        1.0  0.6605679129906792  0.9693361191466109  0.5010500800137692  1.0000
  O   O9        1.0  0.918490315367137  0.38128099804725935  0.9754191845856399  1.0000
  O   O10       1.0  0.581509509983654  0.6187216893030295  0.4754188506294028  1.0000
  O   O11       1.0  0.41848744075211647  0.11871897854194909  0.0245815281202866  1.0000
  O   O12       1.0  0.08150840832360731  0.8812769924199629  0.5245805282544538  1.0000
  O   O13       1.0  0.7651734635393339  0.545684017082415  0.0093894236058958  1.0000
  O   O14       1.0  0.7348287555941083  0.4543181992657494  0.5093888190636093  1.0000
  O   O15       1.0  0.2651726216464638  0.9543147046768824  0.9906101351609209  1.0000
  O   O16       1.0  0.23482606946755882  0.0456826120349447  0.4906117137616661  1.0000
  O   O17       1.0  0.9513093679181142  0.5327444680140586  0.7214275656568319  1.0000
  O   O18       1.0  0.5486935487495614  0.46725843938241224  0.22142656985086262  1.0000
  O   O19       1.0  0.45130618997198013  0.967254294320121  0.2785721754127337  1.0000
  O   O20       1.0  0.0486957304721898  0.03274233134414569  0.7785730639950543  1.0000
