data_image0
_chemical_formula_structural       Zn2H66C68Br6N2O8
_chemical_formula_sum              "Zn2 H66 C68 Br6 N2 O8"
_cell_length_a       15.917760632056913
_cell_length_b       18.77119740000173
_cell_length_c       19.50252247332931
_cell_angle_alpha    89.5293805399516
_cell_angle_beta     92.18946714777518
_cell_angle_gamma    89.96244679153548

_space_group_name_H-M_alt    "P 1"
_space_group_IT_number       1

loop_
  _space_group_symop_operation_xyz
  'x, y, z'

loop_
  _atom_site_type_symbol
  _atom_site_label
  _atom_site_symmetry_multiplicity
  _atom_site_fract_x
  _atom_site_fract_y
  _atom_site_fract_z
  _atom_site_occupancy
  Zn  Zn1       1.0  0.4997840263501062  0.4194259121594541  0.4969400454233013  1.0000
  Zn  Zn2       1.0  0.4935124836513012  0.5798548645755021  0.4941697079817545  1.0000
  H   H1        1.0  0.9272390587695298  0.5056459888271193  0.4021312433234742  1.0000
  H   H2        1.0  0.933645960889784  0.6116838603531677  0.4830555570290402  1.0000
  H   H3        1.0  0.0737305041030183  0.5126953128086528  0.41138140146203045  1.0000
  H   H4        1.0  0.08022950151197251  0.6108141218923963  0.5000540328853306  1.0000
  H   H5        1.0  0.07108257221910459  0.5888603765874622  0.5876039120707335  1.0000
  H   H6        1.0  0.07593023975321243  0.42246491184031504  0.4372238428537329  1.0000
  H   H7        1.0  0.9247314267136844  0.5984006664206447  0.5721664165187123  1.0000
  H   H8        1.0  0.9288623494010299  0.4185424794252058  0.43692516158662215  1.0000
  H   H9        1.0  0.06575229070067931  0.39151484171856055  0.5644540823343719  1.0000
  H   H10       1.0  0.07087233685354731  0.4596048536369678  0.6263207307635669  1.0000
  H   H11       1.0  0.9188166887718554  0.39855112114215535  0.5647086387442216  1.0000
  H   H12       1.0  0.9243409144021871  0.4720630486817682  0.6206210553595852  1.0000
  H   H13       1.0  0.3959694444716888  0.5778215365208936  0.7055989558297143  1.0000
  H   H14       1.0  0.5995112358998613  0.4278056215028841  0.7167102955254877  1.0000
  H   H15       1.0  0.3931243128550435  0.5789444015214259  0.833781781096697  1.0000
  H   H16       1.0  0.600602537182077  0.4318237365914257  0.8450961611441631  1.0000
  H   H17       1.0  0.3726853700556348  0.5393113957801462  0.14774400066922772  1.0000
  H   H18       1.0  0.6299604612261048  0.47019792010225103  0.15711110072169282  1.0000
  H   H19       1.0  0.6087724734991584  0.16468116704782426  0.5683409926732426  1.0000
  H   H20       1.0  0.5915522158662724  0.8336797166025463  0.5790309543964443  1.0000
  H   H21       1.0  0.5360826803157012  0.06870518027511001  0.3941119071055753  1.0000
  H   H22       1.0  0.5365564552308654  0.9368241946339213  0.39207843164812334  1.0000
  H   H23       1.0  0.47348854947239977  0.9312424700346611  0.6049387530012851  1.0000
  H   H24       1.0  0.47392592890047786  0.06364760889341169  0.6071056773196022  1.0000
  H   H25       1.0  0.2161079075182855  0.48036384324569065  0.3676512817059178  1.0000
  H   H26       1.0  0.16787493600516976  0.5200084304790239  0.2931691809848972  1.0000
  H   H27       1.0  0.16328275903421033  0.4262661380813455  0.3052822063451828  1.0000
  H   H28       1.0  0.2728479475870174  0.45593295131504163  0.21980260890165948  1.0000
  H   H29       1.0  0.3207831692799488  0.41833804411236036  0.29444785612723484  1.0000
  H   H30       1.0  0.35325532045246183  0.5413890440680902  0.3385204808170031  1.0000
  H   H31       1.0  0.310409044723599  0.5779143423232612  0.2607157488387842  1.0000
  H   H32       1.0  0.8124183736548076  0.4347293719201417  0.3459795677303107  1.0000
  H   H33       1.0  0.7647106628717212  0.34983098437368915  0.3394217843501438  1.0000
  H   H34       1.0  0.8437890467246022  0.3745056410298702  0.2817544158404958  1.0000
  H   H35       1.0  0.6981074349438076  0.3831498666551597  0.2251198198968254  1.0000
  H   H36       1.0  0.7493329106316297  0.46639818519671644  0.2272368440393677  1.0000
  H   H37       1.0  0.6719249941417332  0.501590914034665  0.3299241172399122  1.0000
  H   H38       1.0  0.6275967213357134  0.41687406245964104  0.3362034578478089  1.0000
  H   H39       1.0  0.7702384119783687  0.21038127676522583  0.58232029579046  1.0000
  H   H40       1.0  0.7242473886059743  0.1974682295256613  0.49883399787397315  1.0000
  H   H41       1.0  0.821640276404466  0.2420676078983349  0.5089414770851735  1.0000
  H   H42       1.0  0.7042997155632664  0.33095152548854406  0.48489363292412707  1.0000
  H   H43       1.0  0.7564444467033271  0.34492099486515576  0.5641124707637462  1.0000
  H   H44       1.0  0.6119055855114511  0.3605775791982921  0.5837911618146592  1.0000
  H   H45       1.0  0.6415801287980686  0.2790821222831569  0.6234893212501192  1.0000
  H   H46       1.0  0.6214804600206777  0.7861166182319014  0.713271706442349  1.0000
  H   H47       1.0  0.5171492489811842  0.8028768990593776  0.681284155170971  1.0000
  H   H48       1.0  0.5344109681471566  0.7566382335236029  0.7599870657128351  1.0000
  H   H49       1.0  0.49420424614694275  0.6703586423712339  0.6655480300351118  1.0000
  H   H50       1.0  0.5941397457844175  0.6529130452923227  0.7024415443103822  1.0000
  H   H51       1.0  0.608416517169367  0.6382164101909212  0.5832692467195459  1.0000
  H   H52       1.0  0.6590029051848846  0.7191427743783336  0.6037731425009129  1.0000
  H   H53       1.0  0.2856380389962752  0.35045500319552053  0.8212583288355689  1.0000
  H   H54       1.0  0.2646126042226342  0.30895665615142326  0.9009735700023145  1.0000
  H   H55       1.0  0.19468477499076906  0.37459382603064745  0.8657365611899909  1.0000
  H   H56       1.0  0.2860747485313269  0.42668693144019443  0.9610433498016352  1.0000
  H   H57       1.0  0.3067198373522686  0.46821357227898375  0.8819068086029209  1.0000
  H   H58       1.0  0.43147127821491443  0.39004038243681555  0.8688633475276861  1.0000
  H   H59       1.0  0.4105221926777177  0.3458374804758861  0.9468414570643165  1.0000
  H   H60       1.0  0.6933608215975225  0.6662676711682141  0.817530989100405  1.0000
  H   H61       1.0  0.721772204676789  0.7105867902696162  0.8951013852951137  1.0000
  H   H62       1.0  0.7903165505493491  0.645953883205955  0.8615734030830071  1.0000
  H   H63       1.0  0.7125359190298823  0.5933905373475455  0.9599510702155528  1.0000
  H   H64       1.0  0.6839317508743367  0.5497987296810365  0.882615903438712  1.0000
  H   H65       1.0  0.5555685314862019  0.6266108249346802  0.8694456006482981  1.0000
  H   H66       1.0  0.5836496615456356  0.6696934054259175  0.9473345666896765  1.0000
  C   C1        1.0  0.49725213357161385  0.4993031713142386  0.36478434193646353  1.0000
  C   C2        1.0  0.3383520480423456  0.4920918585256119  0.5080448974903504  1.0000
  C   C3        1.0  0.5010664203393134  0.5031212395147976  0.62721544570244  1.0000
  C   C4        1.0  0.6590079810852459  0.5014605704415092  0.4970522796479529  1.0000
  C   C5        1.0  0.0493306973154333  0.47480049817982467  0.4489048078885176  1.0000
  C   C6        1.0  0.0502031223315242  0.5736651556713783  0.5353652374660172  1.0000
  C   C7        1.0  0.9532393873106388  0.5767698750393537  0.526293123573609  1.0000
  C   C8        1.0  0.9523619442296507  0.47295900233684335  0.4451983823094849  1.0000
  C   C9        1.0  0.7498904056958365  0.5024684564351177  0.501789963471751  1.0000
  C   C10       1.0  0.08187212815688132  0.4972399960870959  0.5215841700675983  1.0000
  C   C11       1.0  0.91733216284225  0.501282889421752  0.5127964091574457  1.0000
  C   C12       1.0  0.9476569389091197  0.4512183807179824  0.5723841349853984  1.0000
  C   C13       1.0  0.0448193917684563  0.4459701613810481  0.5751115417840185  1.0000
  C   C14       1.0  0.8262177672424971  0.502497101773649  0.5073653958652073  1.0000
  C   C15       1.0  0.17300178517646003  0.4945404287649995  0.522811312539915  1.0000
  C   C16       1.0  0.24892796258391314  0.49252423860924227  0.518321999455658  1.0000
  C   C17       1.0  0.44028025754667516  0.5457858801437256  0.7367090064131576  1.0000
  C   C18       1.0  0.5552832502794589  0.4613442579714331  0.7430319792398451  1.0000
  C   C19       1.0  0.4390603433197739  0.5464300601229015  0.8080652489711257  1.0000
  C   C20       1.0  0.5555096054314674  0.46359334378136213  0.8143619598643499  1.0000
  C   C21       1.0  0.49735294007941633  0.5060507159281756  0.8477051297585234  1.0000
  C   C22       1.0  0.4984317060180176  0.5031866758568315  0.7037670509618367  1.0000
  C   C23       1.0  0.4554030369260005  0.45271696894917574  0.9589180142574211  1.0000
  C   C24       1.0  0.5419592219331335  0.5619953635842521  0.9592621941682754  1.0000
  C   C25       1.0  0.4589762950414099  0.4542466491077945  0.03081438008794631  1.0000
  C   C26       1.0  0.54273092090839  0.5599923770223469  0.03122815844479021  1.0000
  C   C27       1.0  0.5018858993657177  0.5070888539656337  0.06887171144094853  1.0000
  C   C28       1.0  0.49791817248837594  0.5072553598227857  0.9241322432070548  1.0000
  C   C29       1.0  0.42891554932264603  0.523948354002151  0.17818063591860786  1.0000
  C   C30       1.0  0.5735432778942738  0.484629297839142  0.18375687879144212  1.0000
  C   C31       1.0  0.4257297151623902  0.5200301424786103  0.24965019850194642  1.0000
  C   C32       1.0  0.5730078395819546  0.4808206165280994  0.25530192517111777  1.0000
  C   C33       1.0  0.49857490793227305  0.4996630674164778  0.28764751468974487  1.0000
  C   C34       1.0  0.50213538425065  0.5064612867519145  0.14500581663978815  1.0000
  C   C35       1.0  0.5615697884116599  0.267165561491666  0.5353950434530219  1.0000
  C   C36       1.0  0.5452202267430906  0.731956942276547  0.5453938323625138  1.0000
  C   C37       1.0  0.5604808510840515  0.19277633949417353  0.5376716502599663  1.0000
  C   C38       1.0  0.5484825694918455  0.8062825953110747  0.5434447390392381  1.0000
  C   C39       1.0  0.50055562140156  0.15358834187544096  0.5001648534137432  1.0000
  C   C40       1.0  0.4992069379230771  0.8465225884848736  0.4967453568708891  1.0000
  C   C41       1.0  0.4386568293744872  0.19195779571839475  0.46235197827094526  1.0000
  C   C42       1.0  0.4459773937253004  0.8087269161973583  0.450937874052201  1.0000
  C   C43       1.0  0.4409214947836945  0.26684276037055094  0.46328314182338215  1.0000
  C   C44       1.0  0.44698739800403336  0.7338672302434476  0.45346034384243694  1.0000
  C   C45       1.0  0.5224332248470205  0.03846256355386401  0.44032163479876374  1.0000
  C   C46       1.0  0.5223732641469285  0.9645100698018685  0.439132352373399  1.0000
  C   C47       1.0  0.5034283316024571  0.9252094084758936  0.49808003525603095  1.0000
  C   C48       1.0  0.5037668165015533  0.07473064359285081  0.5004873073194177  1.0000
  C   C49       1.0  0.4880882771288242  0.9614418471413514  0.5588795721189967  1.0000
  C   C50       1.0  0.4882900149467632  0.03574426229175032  0.5601390251004689  1.0000
  C   C51       1.0  0.34309300441317  0.5309859651166988  0.28338331393403854  1.0000
  C   C52       1.0  0.28577177176038054  0.4653973281696366  0.27490015398463913  1.0000
  C   C53       1.0  0.20380962301310754  0.47327982203152175  0.3122545698709658  1.0000
  C   C54       1.0  0.6486980044031938  0.4564877225526446  0.298537721716329  1.0000
  C   C55       1.0  0.721685632773614  0.42516174920637445  0.260012908533156  1.0000
  C   C56       1.0  0.7895978296706332  0.3943656955115032  0.309265858327251  1.0000
  C   C57       1.0  0.6312267706562055  0.3059143895202966  0.5733573672766212  1.0000
  C   C58       1.0  0.7152581646425133  0.30711858791904945  0.5360760407337894  1.0000
  C   C59       1.0  0.7598064621078823  0.2353497178443149  0.5313785458756828  1.0000
  C   C60       1.0  0.5971240207356702  0.6928656205434081  0.5995004620536692  1.0000
  C   C61       1.0  0.558143270472442  0.6920517692794945  0.6708711231924342  1.0000
  C   C62       1.0  0.5578322126419196  0.7633227605761878  0.7080294140348046  1.0000
  C   C63       1.0  0.4054023709322649  0.39730610236385633  0.9196721924201372  1.0000
  C   C64       1.0  0.3119132751993449  0.41735027303851524  0.9103126932275247  1.0000
  C   C65       1.0  0.2613099842818585  0.35977194576484817  0.8724723965614419  1.0000
  C   C66       1.0  0.5872791372372745  0.6188227018422979  0.9200159455908692  1.0000
  C   C67       1.0  0.6801996625759656  0.6010004353461582  0.9094940287949743  1.0000
  C   C68       1.0  0.7239203706153674  0.6590600993375805  0.8687223112755975  1.0000
  Br  Br1       1.0  0.4046181342090449  0.3796281975083957  0.08034047070901103  1.0000
  Br  Br2       1.0  0.6006103429186781  0.6336034750566599  0.08165281284229313  1.0000
  Br  Br3       1.0  0.3518958923006821  0.14218078709321708  0.41406864484078915  1.0000
  Br  Br4       1.0  0.3711460416632306  0.8579850502809948  0.389301230427698  1.0000
  Br  Br5       1.0  0.3555670909363542  0.3172320752959906  0.41419010352260716  1.0000
  Br  Br6       1.0  0.3784327431453819  0.6832439717011171  0.39020379133179983  1.0000
  N   N1        1.0  0.5014104192042907  0.30378249230811616  0.49796245626668434  1.0000
  N   N2        1.0  0.4948631192100663  0.6959879239242213  0.4993010811602617  1.0000
  O   O1        1.0  0.47982429818101474  0.4407999626551773  0.3943775180028625  1.0000
  O   O2        1.0  0.5134655529906099  0.5584986848871979  0.3936991456585376  1.0000
  O   O3        1.0  0.3783020167249732  0.43530858806611417  0.5247229522031633  1.0000
  O   O4        1.0  0.3685032371635302  0.5484532280071692  0.4818394884716782  1.0000
  O   O5        1.0  0.5292071745312797  0.447424770020227  0.5992402521735658  1.0000
  O   O6        1.0  0.4754623952888225  0.5596057608418336  0.5962479215471036  1.0000
  O   O7        1.0  0.6247747194454121  0.4424834802067891  0.4803462425679968  1.0000
  O   O8        1.0  0.6218983204573192  0.5595175069730374  0.510465132944468  1.0000
