data_image0
_chemical_formula_structural       Zn4H46C90S10N4Cl2O46
_chemical_formula_sum              "Zn4 H46 C90 S10 N4 Cl2 O46"
_cell_length_a       16.4964251051084
_cell_length_b       17.912429427433736
_cell_length_c       33.14159175437903
_cell_angle_alpha    90.316653082057
_cell_angle_beta     89.33942259312957
_cell_angle_gamma    89.9693806617863

_space_group_name_H-M_alt    "P 1"
_space_group_IT_number       1

loop_
  _space_group_symop_operation_xyz
  'x, y, z'

loop_
  _atom_site_type_symbol
  _atom_site_label
  _atom_site_symmetry_multiplicity
  _atom_site_fract_x
  _atom_site_fract_y
  _atom_site_fract_z
  _atom_site_occupancy
  Zn  Zn1       1.0  0.5817454642158352  0.4992976740796283  0.5006564344971451  1.0000
  Zn  Zn2       1.0  0.41369973997468884  0.49991177785206303  0.5015138625735387  1.0000
  Zn  Zn3       1.0  0.4184458900682984  0.5025221810802094  0.9619724169729122  1.0000
  Zn  Zn4       1.0  0.5864532827304103  0.5033153685308208  0.9610264123849104  1.0000
  H   H1        1.0  0.2812180897869823  0.5921964324780404  0.5378267746234326  1.0000
  H   H2        1.0  0.1284502864061068  0.5938728058034286  0.5384404845914401  1.0000
  H   H3        1.0  0.2882900648655564  0.4131498012943453  0.457979488473299  1.0000
  H   H4        1.0  0.707866238962808  0.576572054295859  0.5487316410388344  1.0000
  H   H5        1.0  0.7135177982285371  0.42097823054285755  0.45563361752465426  1.0000
  H   H6        1.0  0.8663901745762386  0.4201046115526026  0.45380107714431966  1.0000
  H   H7        1.0  0.6335856393198327  0.7393985252953429  0.49566411956842404  1.0000
  H   H8        1.0  0.6314697924672928  0.8791381370769573  0.49483688675263676  1.0000
  H   H9        1.0  0.37360905075824746  0.7358600247412499  0.5055973246945766  1.0000
  H   H10       1.0  0.6298689065412971  0.26250519299345854  0.5048597418863636  1.0000
  H   H11       1.0  0.3702245905923363  0.2600357774561034  0.49509763504479287  1.0000
  H   H12       1.0  0.37157552175757047  0.1203438108684978  0.49411992832648355  1.0000
  H   H13       1.0  0.3630142428136836  0.5061816758061894  0.63187942920527  1.0000
  H   H14       1.0  0.2913472507192694  0.5073376111408978  0.6983731419904657  1.0000
  H   H15       1.0  0.6228485069537298  0.5034472995193654  0.6258395982713834  1.0000
  H   H16       1.0  0.6369800393457865  0.5062307746834948  0.8306355555873066  1.0000
  H   H17       1.0  0.7086244890026235  0.5069093529676894  0.7641511693726526  1.0000
  H   H18       1.0  0.3771482507907677  0.5035264048844539  0.8366740510570948  1.0000
  H   H19       1.0  0.37301508808224065  0.4986917551763456  0.0905197658410799  1.0000
  H   H20       1.0  0.3720221755633304  0.49861807988816786  0.1661049909290142  1.0000
  H   H21       1.0  0.6334473111765107  0.5094664639882326  0.08948438434691747  1.0000
  H   H22       1.0  0.36663094099669286  0.5055806336925387  0.373427788904678  1.0000
  H   H23       1.0  0.6270732388967488  0.4944729576491655  0.37191391219301534  1.0000
  H   H24       1.0  0.6276466143417636  0.4963409237605278  0.2963332535423148  1.0000
  H   H25       1.0  0.7190092269206969  0.5953505738789673  0.9250413577161465  1.0000
  H   H26       1.0  0.871785139368434  0.5962138762961049  0.9240826311973077  1.0000
  H   H27       1.0  0.7118026254349629  0.41639564368912835  0.0038724761751610004  1.0000
  H   H28       1.0  0.29221978749170313  0.5787642536918584  0.9139366916562606  1.0000
  H   H29       1.0  0.2865802216877569  0.42370011795611623  0.006373150031357998  1.0000
  H   H30       1.0  0.13373891124033582  0.4219099744082585  0.007657406215891198  1.0000
  H   H31       1.0  0.3661564428594062  0.7429245902742424  0.9650711078113828  1.0000
  H   H32       1.0  0.3680616693381181  0.8826839378403977  0.9650259536463676  1.0000
  H   H33       1.0  0.6262128685366688  0.7391058840670655  0.9557674258912242  1.0000
  H   H34       1.0  0.3707817235672052  0.2661972168361686  0.9567654045628299  1.0000
  H   H35       1.0  0.6303891352588948  0.2629027206539691  0.9667463484963856  1.0000
  H   H36       1.0  0.6287440965805684  0.1231887648348717  0.9665094956194119  1.0000
  H   H37       1.0  0.030586594673195598  0.3264399218747159  0.4822206444099989  1.0000
  H   H38       1.0  0.9682672217388699  0.5343603217708691  0.5892059751322022  1.0000
  H   H39       1.0  0.38039331712942465  0.9827143229043859  0.5403391878174942  1.0000
  H   H40       1.0  0.6218047733139898  0.017082576862208005  0.5395875035923794  1.0000
  H   H41       1.0  0.6226741455774415  0.5784847204471788  0.22207349629157133  1.0000
  H   H42       1.0  0.37670263889341976  0.5778659227706839  0.2416737444924948  1.0000
  H   H43       1.0  0.9688442669140823  0.3282305715986312  0.9793841814288623  1.0000
  H   H44       1.0  0.031469820305652305  0.5360540967393279  0.8730889722260782  1.0000
  H   H45       1.0  0.6197187427327365  0.9845418243168995  0.9195374897704338  1.0000
  H   H46       1.0  0.3779273050770938  0.020851652612073203  0.9201426842793052  1.0000
  C   C1        1.0  0.5047908370520913  0.6456994372853445  0.5006773481151467  1.0000
  C   C2        1.0  0.49035069396752823  0.5028694233814549  0.579756368868118  1.0000
  C   C3        1.0  0.4992968569240118  0.35336486286801977  0.5003992447863936  1.0000
  C   C4        1.0  0.4973710981669797  0.4978691189956521  0.4222717799830419  1.0000
  C   C5        1.0  0.4951718217931572  0.6490354358051749  0.9611360421411204  1.0000
  C   C6        1.0  0.5097134895259572  0.5037419787546399  0.8827690885569905  1.0000
  C   C7        1.0  0.5014271078654531  0.3566435462978106  0.9621461630070693  1.0000
  C   C8        1.0  0.5028281466062339  0.5027326781213051  0.040343294085346294  1.0000
  C   C9        1.0  0.2461850350779997  0.5520726798211796  0.5203608512303859  1.0000
  C   C10       1.0  0.16206072683733194  0.5523187750446752  0.5209163399926595  1.0000
  C   C11       1.0  0.12006677036153951  0.4981261230537585  0.4983763954123502  1.0000
  C   C12       1.0  0.1666396044028389  0.44707605530530986  0.47507511498169197  1.0000
  C   C13       1.0  0.25078908185687965  0.4513973814626554  0.475804030448053  1.0000
  C   C14       1.0  0.034621969137930385  0.49634232190989996  0.5001608290733941  1.0000
  C   C15       1.0  0.9609744209482257  0.49876317032787654  0.5027500106694516  1.0000
  C   C16       1.0  0.8755029695572459  0.4998238456570976  0.5029969557784923  1.0000
  C   C17       1.0  0.8292680970001172  0.544497575802751  0.5300481612185591  1.0000
  C   C18       1.0  0.7450950919037709  0.5423785831570386  0.5284816363057414  1.0000
  C   C19       1.0  0.7489767837613002  0.4554459189410098  0.4761262378149737  1.0000
  C   C20       1.0  0.8330939545372756  0.4546637234054032  0.4754628800286936  1.0000
  C   C21       1.0  0.5039749931752128  0.7293883849703208  0.5005126978418486  1.0000
  C   C22       1.0  0.5764800333645752  0.7698046727489968  0.49776041962384426  1.0000
  C   C23       1.0  0.5753378474658319  0.8473620526880128  0.4976070685042087  1.0000
  C   C24       1.0  0.501238841300477  0.8864801832321163  0.5007394891575102  1.0000
  C   C25       1.0  0.4284907619425836  0.844699404779924  0.5038520906220398  1.0000
  C   C26       1.0  0.4298847666175334  0.7672981075978315  0.5034373984891402  1.0000
  C   C27       1.0  0.5010920175165906  0.965328697103587  0.5012226751450155  1.0000
  C   C28       1.0  0.5012419151544023  0.033598951117078016  0.5007920273786721  1.0000
  C   C29       1.0  0.5015279655739207  0.11241415206787053  0.4998156226227335  1.0000
  C   C30       1.0  0.5744387928841022  0.15391968449861085  0.5025880696713755  1.0000
  C   C31       1.0  0.5734923707094453  0.23134543486472833  0.5025151696189951  1.0000
  C   C32       1.0  0.49965367341093964  0.26959682135954216  0.49992137423153327  1.0000
  C   C33       1.0  0.42710244083999527  0.22944674030466672  0.49710258795092677  1.0000
  C   C34       1.0  0.4278047496125623  0.15186473528641642  0.496835270044336  1.0000
  C   C35       1.0  0.42073325964354064  0.506012562677178  0.647563663310599  1.0000
  C   C36       1.0  0.4225451349308642  0.5064567826190185  0.6898698508019264  1.0000
  C   C37       1.0  0.3495176515487159  0.5068340847729544  0.7136445834117564  1.0000
  C   C38       1.0  0.5677369622400974  0.504647947750172  0.644176060657763  1.0000
  C   C39       1.0  0.5723874677185492  0.5058775742615824  0.6863175112396434  1.0000
  C   C40       1.0  0.6480042454588001  0.5063550101199683  0.7077047911623777  1.0000
  C   C41       1.0  0.5792564501961621  0.5059834128329613  0.8149517739990696  1.0000
  C   C42       1.0  0.5774282899655176  0.506310732600717  0.772645818632405  1.0000
  C   C43       1.0  0.6504594761653946  0.5066039360798699  0.7488806443307252  1.0000
  C   C44       1.0  0.4322557410851004  0.5046476440255674  0.818344183005159  1.0000
  C   C45       1.0  0.4275847379745271  0.505827556245343  0.776211118159132  1.0000
  C   C46       1.0  0.3519763204543409  0.5064733720792773  0.754820967542578  1.0000
  C   C47       1.0  0.492703344607598  0.5046978128554329  0.6249370978820251  1.0000
  C   C48       1.0  0.49896637857114706  0.5063086554234532  0.7098427019540237  1.0000
  C   C49       1.0  0.5072983235882305  0.5048289021281677  0.8375800887278613  1.0000
  C   C50       1.0  0.5009944123291631  0.5062534194442846  0.7526776120756009  1.0000
  C   C51       1.0  0.5028056497716661  0.5033880392387431  0.0855476550872396  1.0000
  C   C52       1.0  0.4294485255277536  0.5009664507201067  0.10719570659268379  1.0000
  C   C53       1.0  0.428868998316922  0.50159306923576  0.14908189449739948  1.0000
  C   C54       1.0  0.5022733631792207  0.5055790476049753  0.1703823898169361  1.0000
  C   C55       1.0  0.5760277287232608  0.5085334407861242  0.1480795574054241  1.0000
  C   C56       1.0  0.5763402752010619  0.507085054436452  0.10621511317248887  1.0000
  C   C57       1.0  0.5006866932151439  0.5073621998140113  0.21293736792977563  1.0000
  C   C58       1.0  0.49882202783783924  0.5068243239046312  0.24980649870862232  1.0000
  C   C59       1.0  0.497388576735851  0.5037883926265891  0.29233647053497686  1.0000
  C   C60       1.0  0.42372648111054184  0.5062410923002575  0.31475609574798097  1.0000
  C   C61       1.0  0.4236286322753884  0.5035771590871222  0.35658205260912706  1.0000
  C   C62       1.0  0.4972725817975104  0.49923754407415555  0.37709175633136016  1.0000
  C   C63       1.0  0.5705438465475225  0.49724692118557107  0.3553478567710826  1.0000
  C   C64       1.0  0.5709075966452418  0.499006398880951  0.3134806295617664  1.0000
  C   C65       1.0  0.7540116297666798  0.5550377410666558  0.9421920110543666  1.0000
  C   C66       1.0  0.8381418641539042  0.5548416249920936  0.9414489487893716  1.0000
  C   C67       1.0  0.8800792935878261  0.5004760199836654  0.9636097736981807  1.0000
  C   C68       1.0  0.8334654094714011  0.44977472169593813  0.9867889830479724  1.0000
  C   C69       1.0  0.7493249227570828  0.45446141143468577  0.9862009021095869  1.0000
  C   C70       1.0  0.9654989746393525  0.49820364443496595  0.9616239855094546  1.0000
  C   C71       1.0  0.039147197867002624  0.5002489173615673  0.9589624144269349  1.0000
  C   C72       1.0  0.12462340509895847  0.5013841100893331  0.9588285242426834  1.0000
  C   C73       1.0  0.17086092211823714  0.546141397216978  0.9321040708807897  1.0000
  C   C74       1.0  0.25501597036374324  0.5444851149090795  0.9339243582173677  1.0000
  C   C75       1.0  0.2511538843950944  0.4578385524326691  0.9858941305032259  1.0000
  C   C76       1.0  0.1670323546179517  0.45654408938749225  0.9862597729132218  1.0000
  C   C77       1.0  0.49581527647015383  0.7327441523578316  0.960687570022422  1.0000
  C   C78       1.0  0.423236892677366  0.7732629751442277  0.9629598702013948  1.0000
  C   C79       1.0  0.4242625502297273  0.8508235242623956  0.9626022677410757  1.0000
  C   C80       1.0  0.498347129094192  0.8898196241532832  0.9594507020142442  1.0000
  C   C81       1.0  0.5711644833134955  0.8479234728033732  0.9567365054806626  1.0000
  C   C82       1.0  0.5698620477340554  0.7705568595425164  0.9576477501423992  1.0000
  C   C83       1.0  0.4985668102153865  0.968650221057274  0.9587038888390962  1.0000
  C   C84       1.0  0.4988203085159739  0.036911757658906204  0.959207947759168  1.0000
  C   C85       1.0  0.49879954046721753  0.11573201362634221  0.9606245052246788  1.0000
  C   C86       1.0  0.4259612691658318  0.1574488543031904  0.9581520249916904  1.0000
  C   C87       1.0  0.42708384145198847  0.23486411261846038  0.9588736355349353  1.0000
  C   C88       1.0  0.500993316219862  0.2728835797380214  0.9618789559502827  1.0000
  C   C89       1.0  0.5734580429031483  0.23249214011119093  0.9643992933382816  1.0000
  C   C90       1.0  0.5726134910067628  0.15490760848875604  0.9639801329585251  1.0000
  S   S1        1.0  0.12161636436255212  0.37607058023962747  0.4445763318852371  1.0000
  S   S2        1.0  0.8752474082725854  0.6048402341278064  0.5662274915312577  1.0000
  S   S3        1.0  0.33259090994508256  0.8903755065189005  0.5076745176201668  1.0000
  S   S4        1.0  0.6698710166549731  0.1074401345688827  0.5054097897111588  1.0000
  S   S5        1.0  0.6707059597645609  0.5130377972246623  0.17355360352749463  1.0000
  S   S6        1.0  0.328872052106469  0.5116805521312245  0.28951856972700796  1.0000
  S   S7        1.0  0.8783620033038203  0.37910483029683933  0.017176321988635796  1.0000
  S   S8        1.0  0.12486746591451948  0.6063257487174243  0.8961870623553805  1.0000
  S   S9        1.0  0.6670970090482271  0.8933894644555168  0.9528139459472127  1.0000
  S   S10       1.0  0.3304636610091833  0.11121872529863452  0.9550798179443161  1.0000
  N   N1        1.0  0.28933772489111215  0.5022599297176954  0.4984837495006928  1.0000
  N   N2        1.0  0.7061923799495062  0.49849697706967777  0.5020451557882735  1.0000
  N   N3        1.0  0.7108067641992191  0.5054398661094338  0.9638637909316043  1.0000
  N   N4        1.0  0.2939428565636392  0.5010335711170271  0.9603269508349042  1.0000
  Cl  Cl1       1.0  0.26175214142018893  0.5071407576838639  0.7821985602536543  1.0000
  Cl  Cl2       1.0  0.7382245887039289  0.5068538696385618  0.6803290068491419  1.0000
  O   O1        1.0  0.5735447632259107  0.6141589885974953  0.5037592819292485  1.0000
  O   O2        1.0  0.4365465634230432  0.6130716086148028  0.4977157245579134  1.0000
  O   O3        1.0  0.4213771310099262  0.5088030216271094  0.5630850446102682  1.0000
  O   O4        1.0  0.5580482868201598  0.49520931449681893  0.561236175008595  1.0000
  O   O5        1.0  0.4309455915095413  0.38552011295463023  0.5048748475948628  1.0000
  O   O6        1.0  0.5678093710744105  0.38533236998912207  0.4963551798050856  1.0000
  O   O7        1.0  0.5658411603263573  0.5047032571525208  0.4392969573873556  1.0000
  O   O8        1.0  0.42909200865853586  0.49037641788041264  0.44000576997670743  1.0000
  O   O9        1.0  0.42648928736350905  0.6172719866686053  0.9583064040491391  1.0000
  O   O10       1.0  0.5634920686699872  0.6166046425872765  0.9643101252232282  1.0000
  O   O11       1.0  0.578714279611269  0.5101507286173899  0.8993957488574649  1.0000
  O   O12       1.0  0.44208812550755283  0.4963543249621765  0.9013308614321927  1.0000
  O   O13       1.0  0.5697877492377329  0.38871119908438356  0.9578648110694272  1.0000
  O   O14       1.0  0.4329519205421306  0.38868867255970235  0.9665253561042558  1.0000
  O   O15       1.0  0.43438261164675407  0.5096372255505984  0.023332878107893893  1.0000
  O   O16       1.0  0.5711708698476201  0.4955074466356991  0.022572102899275092  1.0000
  O   O17       1.0  0.08912897319285659  0.3191632037093017  0.4788729682616121  1.0000
  O   O18       1.0  0.1861009531822901  0.338289108948544  0.4237879679601945  1.0000
  O   O19       1.0  0.052380754378056296  0.406378076322838  0.4244005960833234  1.0000
  O   O20       1.0  0.9122955654039728  0.5452618884950058  0.5975411978191829  1.0000
  O   O21       1.0  0.8115665013891229  0.6424809211001518  0.5877048920340471  1.0000
  O   O22       1.0  0.9416070895497981  0.6435778182960236  0.5471968179523967  1.0000
  O   O23       1.0  0.3435423253250462  0.9415240650661758  0.5475868302746889  1.0000
  O   O24       1.0  0.2723091841415552  0.8362649883266402  0.5184861040474686  1.0000
  O   O25       1.0  0.3234952445848763  0.9386231196975745  0.4734549881693652  1.0000
  O   O26       1.0  0.6590881311179544  0.05837025404628799  0.5458975491011983  1.0000
  O   O27       1.0  0.7311026614853231  0.16136491938980416  0.5147511879628935  1.0000
  O   O28       1.0  0.6778815521914012  0.05741308913227531  0.4714641847950033  1.0000
  O   O29       1.0  0.6607606293576181  0.5890393249516209  0.19972757539903085  1.0000
  O   O30       1.0  0.7334622726053794  0.5284636106042981  0.1445937857555322  1.0000
  O   O31       1.0  0.6755115983619504  0.45116946984360623  0.20095146879727105  1.0000
  O   O32       1.0  0.3388451315090035  0.5881337126942157  0.2642227354725931  1.0000
  O   O33       1.0  0.26641895302810775  0.5267790538907279  0.31879548833769883  1.0000
  O   O34       1.0  0.32362986899158136  0.4503649417223415  0.2614225266668342  1.0000
  O   O35       1.0  0.9103107862830482  0.321236239464973  0.9828797557003592  1.0000
  O   O36       1.0  0.8138374990971896  0.3421453611202878  0.038108570570820184  1.0000
  O   O37       1.0  0.9479077545330553  0.40950316822478083  0.0372003758691477  1.0000
  O   O38       1.0  0.08742377787659449  0.5466818862285693  0.8647003020673407  1.0000
  O   O39       1.0  0.1885378983248032  0.6435764542799449  0.8747615644585307  1.0000
  O   O40       1.0  0.058744397170102006  0.6454482246312383  0.9154746648720288  1.0000
  O   O41       1.0  0.6564520978123625  0.9429225530365889  0.9125797922495946  1.0000
  O   O42       1.0  0.7274162601967546  0.8387636558420583  0.9424214595177032  1.0000
  O   O43       1.0  0.6760314637967895  0.9430176326966379  0.9867561241053902  1.0000
  O   O44       1.0  0.34094126034585054  0.06244810143173403  0.9141734998316051  1.0000
  O   O45       1.0  0.2692435737260793  0.16536060890150145  0.9462983786196231  1.0000
  O   O46       1.0  0.32260527072540396  0.06093715849735302  0.9886182342668305  1.0000
