data_image0
_chemical_formula_structural       Cd2P2H28C40N2O12
_chemical_formula_sum              "Cd2 P2 H28 C40 N2 O12"
_cell_length_a       9.87535512760803
_cell_length_b       10.09587562050078
_cell_length_c       10.3164200745289
_cell_angle_alpha    101.14902241420894
_cell_angle_beta     107.05751660187786
_cell_angle_gamma    97.27489629632163

_space_group_name_H-M_alt    "P 1"
_space_group_IT_number       1

loop_
  _space_group_symop_operation_xyz
  'x, y, z'

loop_
  _atom_site_type_symbol
  _atom_site_label
  _atom_site_symmetry_multiplicity
  _atom_site_fract_x
  _atom_site_fract_y
  _atom_site_fract_z
  _atom_site_occupancy
  Cd  Cd1       1.0  0.7321881096415906  0.06850529701145551  0.02981561843861156  1.0000
  Cd  Cd2       1.0  0.26781107131097315  0.9314936448775133  0.9701841972660503  1.0000
  P   P1        1.0  0.09599349512688349  0.11047879562504193  0.22443654000139895  1.0000
  P   P2        1.0  0.9040069485337413  0.8895211848355657  0.77556382869345  1.0000
  H   H1        1.0  0.1573132820471486  0.8760164617113729  0.18958557275355759  1.0000
  H   H2        1.0  0.8426869599609647  0.12398248937582679  0.8104145454597357  1.0000
  H   H3        1.0  0.3956645532558056  0.11074945146861379  0.3645805794974208  1.0000
  H   H4        1.0  0.6043354343068047  0.8892536079139506  0.6354202381334774  1.0000
  H   H5        1.0  0.533272964929111  0.11622154909898803  0.6116147683894865  1.0000
  H   H6        1.0  0.4667268209809876  0.8837804809101826  0.38838579875984897  1.0000
  H   H7        1.0  0.1541811728189586  0.15405944614740724  0.7279449609189186  1.0000
  H   H8        1.0  0.8458178064810938  0.8459384663681606  0.2720546043041738  1.0000
  H   H9        1.0  0.0152797935445648  0.1502911392983535  0.4817724903613083  1.0000
  H   H10       1.0  0.9847193903171032  0.849707801633464  0.5182263566551625  1.0000
  H   H11       1.0  0.2296374821911229  0.23431105978139757  0.036051302834017904  1.0000
  H   H12       1.0  0.7703619033230565  0.7656889105238209  0.9639477946640157  1.0000
  H   H13       1.0  0.24681268330023437  0.4696713821078262  0.9950031111979669  1.0000
  H   H14       1.0  0.7531869009573526  0.5303296185279435  0.00499720546981305  1.0000
  H   H15       1.0  0.043714887476340884  0.5934692673069506  0.3027856307631609  1.0000
  H   H16       1.0  0.9562864126782245  0.40652969393563876  0.6972157586469478  1.0000
  H   H17       1.0  0.02026070466420292  0.3575466977560354  0.3415788661879091  1.0000
  H   H18       1.0  0.9797395344348061  0.6424522542883154  0.6584222207135682  1.0000
  H   H19       1.0  0.5878774908923958  0.3344832264401206  0.06636824050688975  1.0000
  H   H20       1.0  0.41212527944095  0.6655178008332145  0.9336320149986079  1.0000
  H   H21       1.0  0.5132327471978329  0.4875905471736034  0.24135933271606547  1.0000
  H   H22       1.0  0.4867666383163467  0.512409423131615  0.7586397647819609  1.0000
  H   H23       1.0  0.7118963521781936  0.2650102621533748  0.5421793112539177  1.0000
  H   H24       1.0  0.2881042960440467  0.734990746723483  0.4578203392343099  1.0000
  H   H25       1.0  0.7822398013808964  0.1250456779728353  0.35394755735508454  1.0000
  H   H26       1.0  0.21776190789689312  0.8749553401022613  0.6460523956417816  1.0000
  H   H27       1.0  0.6038827509779806  0.4546362833860372  0.6197386755769542  1.0000
  H   H28       1.0  0.3961166345361918  0.5453636869191811  0.3802604219210791  1.0000
  C   C1        1.0  0.19652508122867124  0.13078431225886084  0.4074027205495838  1.0000
  C   C2        1.0  0.8034743013763974  0.8692156590035083  0.5925973456366336  1.0000
  C   C3        1.0  0.34369115552471646  0.12403436560950348  0.4448420084692728  1.0000
  C   C4        1.0  0.6563086274762782  0.8759676653568107  0.5551595273682466  1.0000
  C   C5        1.0  0.42067241744467043  0.1269701437766813  0.5822530480219754  1.0000
  C   C6        1.0  0.5793271697220135  0.873030855901938  0.4177462999576207  1.0000
  C   C7        1.0  0.35227362036960835  0.13605646989596926  0.68428964971136  1.0000
  C   C8        1.0  0.6477257651445714  0.8639435004092494  0.31570944778667365  1.0000
  C   C9        1.0  0.20720528401554358  0.1496479962886994  0.6486930428772837  1.0000
  C   C10       1.0  0.7927938969370133  0.8503509456002694  0.35130677282737827  1.0000
  C   C11       1.0  0.1298690344042583  0.14663072490802886  0.5108539438583009  1.0000
  C   C12       1.0  0.8701312076038548  0.8533682261791783  0.4891461743549923  1.0000
  C   C13       1.0  0.4298919923220907  0.11379347634567688  0.8255278280052494  1.0000
  C   C14       1.0  0.5701071886304659  0.8862054655432916  0.17447198769940536  1.0000
  C   C15       1.0  0.1247082330903169  0.2806665076353029  0.19293143167038806  1.0000
  C   C16       1.0  0.8752909478622399  0.7193324342536657  0.8070683840342738  1.0000
  C   C17       1.0  0.18892294961648298  0.311976890875954  0.09530335802776341  1.0000
  C   C18       1.0  0.8110764329885924  0.6880230803864081  0.9046967081584539  1.0000
  C   C19       1.0  0.19991014470205218  0.44402442547562526  0.07257877095720744  1.0000
  C   C20       1.0  0.8000883755908745  0.5559765669190567  0.9274222118901178  1.0000
  C   C21       1.0  0.14994859910262903  0.5462007806158626  0.14864055669898593  1.0000
  C   C22       1.0  0.8500507835024464  0.4537991906464995  0.8513595094872314  1.0000
  C   C23       1.0  0.08548468033137618  0.5147660380577079  0.2462618731418544  1.0000
  C   C24       1.0  0.9145157575110402  0.48523394431718714  0.7537404329293691  1.0000
  C   C25       1.0  0.07272807706908681  0.38274436000894246  0.2675649919371779  1.0000
  C   C26       1.0  0.9272713026268844  0.6172556122105705  0.7324360429372232  1.0000
  C   C27       1.0  0.16431579407745997  0.6856707509142623  0.12156318169488152  1.0000
  C   C28       1.0  0.835683787271023  0.31433025067865134  0.8784381036610823  1.0000
  C   C29       1.0  0.6126339440011179  0.32301937043848034  0.17311873617497042  1.0000
  C   C30       1.0  0.3873667071302265  0.6769816374812266  0.8268799456250734  1.0000
  C   C31       1.0  0.5705716487496418  0.4071253750718853  0.2711359722010868  1.0000
  C   C32       1.0  0.429428797820087  0.5928746044315719  0.7288634278055781  1.0000
  C   C33       1.0  0.6019053293632126  0.38660417432596017  0.4071066788290878  1.0000
  C   C34       1.0  0.39809511429741223  0.6133958061346477  0.5928936898657683  1.0000
  C   C35       1.0  0.6823980985744528  0.2847111334805065  0.4382516760141115  1.0000
  C   C36       1.0  0.3176025496477877  0.7152898753963515  0.5617479744741161  1.0000
  C   C37       1.0  0.7211505245171708  0.20577710334278984  0.33404146043541516  1.0000
  C   C38       1.0  0.2788501237050696  0.7942239055340679  0.6659581900528124  1.0000
  C   C39       1.0  0.5523331500558369  0.4627194544280402  0.513094396134882  1.0000
  C   C40       1.0  0.4476670948613801  0.5372794957020164  0.48690475339022043  1.0000
  N   N1        1.0  0.6851572758493704  0.2226374063841804  0.20298243439361852  1.0000
  N   N2        1.0  0.31484443342841933  0.7773636116909091  0.7970175186032479  1.0000
  O   O1        1.0  0.3674456956121404  0.1255483050547355  0.9181442232824678  1.0000
  O   O2        1.0  0.6325545463959729  0.8744506460324717  0.0818558949308256  1.0000
  O   O3        1.0  0.5518848560781036  0.07922169560431772  0.8388937280843222  1.0000
  O   O4        1.0  0.44811518427749775  0.9207762261094885  0.16110613964740844  1.0000
  O   O5        1.0  0.14864166721243074  0.783712616630581  0.21915292985482895  1.0000
  O   O6        1.0  0.8513587735390901  0.21628736478716354  0.780848407528211  1.0000
  O   O7        1.0  0.190032136994283  0.706162077752552  0.015610807403930919  1.0000
  O   O8        1.0  0.8099649189380714  0.29383684669709004  0.9843893719716446  1.0000
  O   O9        1.0  0.9368635749524118  0.0662829139610395  0.20376156621396999  1.0000
  O   O10       1.0  0.06313646831229394  0.9337150067956161  0.7962373328295769  1.0000
  O   O11       1.0  0.16410160640918287  0.0124300423218173  0.1406642051881448  1.0000
  O   O12       1.0  0.835898837251442  0.9875699381387908  0.8593361635067113  1.0000
