data_image0
_chemical_formula_structural       Zn16H32C96S16Br16N16O52
_chemical_formula_sum              "Zn16 H32 C96 S16 Br16 N16 O52"
_cell_length_a       19.55565406403042
_cell_length_b       19.543726302304904
_cell_length_c       33.119132062500874
_cell_angle_alpha    79.62061805789955
_cell_angle_beta     79.57601473368706
_cell_angle_gamma    64.20098743589064

_space_group_name_H-M_alt    "P 1"
_space_group_IT_number       1

loop_
  _space_group_symop_operation_xyz
  'x, y, z'

loop_
  _atom_site_type_symbol
  _atom_site_label
  _atom_site_symmetry_multiplicity
  _atom_site_fract_x
  _atom_site_fract_y
  _atom_site_fract_z
  _atom_site_occupancy
  Zn  Zn1       1.0  0.052891314547096606  0.3973804763743799  0.4811394953363363  1.0000
  Zn  Zn2       1.0  0.989612389022099  0.47619024914391883  0.5595064580047905  1.0000
  Zn  Zn3       1.0  0.0533683951966779  0.5664573269915039  0.4827017762808837  1.0000
  Zn  Zn4       1.0  0.9044051381102491  0.558459912131518  0.47512595837056176  1.0000
  Zn  Zn5       1.0  0.6909518930306646  0.3465816924253461  0.27475193117437874  1.0000
  Zn  Zn6       1.0  0.6839314303261687  0.19609638924399053  0.2669485730656405  1.0000
  Zn  Zn7       1.0  0.7735893027511339  0.26081574484247483  0.18989056237634833  1.0000
  Zn  Zn8       1.0  0.8511749355244476  0.19840715763979247  0.2681313291202514  1.0000
  Zn  Zn9       1.0  0.27359456444992253  0.7605194091988638  0.6902647764328478  1.0000
  Zn  Zn10      1.0  0.3519673204444516  0.6975913800276671  0.7682631390238513  1.0000
  Zn  Zn11      1.0  0.19119988437546453  0.8462270850320195  0.7748598084002509  1.0000
  Zn  Zn12      1.0  0.18393866546740875  0.695998036708275  0.7670376560491192  1.0000
  Zn  Zn13      1.0  0.5535347232490935  0.06669614074223054  0.9829749940333982  1.0000
  Zn  Zn14      1.0  0.40525571121109744  0.058540756938924667  0.9754183725535768  1.0000
  Zn  Zn15      1.0  0.5528887177038085  0.8976649893896892  0.9812815827021594  1.0000
  Zn  Zn16      1.0  0.4892479760030355  0.9769318863617328  0.0601203412123041  1.0000
  H   H1        1.0  0.3192907808268686  0.5488625725443655  0.40777225813327084  1.0000
  H   H2        1.0  0.23146060805279942  0.5508136870144328  0.43212195735769393  1.0000
  H   H3        1.0  0.42159880674785205  0.2025544499993117  0.34736835862788235  1.0000
  H   H4        1.0  0.5107383174362639  0.19952881614147325  0.3246751915937907  1.0000
  H   H5        1.0  0.7725988442706324  0.547056054518862  0.6836314288784422  1.0000
  H   H6        1.0  0.8416362828012822  0.5255881080103039  0.6408057276078836  1.0000
  H   H7        1.0  0.4880925015978976  0.7039422973435733  0.5620664485627386  1.0000
  H   H8        1.0  0.41959394800912264  0.7279604242664988  0.6051992447852895  1.0000
  H   H9        1.0  0.04589209265262889  0.261646381164617  0.6879469727620988  1.0000
  H   H10       1.0  0.021899494790737602  0.33044281710539275  0.644943850548124  1.0000
  H   H11       1.0  0.2018208674694932  0.9775276255404178  0.5659920159660388  1.0000
  H   H12       1.0  0.2237605320771507  0.9083040119608371  0.6086681511216198  1.0000
  H   H13       1.0  0.7407572669250442  0.809857145152982  0.3838214634590075  1.0000
  H   H14       1.0  0.7933694826826213  0.7315640713499575  0.4173100445045606  1.0000
  H   H15       1.0  0.0026890975569244997  0.9541807352602945  0.3651498628035412  1.0000
  H   H16       1.0  0.9493183150057545  0.03388376565354175  0.3330399602828181  1.0000
  H   H17       1.0  0.7054301672527005  0.4776475498026614  0.06583660582636242  1.0000
  H   H18       1.0  0.7268924121008594  0.408314659510566  0.10860385393710462  1.0000
  H   H19       1.0  0.5435603822614539  0.7618936820125413  0.18795281271924577  1.0000
  H   H20       1.0  0.5199930061634674  0.8308902585594709  0.1449770726426394  1.0000
  H   H21       1.0  0.1505392520678868  0.08387397424004919  0.2250484289897017  1.0000
  H   H22       1.0  0.0517178382454091  0.1152721780137966  0.2377608152359159  1.0000
  H   H23       1.0  0.11080544858684503  0.1575212644002875  0.022007796161886996  1.0000
  H   H24       1.0  0.2094420422122241  0.12374654552908032  0.008766716964018392  1.0000
  H   H25       1.0  0.5030694998164406  0.45331018413753565  0.8645938626065117  1.0000
  H   H26       1.0  0.44969012645497497  0.5332989362257692  0.8324522626624855  1.0000
  H   H27       1.0  0.2417352354430237  0.30833326945267453  0.882778542385026  1.0000
  H   H28       1.0  0.29412010212235634  0.23045256615114332  0.9164628170480852  1.0000
  H   H29       1.0  0.9215630083109974  0.7024995353080212  0.8476602347625359  1.0000
  H   H30       1.0  0.0107494455186981  0.6994917578774816  0.8248364592817694  1.0000
  H   H31       1.0  0.8200153104743888  0.04811825787484749  0.9086535760484652  1.0000
  H   H32       1.0  0.7317728632122424  0.05074105663970125  0.9323725566477279  1.0000
  C   C1        1.0  0.06248971448739131  0.3096571494008558  0.5637568327832554  1.0000
  C   C2        1.0  0.06731065251972979  0.5678906894128913  0.5681606287398752  1.0000
  C   C3        1.0  0.17819531485972112  0.4411519306480898  0.4396868640162949  1.0000
  C   C4        1.0  0.9361522752218221  0.6908615489594325  0.43672682301550475  1.0000
  C   C5        1.0  0.9312201950254035  0.43255055708432616  0.43206318514222625  1.0000
  C   C6        1.0  0.8214234270058827  0.5581440696610681  0.5594741922215931  1.0000
  C   C7        1.0  0.560087313326477  0.31256003589612674  0.3137951862592701  1.0000
  C   C8        1.0  0.6821091396644051  0.18231978970242574  0.1819290881131579  1.0000
  C   C9        1.0  0.6922838917012514  0.42881932257132854  0.19021475485736516  1.0000
  C   C10       1.0  0.9408439966862118  0.18595838276479534  0.186718780023412  1.0000
  C   C11       1.0  0.8188864259880829  0.31675876803943487  0.3182063466530495  1.0000
  C   C12       1.0  0.8108258866424052  0.07061827748018593  0.3087199571685133  1.0000
  C   C13       1.0  0.4404355704675141  0.686537299088741  0.6861385654463703  1.0000
  C   C14       1.0  0.3189235755839519  0.81698980952072  0.8180274879677896  1.0000
  C   C15       1.0  0.19250526223723344  0.9283759868839212  0.6901410429465429  1.0000
  C   C16       1.0  0.05998893349543272  0.8126092128535661  0.8137110607242448  1.0000
  C   C17       1.0  0.182225350073594  0.6827151403693109  0.6815525598648692  1.0000
  C   C18       1.0  0.3105214642002707  0.5702003156754216  0.8085059802667445  1.0000
  C   C19       1.0  0.4358494888282465  0.1909361353231417  0.936769484657809  1.0000
  C   C20       1.0  0.4303054549177645  0.9333222441320573  0.9322232410595177  1.0000
  C   C21       1.0  0.6777877920768348  0.9417190358710882  0.9393978932759808  1.0000
  C   C22       1.0  0.5623430530267087  0.8100047480852124  0.06366373914716661  1.0000
  C   C23       1.0  0.5680970005608188  0.06796568799384771  0.06800494377861811  1.0000
  C   C24       1.0  0.3213379301837093  0.061608028953315866  0.05959439133030741  1.0000
  C   C25       1.0  0.9023008701820887  0.402659343191786  0.40276689351533423  1.0000
  C   C26       1.0  0.8478223015609175  0.34651823011125754  0.34757012304463336  1.0000
  C   C27       1.0  0.8285932764150205  0.4449096469159953  0.3901992582447207  1.0000
  C   C28       1.0  0.9191170935383681  0.30179492679828  0.3626693681309234  1.0000
  C   C29       1.0  0.804100133099361  0.419892313339169  0.3605648686652501  1.0000
  C   C30       1.0  0.948425348036864  0.3317261500229377  0.3874229078341571  1.0000
  C   C31       1.0  0.09698428621690879  0.5974602111265312  0.597343148249017  1.0000
  C   C32       1.0  0.15283997408523928  0.6530126701765936  0.6523039542848322  1.0000
  C   C33       1.0  0.14115577839006477  0.6396851893468353  0.5820294401770028  1.0000
  C   C34       1.0  0.1136245842112444  0.6060529747415372  0.6675717345105525  1.0000
  C   C35       1.0  0.16383066512200634  0.6715720831665521  0.6091625391001543  1.0000
  C   C36       1.0  0.08132615143309611  0.5835574925743431  0.6405913833671448  1.0000
  C   C37       1.0  0.2974725273423715  0.45732964958297373  0.4026063177258123  1.0000
  C   C38       1.0  0.44146086981097454  0.29590376223623593  0.3513551753208901  1.0000
  C   C39       1.0  0.2515244839292947  0.4165853438006123  0.4147978377049172  1.0000
  C   C40       1.0  0.4867592950479533  0.3372494397348477  0.3386372300000744  1.0000
  C   C41       1.0  0.3715596730688446  0.3411166288581242  0.3741266389997051  1.0000
  C   C42       1.0  0.3662536002724864  0.4130421387067926  0.3787244569506497  1.0000
  C   C43       1.0  0.732789373750265  0.5730117213472565  0.6272327980580101  1.0000
  C   C44       1.0  0.5289792134650426  0.6729103657869546  0.6185265511094116  1.0000
  C   C45       1.0  0.7475994324710271  0.5820033483162704  0.5838976962034792  1.0000
  C   C46       1.0  0.5142857371234655  0.6625932168115867  0.6618496058074044  1.0000
  C   C47       1.0  0.6092548735878793  0.6384370134409919  0.606170530966679  1.0000
  C   C48       1.0  0.6524432820457734  0.605133621605674  0.6394933658530206  1.0000
  C   C49       1.0  0.07683739322319383  0.22101695898968643  0.6313553613034202  1.0000
  C   C50       1.0  0.17673517043961343  0.01714545852615151  0.622422888003463  1.0000
  C   C51       1.0  0.0866858682181544  0.23576928966892297  0.5880121638275142  1.0000
  C   C52       1.0  0.1683788290930011  0.0022683640696783067  0.6657720636532432  1.0000
  C   C53       1.0  0.14441352702558416  0.0975395191399002  0.6102383727128571  1.0000
  C   C54       1.0  0.1114942244668882  0.1406913326855559  0.6436330592874313  1.0000
  C   C55       1.0  0.8416640490667503  0.8062719529639751  0.3960135823525733  1.0000
  C   C56       1.0  0.9049937739265203  0.9556128053139616  0.35008500993565417  1.0000
  C   C57       1.0  0.9117862606932051  0.7647909559609762  0.4125180738537537  1.0000
  C   C58       1.0  0.8354796259363014  0.9965741131656144  0.3329568294562221  1.0000
  C   C59       1.0  0.9072394016413553  0.8852453584451684  0.3723677420615559  1.0000
  C   C60       1.0  0.8405574875633021  0.8753746194921634  0.37245945184105267  1.0000
  C   C61       1.0  0.6528513235202383  0.1528321643907873  0.1525459567228111  1.0000
  C   C62       1.0  0.5974348992715547  0.09750167020307295  0.09733214297911272  1.0000
  C   C63       1.0  0.6655232645462519  0.17023101914416847  0.10936179450678199  1.0000
  C   C64       1.0  0.5800658882541825  0.08482337422969974  0.14051593128312587  1.0000
  C   C65       1.0  0.6429175851554234  0.13835954850767246  0.08219493110569688  1.0000
  C   C66       1.0  0.612220141213335  0.10714161023868468  0.16765334377186042  1.0000
  C   C67       1.0  0.6772252071906524  0.5174657400101594  0.12247174466988037  1.0000
  C   C68       1.0  0.5760338316055567  0.7214028265017443  0.13128072944319769  1.0000
  C   C69       1.0  0.6680953351242281  0.5026676540726384  0.16583207265039585  1.0000
  C   C70       1.0  0.5865037250452686  0.7361446513538186  0.08794163877283266  1.0000
  C   C71       1.0  0.6107963979066612  0.6410680372419151  0.143583773417177  1.0000
  C   C72       1.0  0.6444954246751208  0.5978876717446366  0.11024196702781812  1.0000
  C   C73       1.0  0.08649265517639998  0.12195302510610159  0.17634726264600434  1.0000
  C   C74       1.0  0.17547586205527207  0.1241077575124692  0.07004141006528641  1.0000
  C   C75       1.0  0.0142365544663932  0.16088617991956514  0.16197158856987673  1.0000
  C   C76       1.0  0.24783440049886002  0.08661499127054378  0.0843353425483144  1.0000
  C   C77       1.0  0.1169020108614589  0.13813999383122416  0.1040909410599085  1.0000
  C   C78       1.0  0.14521359112234933  0.11017272031791238  0.1423856285829004  1.0000
  C   C79       1.0  0.3479252438506606  0.847024153201275  0.8472584479891694  1.0000
  C   C80       1.0  0.40171850663168834  0.9034378969824104  0.9027302047364713  1.0000
  C   C81       1.0  0.30363287494770214  0.9201282804182896  0.8605403337344343  1.0000
  C   C82       1.0  0.4484624381170049  0.8330798477418423  0.8869228351423217  1.0000
  C   C83       1.0  0.3279058244112107  0.9451274687772299  0.8902622907624577  1.0000
  C   C84       1.0  0.4196306693758843  0.8028411312136112  0.8620383001071446  1.0000
  C   C85       1.0  0.4045105228595888  0.4555248194651397  0.8500225375696217  1.0000
  C   C86       1.0  0.34152411476709693  0.3059152656270426  0.8957791437079197  1.0000
  C   C87       1.0  0.33510814936617095  0.49623836483699074  0.8327245860329668  1.0000
  C   C88       1.0  0.41143841625951433  0.2647875663256372  0.912497422035301  1.0000
  C   C89       1.0  0.3402757120207981  0.37505666280522826  0.8722664958445776  1.0000
  C   C90       1.0  0.4067297696240787  0.38520006182546496  0.8723621210612438  1.0000
  C   C91       1.0  0.9413470047692343  0.7961009535502439  0.851347784734827  1.0000
  C   C92       1.0  0.7974597960233963  0.957561723129089  0.9026333708925449  1.0000
  C   C93       1.0  0.9868077914861857  0.837314023853487  0.8386707209132213  1.0000
  C   C94       1.0  0.7512672533356906  0.9170503372805925  0.9145939916623861  1.0000
  C   C95       1.0  0.8663031575908989  0.9131879319969582  0.8788011445306481  1.0000
  C   C96       1.0  0.8714418162637544  0.8413841546235901  0.874087444971174  1.0000
  S   S1        1.0  0.29230678838658253  0.3260744551920141  0.397507314087278  1.0000
  S   S2        1.0  0.44484380929692696  0.4287161174027644  0.3547297635863842  1.0000
  S   S3        1.0  0.6647665298646358  0.6294285275879614  0.55902123256039  1.0000
  S   S4        1.0  0.5970167527987372  0.6128057438628216  0.6866450810589343  1.0000
  S   S5        1.0  0.1362488459935847  0.15303009346602897  0.5631223405281106  1.0000
  S   S6        1.0  0.1211870520238136  0.0851156277637273  0.6907446114575109  1.0000
  S   S7        1.0  0.9740031702154895  0.8101505257536838  0.3998397746140086  1.0000
  S   S8        1.0  0.7743977867389304  0.9499108503320884  0.3443716094326277  1.0000
  S   S9        1.0  0.6199717833397927  0.5855786708036989  0.190725540235384  1.0000
  S   S10       1.0  0.6368264047070012  0.6533550599157678  0.06312333801699309  1.0000
  S   S11       1.0  0.018529776462685298  0.18134933871247944  0.1081728129459805  1.0000
  S   S12       1.0  0.24364708560634096  0.06844118730748508  0.1382236322129629  1.0000
  S   S13       1.0  0.2741997742380136  0.4493307793710528  0.8440127845743818  1.0000
  S   S14       1.0  0.4733862900886693  0.3104228846972533  0.9000207795154013  1.0000
  S   S15       1.0  0.9450253840979386  0.9287164289988395  0.8548896727122681  1.0000
  S   S16       1.0  0.7919318438407075  0.8266108305351381  0.8972350472920781  1.0000
  Br  Br1       1.0  0.7581312353082764  0.5335465996632606  0.41512654207266314  1.0000
  Br  Br2       1.0  0.9757328339777729  0.1977564826326982  0.35268019351438085  1.0000
  Br  Br3       1.0  0.714041957415283  0.48878382395889725  0.33664598223499803  1.0000
  Br  Br4       1.0  0.05229625064836801  0.2774797896280888  0.39741008670883826  1.0000
  Br  Br5       1.0  0.17534638257962604  0.651186706855981  0.5248087760929252  1.0000
  Br  Br6       1.0  0.1083687882242828  0.5673918770779807  0.7243635966945945  1.0000
  Br  Br7       1.0  0.20487771042715514  0.7442163261934951  0.5863742110002406  1.0000
  Br  Br8       1.0  0.011888948553270499  0.5389019679971625  0.6641582668781895  1.0000
  Br  Br9       1.0  0.7092765145474332  0.24057604573211913  0.08648365086997958  1.0000
  Br  Br10      1.0  0.5085300460515328  0.0425677167916518  0.16328111833497164  1.0000
  Br  Br11      1.0  0.6791154760977494  0.14763781047987826  0.02513255622396568  1.0000
  Br  Br12      1.0  0.604782903641528  0.06941540634469591  0.2245364814383848  1.0000
  Br  Br13      1.0  0.21326703917333842  0.9887784592062588  0.8367818837677561  1.0000
  Br  Br14      1.0  0.5526502227739342  0.7801401516186817  0.8964164754606614  1.0000
  Br  Br15      1.0  0.25669011303243394  0.033624677186722365  0.9152661614368469  1.0000
  Br  Br16      1.0  0.4778484307753814  0.6996218658391483  0.8511511725951167  1.0000
  N   N1        1.0  0.27815606307491686  0.52943875356695  0.41116682334212845  1.0000
  N   N2        1.0  0.46210304295750865  0.22278834708359338  0.34411944141303497  1.0000
  N   N3        1.0  0.7870942191374655  0.5367248929523569  0.6537157755027607  1.0000
  N   N4        1.0  0.474803321318845  0.7120163132528957  0.5922914702821487  1.0000
  N   N5        1.0  0.0380046181595475  0.2751396642007506  0.6577043607635178  1.0000
  N   N6        1.0  0.2126460119022866  0.9628841859426844  0.5958206046014709  1.0000
  N   N7        1.0  0.7827293984911634  0.7848717845191898  0.40250660995076265  1.0000
  N   N8        1.0  0.9629639824138181  0.9784619684306506  0.3450664784829698  1.0000
  N   N9        1.0  0.7140921630301306  0.46328006567213703  0.0959754697328137  1.0000
  N   N10       1.0  0.5367340767406431  0.7754504514578502  0.1575823393513431  1.0000
  N   N11       1.0  0.09869356005057739  0.09707176188473449  0.2166050916182414  1.0000
  N   N12       1.0  0.1628194629740065  0.1461601215348054  0.029632477020626897  1.0000
  N   N13       1.0  0.4622775687839749  0.47842622627309334  0.8451695461946329  1.0000
  N   N14       1.0  0.2827762239987877  0.28415655736817064  0.9020584752732078  1.0000
  N   N15       1.0  0.9618366069446652  0.7231088898815514  0.8440131374560664  1.0000
  N   N16       1.0  0.7783265979326899  0.029619173392148944  0.9112851622302643  1.0000
  O   O1        1.0  0.00011929436615079996  0.4996903092908981  0.49970703516234494  1.0000
  O   O2        1.0  0.08270057981954441  0.311477232484215  0.5246383782600432  1.0000
  O   O3        1.0  0.06483458257835652  0.5032384568765311  0.5794649942925076  1.0000
  O   O4        1.0  0.15428322763515467  0.5051876536955932  0.45517834963806786  1.0000
  O   O5        1.0  0.022260486290363698  0.3690646854999286  0.5833552311897137  1.0000
  O   O6        1.0  0.1429681352149075  0.3974329519407363  0.4445232306454443  1.0000
  O   O7        1.0  0.047106504984924406  0.6098644885487302  0.5346037693778242  1.0000
  O   O8        1.0  0.005188932369058799  0.6593575031418837  0.44589717284269165  1.0000
  O   O9        1.0  0.913558022171337  0.5040377772649621  0.42736261308700557  1.0000
  O   O10       1.0  0.8867910160536213  0.6613704864735935  0.447363796387478  1.0000
  O   O11       1.0  0.9709168123841324  0.38405571751223977  0.459203834702926  1.0000
  O   O12       1.0  0.8808139220350952  0.529716629651844  0.5795024991327224  1.0000
  O   O13       1.0  0.8220190927635046  0.5673459640678188  0.5200170968976322  1.0000
  O   O14       1.0  0.7496925836946248  0.250551681879898  0.24996167991432122  1.0000
  O   O15       1.0  0.5896511412511387  0.36120108013827246  0.3026937299313062  1.0000
  O   O16       1.0  0.6397538491038404  0.20256278369659936  0.21544702559288703  1.0000
  O   O17       1.0  0.7206078322005567  0.3694496097384599  0.17011276447229307  1.0000
  O   O18       1.0  0.5906476478609689  0.2430785113168739  0.30435319293429336  1.0000
  O   O19       1.0  0.6835012363581896  0.4281571769285009  0.22969085483951088  1.0000
  O   O20       1.0  0.7468105636266528  0.18467884474179652  0.1708770116572751  1.0000
  O   O21       1.0  0.8814013444237575  0.2269097673981547  0.16800045495057253  1.0000
  O   O22       1.0  0.8682715572189891  0.2765455014734571  0.2914229793829577  1.0000
  O   O23       1.0  0.9402538552647145  0.16554410198416752  0.2261663953403712  1.0000
  O   O24       1.0  0.7476470690018928  0.33391560788076896  0.3224530113194675  1.0000
  O   O25       1.0  0.7471532400183352  0.095416443444435  0.2935043453416384  1.0000
  O   O26       1.0  0.8550379061865457  0.10583245901538853  0.3045247508922628  1.0000
  O   O27       1.0  0.24998572954604734  0.7501590288364783  0.750089322470096  1.0000
  O   O28       1.0  0.38104201473017696  0.7270357436012985  0.666656631825056  1.0000
  O   O29       1.0  0.3680617908868483  0.7766467910912168  0.7912437253766597  1.0000
  O   O30       1.0  0.18410515403026304  0.927596779070711  0.7295782824920565  1.0000
  O   O31       1.0  0.43861683197361145  0.6658812674376264  0.7252236089567248  1.0000
  O   O32       1.0  0.22044906791638402  0.8690406943879696  0.6699985678343197  1.0000
  O   O33       1.0  0.24762456167750463  0.8341656970832645  0.8224394148235348  1.0000
  O   O34       1.0  0.08965239880298981  0.8611656556858518  0.8024977736347125  1.0000
  O   O35       1.0  0.14011701046133848  0.7029006005631616  0.7151031575884659  1.0000
  O   O36       1.0  0.09042814360471141  0.7431287043013343  0.8042072745588342  1.0000
  O   O37       1.0  0.24680471637119442  0.6852608639502904  0.6701986578033114  1.0000
  O   O38       1.0  0.3545931702901512  0.605500916595311  0.8044955842666468  1.0000
  O   O39       1.0  0.24696568485744308  0.5949441888730362  0.7931010191093648  1.0000
  O   O40       1.0  0.5003475783834048  0.9997569656003047  0.9999883839005791  1.0000
  O   O41       1.0  0.5047202388149329  0.1595428097250462  0.946087872998973  1.0000
  O   O42       1.0  0.411632509325834  0.004996664329070168  0.9278452333186777  1.0000
  O   O43       1.0  0.6423777727863609  0.8982005247347193  0.9440838805139222  1.0000
  O   O44       1.0  0.3865015637357061  0.16139275824141205  0.9472662666947328  1.0000
  O   O45       1.0  0.6540098936182374  0.005666854346593177  0.9549184809591296  1.0000
  O   O46       1.0  0.4705786447969373  0.8847914412849606  0.9591070500346105  1.0000
  O   O47       1.0  0.5829667261464451  0.8116904799127197  0.024544894951233673  1.0000
  O   O48       1.0  0.5659911982579545  0.003113675749311468  0.07904502696167268  1.0000
  O   O49       1.0  0.5217663475290165  0.8694279307545545  0.08316702847331917  1.0000
  O   O50       1.0  0.5478561029974571  0.11021848969186722  0.034493625451347  1.0000
  O   O51       1.0  0.3209130697859237  0.07030000120632707  0.0198819009194651  1.0000
  O   O52       1.0  0.3808711774770829  0.03270632387481944  0.0789513264444253  1.0000
