data_image0
_chemical_formula_structural       CoH30C32N2O10
_chemical_formula_sum              "Co1 H30 C32 N2 O10"
_cell_length_a       5.414717118736289
_cell_length_b       10.179198781520174
_cell_length_c       13.237769377367862
_cell_angle_alpha    97.0903463301036
_cell_angle_beta     96.3763260970995
_cell_angle_gamma    99.60369386298328

_space_group_name_H-M_alt    "P 1"
_space_group_IT_number       1

loop_
  _space_group_symop_operation_xyz
  'x, y, z'

loop_
  _atom_site_type_symbol
  _atom_site_label
  _atom_site_symmetry_multiplicity
  _atom_site_fract_x
  _atom_site_fract_y
  _atom_site_fract_z
  _atom_site_occupancy
  Co  Co1       1.0  0.4999981872812711  0.5000027389931958  0.5000053362100871  1.0000
  H   H1        1.0  0.8824485871649587  0.0725889901764702  0.5399487833033874  1.0000
  H   H2        1.0  0.11759173238534265  0.9274152543367011  0.4600416352924341  1.0000
  H   H3        1.0  0.0384259727403489  0.21654038843090717  0.6263389707320783  1.0000
  H   H4        1.0  0.9615720829469439  0.78346767905267  0.3736591328782524  1.0000
  H   H5        1.0  0.5828271990705217  0.0145115301310597  0.6629270803376384  1.0000
  H   H6        1.0  0.4171771741119557  0.985475865443014  0.33704948469689805  1.0000
  H   H7        1.0  0.2434543035679511  0.035280331893361  0.9806638866685731  1.0000
  H   H8        1.0  0.7565068316054139  0.9647162494337778  0.019331277460757718  1.0000
  H   H9        1.0  0.4437862156583491  0.850979885876299  0.8986475562585595  1.0000
  H   H10       1.0  0.5562034548416933  0.1490262533549327  0.10135522054607549  1.0000
  H   H11       1.0  0.3459038704538884  0.7737053904966444  0.7114917487414588  1.0000
  H   H12       1.0  0.654125269891864  0.2263022401730197  0.28851339355985317  1.0000
  H   H13       1.0  0.03280931551277189  0.8676184590537306  0.6039737405874632  1.0000
  H   H14       1.0  0.9672459241422684  0.1323859702356458  0.3960175448997205  1.0000
  H   H15       1.0  0.9157830457961893  0.5610523921331635  0.3734884818947108  1.0000
  H   H16       1.0  0.0842250677378686  0.4389432824507296  0.6265244239712543  1.0000
  H   H17       1.0  0.9548401475909858  0.5603429488836867  0.19149115612096068  1.0000
  H   H18       1.0  0.045185999379185736  0.4396449538370107  0.8085229776734195  1.0000
  H   H19       1.0  0.17607556072753994  0.3591487853917529  0.1219040362004051  1.0000
  H   H20       1.0  0.8239200994810432  0.6408787157497146  0.8781074255173066  1.0000
  H   H21       1.0  0.1598261353344625  0.37972622508802084  0.3094001838105527  1.0000
  H   H22       1.0  0.8401582107924598  0.620300029963211  0.690607517001098  1.0000
  H   H23       1.0  0.7848024896736234  0.4976142019904088  0.01691710753888742  1.0000
  H   H24       1.0  0.2152061992826546  0.5023823273336205  0.9830913569878987  1.0000
  H   H25       1.0  0.5449606936689975  0.3539225288010356  0.9874324327492303  1.0000
  H   H26       1.0  0.45504564513578327  0.6460730721322392  0.012578854339963613  1.0000
  H   H27       1.0  0.04431760050111682  0.35625797235278606  0.49288140060303925  1.0000
  H   H28       1.0  0.955675217049574  0.6437413683007378  0.5071263583915453  1.0000
  H   H29       1.0  0.28468664090606677  0.2743047723730143  0.4986380850557026  1.0000
  H   H30       1.0  0.715306154347971  0.7256922268803478  0.5013596764254373  1.0000
  C   C1        1.0  0.6629797304468568  0.22710491027618218  0.5532083207781326  1.0000
  C   C2        1.0  0.33702349944449134  0.7728867658492502  0.44677680280680926  1.0000
  C   C3        1.0  0.8546594272994668  0.15079943431452852  0.6007484729767683  1.0000
  C   C4        1.0  0.14535099934610674  0.8491984758914127  0.399241291171947  1.0000
  C   C5        1.0  0.7697806934875758  0.07835684742065041  0.6878928428922535  1.0000
  C   C6        1.0  0.2302128616256525  0.9216337320955432  0.3120924041864015  1.0000
  C   C7        1.0  0.9612281706304769  0.002820149156661999  0.732207776666904  1.0000
  C   C8        1.0  0.0387635531889359  0.9971715653241943  0.2677819832032213  1.0000
  C   C9        1.0  0.02575825532833421  0.05056740944170461  0.8367919474405596  1.0000
  C   C10       1.0  0.9742215413986057  0.9494282195172018  0.1631989239424101  1.0000
  C   C11       1.0  0.19954373744560883  0.9982188711518916  0.8987924600529098  1.0000
  C   C12       1.0  0.800428937518987  0.0017788298815090981  0.1012026889441273  1.0000
  C   C13       1.0  0.31126296009964005  0.8966072111110608  0.8526224681518569  1.0000
  C   C14       1.0  0.6887297072819862  0.10339585400431159  0.1473772348243543  1.0000
  C   C15       1.0  0.2527656815936795  0.8512315426911388  0.7468139886986549  1.0000
  C   C16       1.0  0.7472529343795529  0.1487767535829221  0.2531845516796238  1.0000
  C   C17       1.0  0.07738733004605788  0.9040210805971114  0.6856151928249262  1.0000
  C   C18       1.0  0.9226353243934255  0.0959810949018021  0.3143786019504304  1.0000
  C   C19       1.0  0.8886904354502364  0.1607579523435518  0.8627571289505551  1.0000
  C   C20       1.0  0.11126989158665884  0.8392272025186786  0.1372258264496722  1.0000
  C   C21       1.0  0.7504747009363228  0.5219256973246188  0.3169950040782012  1.0000
  C   C22       1.0  0.24953563487680702  0.47807697151203854  0.6830170207204276  1.0000
  C   C23       1.0  0.7728885040182192  0.5187681256447547  0.2133110339891999  1.0000
  C   C24       1.0  0.22712846086553654  0.48122557579205977  0.7866999682471274  1.0000
  C   C25       1.0  0.5669684542875262  0.4623891551272477  0.13862965018294907  1.0000
  C   C26       1.0  0.4330433516841197  0.5376125809591201  0.8613839034855815  1.0000
  C   C27       1.0  0.34349005293049834  0.4091876568550885  0.1750954324039  1.0000
  C   C28       1.0  0.6565083257548777  0.5908309317996723  0.8249178108593611  1.0000
  C   C29       1.0  0.3317429770775178  0.4198386353242043  0.2801054747439764  1.0000
  C   C30       1.0  0.6682551421790208  0.5801789216528519  0.7199069234047499  1.0000
  C   C31       1.0  0.5881190261150806  0.45873619831360196  0.026169026454255107  1.0000
  C   C32       1.0  0.4118906478613198  0.5412584929664065  0.9738438978662671  1.0000
  N   N1        1.0  0.5311065725857205  0.4772464059204395  0.3522587703967375  1.0000
  N   N2        1.0  0.46889470514410203  0.5227631691404255  0.6477532335813835  1.0000
  O   O1        1.0  0.7500343006847813  0.33922004766465363  0.5233976585448872  1.0000
  O   O2        1.0  0.24996357830418248  0.6607809475559989  0.4765984136635097  1.0000
  O   O3        1.0  0.43092268636674186  0.175188452064198  0.5434693892985507  1.0000
  O   O4        1.0  0.5690828072615945  0.8247970296354693  0.4565093699067049  1.0000
  O   O5        1.0  0.7402448818669428  0.17596001725161164  0.7749393217915995  1.0000
  O   O6        1.0  0.2597163964707931  0.8240221415049191  0.22504347224946744  1.0000
  O   O7        1.0  0.8957886596581376  0.2331055214131652  0.9442459363126402  1.0000
  O   O8        1.0  0.10413672058907511  0.7668776346063241  0.05574772729873701  1.0000
  O   O9        1.0  0.21284299437081697  0.3516691790565574  0.4691768282609559  1.0000
  O   O10       1.0  0.7871526921890396  0.6483331533431171  0.5308297984002834  1.0000
