data_image0
_chemical_formula_structural       Ba2H28C32O16
_chemical_formula_sum              "Ba2 H28 C32 O16"
_cell_length_a       8.3655740201207
_cell_length_b       10.586559163559803
_cell_length_c       10.586722502226259
_cell_angle_alpha    66.72966295069936
_cell_angle_beta     83.240383718878
_cell_angle_gamma    83.24135286064144

_space_group_name_H-M_alt    "P 1"
_space_group_IT_number       1

loop_
  _space_group_symop_operation_xyz
  'x, y, z'

loop_
  _atom_site_type_symbol
  _atom_site_label
  _atom_site_symmetry_multiplicity
  _atom_site_fract_x
  _atom_site_fract_y
  _atom_site_fract_z
  _atom_site_occupancy
  Ba  Ba1       1.0  0.7500026617000939  0.9305428446537861  0.06945519891851855  1.0000
  Ba  Ba2       1.0  0.24999723140150817  0.0694587219683029  0.9305425228115922  1.0000
  H   H1        1.0  0.45955819483273075  0.3546552910443168  0.708124286249877  1.0000
  H   H2        1.0  0.04045262813792049  0.2918735519776163  0.6453320851715176  1.0000
  H   H3        1.0  0.5404430906184529  0.6453461014941481  0.29186678540746397  1.0000
  H   H4        1.0  0.9595636700138281  0.7081175432527403  0.35466965428015124  1.0000
  H   H5        1.0  0.3999735471582823  0.6001958059068571  0.5528747930924565  1.0000
  H   H6        1.0  0.10002680765968817  0.44712718201883916  0.3997922159802911  1.0000
  H   H7        1.0  0.6000054476472697  0.3998092542304619  0.44712970452221873  1.0000
  H   H8        1.0  0.8999871582999287  0.552862910467411  0.6002101178029591  1.0000
  H   H9        1.0  0.49114291853845776  0.7889889530164851  0.6047847262422009  1.0000
  H   H10       1.0  0.008847461066359589  0.3952209299404572  0.21100610943130252  1.0000
  H   H11       1.0  0.5088386064103928  0.21101211462836744  0.3952278443682999  1.0000
  H   H12       1.0  0.9911536568877253  0.6047786747078732  0.7889970552200366  1.0000
  H   H13       1.0  0.6463593304764501  0.7312810450944979  0.8103750960439841  1.0000
  H   H14       1.0  0.8536330162966476  0.18962364857969763  0.26871831136453045  1.0000
  H   H15       1.0  0.35363989786188194  0.26871331842831125  0.1896256580760678  1.0000
  H   H16       1.0  0.1463665348592541  0.8103801400505121  0.7312851320669793  1.0000
  H   H17       1.0  0.719066563103567  0.3861755231814001  0.08181283976291807  1.0000
  H   H18       1.0  0.7809381874332499  0.9181883882179634  0.6138315458972627  1.0000
  H   H19       1.0  0.2809253601458506  0.6138199562488965  0.9181880141370301  1.0000
  H   H20       1.0  0.21907594708769548  0.08181319144559042  0.3861726355900146  1.0000
  H   H21       1.0  0.9101247710027206  0.6285745983217056  0.10384190636388262  1.0000
  H   H22       1.0  0.5898728683408334  0.896163041398161  0.37142595193481054  1.0000
  H   H23       1.0  0.08986794445343796  0.371426044986265  0.8961576943690943  1.0000
  H   H24       1.0  0.4101326826131596  0.1038416618432692  0.6285747616422199  1.0000
  H   H25       1.0  0.058013034897740595  0.7123730242870325  0.09995616579121239  1.0000
  H   H26       1.0  0.4419941212230965  0.900050534025738  0.287618059430933  1.0000
  H   H27       1.0  0.9419823480758251  0.28762447477691205  0.9000435862094918  1.0000
  H   H28       1.0  0.5580154594749019  0.09994991124634822  0.7123803266069615  1.0000
  C   C1        1.0  0.6242247227316823  0.2559068168558484  0.9367358712748838  1.0000
  C   C2        1.0  0.8757731867654214  0.0632711706324542  0.7440904931440926  1.0000
  C   C3        1.0  0.37577412989667636  0.7440955893117901  0.06325307787551541  1.0000
  C   C4        1.0  0.12422547155305344  0.9367294704933614  0.255911486615858  1.0000
  C   C5        1.0  0.587713327553466  0.4048279843267508  0.8453893513396479  1.0000
  C   C6        1.0  0.9122737926482711  0.15461768103462253  0.5951645122824942  1.0000
  C   C7        1.0  0.4122893704396517  0.5951712862997525  0.15460059993009173  1.0000
  C   C8        1.0  0.08772591607409196  0.8453850080156896  0.40483653910608525  1.0000
  C   C9        1.0  0.49988863733575056  0.4376961900577284  0.7302216649741169  1.0000
  C   C10       1.0  0.00011512927847689777  0.26978263790365287  0.562291119865975  1.0000
  C   C11       1.0  0.5001139802190336  0.5623031491137239  0.26977109914226827  1.0000
  C   C12       1.0  0.9998956527694386  0.7302168307329922  0.43771041305834774  1.0000
  C   C13       1.0  0.467841061981197  0.5751988854136983  0.6427126547490615  1.0000
  C   C14       1.0  0.03215378664237526  0.3572935989964066  0.4247902025092927  1.0000
  C   C15       1.0  0.5321492676572672  0.42480080084678923  0.35728941554658883  1.0000
  C   C16       1.0  0.9678572301001223  0.6427037390253788  0.5752093591758155  1.0000
  C   C17       1.0  0.5202743537062273  0.6817067484261444  0.6705211706574231  1.0000
  C   C18       1.0  0.979723504398251  0.329480664286848  0.31829083960371923  1.0000
  C   C19       1.0  0.479718516006173  0.31829183281191586  0.32947927168298446  1.0000
  C   C20       1.0  0.02027750961493519  0.6705199942447565  0.6817128418594576  1.0000
  C   C21       1.0  0.60771377897084  0.6502119930242432  0.7843675532558761  1.0000
  C   C22       1.0  0.8922711941537427  0.21563236512762535  0.3497864373176966  1.0000
  C   C23       1.0  0.39228629851000096  0.34978845116962987  0.21562683881575853  1.0000
  C   C24       1.0  0.10772610193814094  0.7843693897235086  0.6502180212491169  1.0000
  C   C25       1.0  0.6437434617922475  0.5121982433861733  0.871794209545719  1.0000
  C   C26       1.0  0.8562475679886247  0.1282100421643548  0.4877999147236807  1.0000
  C   C27       1.0  0.3562653601322123  0.4877989401399391  0.128198024742879  1.0000
  C   C28       1.0  0.14375083213270295  0.8717937149146449  0.5122017402406628  1.0000
  C   C29       1.0  0.7315962221767192  0.4858933737664373  0.9934750578124322  1.0000
  C   C30       1.0  0.7683921213436591  0.006519227561575702  0.514116478509294  1.0000
  C   C31       1.0  0.26840395924502036  0.5141060165441617  0.006518817447371741  1.0000
  C   C32       1.0  0.231611375807688  0.9934794091542117  0.48589068388008627  1.0000
  O   O1        1.0  0.5144485585311925  0.1732672285463579  0.965949888588547  1.0000
  O   O2        1.0  0.9855482020869034  0.0340606237678358  0.8267178935585946  1.0000
  O   O3        1.0  0.4855488514322415  0.8267363598915481  0.03404435221535344  1.0000
  O   O4        1.0  0.014444936817511678  0.9659474282742481  0.1732871133243633  1.0000
  O   O5        1.0  0.7651243207023909  0.21834866647520812  0.9805212571107731  1.0000
  O   O6        1.0  0.7348709728937235  0.0194795918699739  0.7816508247433517  1.0000
  O   O7        1.0  0.23487721632550762  0.7816476851300466  0.01947660664288254  1.0000
  O   O8        1.0  0.2651293058484894  0.9805168195773323  0.21834900100533597  1.0000
  O   O9        1.0  0.8146016181948496  0.5724966767961419  0.9988352045121971  1.0000
  O   O10       1.0  0.6853794453216789  0.0011498674111436028  0.42752355855029833  1.0000
  O   O11       1.0  0.18539510019252245  0.4274997313907961  0.0011630062971973655  1.0000
  O   O12       1.0  0.31461571983943776  0.9988468519493025  0.5724869280251496  1.0000
  O   O13       1.0  0.9473811695781575  0.6888038934756864  0.14371961310875037  1.0000
  O   O14       1.0  0.5526237113749346  0.8562928996874318  0.3111876715447082  1.0000
  O   O15       1.0  0.05261267341000316  0.3111977667218255  0.8562794800565783  1.0000
  O   O16       1.0  0.4473864569582131  0.14371577971888883  0.6888072612995231  1.0000
