data_image0
_chemical_formula_structural       Mn2H28C22S4N22O2
_chemical_formula_sum              "Mn2 H28 C22 S4 N22 O2"
_cell_length_a       7.880270535436372
_cell_length_b       8.308991490199034
_cell_length_c       14.74769771117989
_cell_angle_alpha    85.61437894132325
_cell_angle_beta     76.29568686254642
_cell_angle_gamma    78.4394617189731

_space_group_name_H-M_alt    "P 1"
_space_group_IT_number       1

loop_
  _space_group_symop_operation_xyz
  'x, y, z'

loop_
  _atom_site_type_symbol
  _atom_site_label
  _atom_site_symmetry_multiplicity
  _atom_site_fract_x
  _atom_site_fract_y
  _atom_site_fract_z
  _atom_site_occupancy
  Mn  Mn1       1.0  0.4999955350528751  0.500002154080029  0.500001574358741  1.0000
  Mn  Mn2       1.0  0.9999988282901813  0.499998774461666  0.9999988123090802  1.0000
  H   H1        1.0  0.2305140739674627  0.679939880831185  0.4151405955318879  1.0000
  H   H2        1.0  0.7694842478053089  0.32006073062248663  0.5848590655246042  1.0000
  H   H3        1.0  0.42018264544817197  0.6758040221944768  0.3427924692191482  1.0000
  H   H4        1.0  0.5798174685835918  0.32419411391173714  0.6572077396728916  1.0000
  H   H5        1.0  0.06959772956472679  0.4854277361154189  0.6212928782011247  1.0000
  H   H6        1.0  0.9303992869041763  0.5145728755924567  0.3787076266358795  1.0000
  H   H7        1.0  0.3975800865524662  0.136093674566844  0.4317307714284766  1.0000
  H   H8        1.0  0.602415378492516  0.8639081835441261  0.5682692032897378  1.0000
  H   H9        1.0  0.17379426294283457  0.9644029370514033  0.4245359218424768  1.0000
  H   H10       1.0  0.8262029943611467  0.0355964457121161  0.5754646007112783  1.0000
  H   H11       1.0  0.9773136771884408  0.10706041445377681  0.4117701975333929  1.0000
  H   H12       1.0  0.022683815665615753  0.8929377565699214  0.5882289865545758  1.0000
  H   H13       1.0  0.20082311194264685  0.8381282564170079  0.910018433585485  1.0000
  H   H14       1.0  0.7991783126779666  0.16186986223046768  0.08998228770859379  1.0000
  H   H15       1.0  0.06476097511883692  0.6726342581807572  0.1900320833785614  1.0000
  H   H16       1.0  0.9352404495017766  0.3273638604667184  0.8099686379155173  1.0000
  H   H17       1.0  0.7023989573134839  0.4404725405690684  0.21695557961963635  1.0000
  H   H18       1.0  0.2976035291334256  0.5595268153708162  0.7830436020859182  1.0000
  H   H19       1.0  0.6877052278743746  0.8389415209938987  0.02230448097875381  1.0000
  H   H20       1.0  0.3122948835148947  0.16105662371458612  0.9776950498220174  1.0000
  H   H21       1.0  0.19326025121775103  0.8644626501841445  0.2628029900530677  1.0000
  H   H22       1.0  0.8067422405141472  0.13553668855121256  0.7371975478350238  1.0000
  H   H23       1.0  0.14203984263168934  0.0653664422262565  0.2133883462039705  1.0000
  H   H24       1.0  0.857961338511359  0.9346329139678388  0.786611679282089  1.0000
  H   H25       1.0  0.4551425658868738  0.0436834364245158  0.12171652589900359  1.0000
  H   H26       1.0  0.5448586126136805  0.9563159283718436  0.8782828214957803  1.0000
  H   H27       1.0  0.4475728255394955  0.0157066017869596  0.2427250619523917  1.0000
  H   H28       1.0  0.5524296635499086  0.9842927455506609  0.7572747978444312  1.0000
  C   C1        1.0  0.1171688626252063  0.3813845934564598  0.5755817285294782  1.0000
  C   C2        1.0  0.8828281512012027  0.6186160268536794  0.42441809821625753  1.0000
  C   C3        1.0  0.28590128713766205  0.206446047498055  0.4797798973123052  1.0000
  C   C4        1.0  0.7140985807740351  0.7935533347570428  0.5202189376804469  1.0000
  C   C5        1.0  0.0557899870461398  0.047685312588797005  0.46179760901700473  1.0000
  C   C6        1.0  0.9442083347266248  0.9523152988648674  0.5382020520394946  1.0000
  C   C7        1.0  0.30371792803887143  0.7754308376202418  0.6541831709061228  1.0000
  C   C8        1.0  0.6962772665798199  0.2245991303532904  0.3458252268476087  1.0000
  C   C9        1.0  0.18474919866066136  0.826660697590718  0.985443402445654  1.0000
  C   C10       1.0  0.8152524694375175  0.17333618351013771  0.01455801465644408  1.0000
  C   C11       1.0  0.1116127686393256  0.7408151993493136  0.126390042123937  1.0000
  C   C12       1.0  0.8883886586237892  0.25918291069589827  0.8736113572614104  1.0000
  C   C13       1.0  0.6662375949954792  0.5592190928609709  0.1837514105269733  1.0000
  C   C14       1.0  0.33376358614756907  0.4407802633331244  0.8162486149590862  1.0000
  C   C15       1.0  0.659693309604073  0.7579621317388929  0.083289516141555  1.0000
  C   C16       1.0  0.3403063227575486  0.24203846225603337  0.9167106573169762  1.0000
  C   C17       1.0  0.22827173030253792  0.9443197219899845  0.20124812145816412  1.0000
  C   C18       1.0  0.7717296943180758  0.055678396657491185  0.7987525998359146  1.0000
  C   C19       1.0  0.4219658005272891  0.9621643495496102  0.1826260977571508  1.0000
  C   C20       1.0  0.5780364503695379  0.0378362181301028  0.81737442241419  1.0000
  C   C21       1.0  0.1463428843821291  0.35881087161956765  0.17943581007875054  1.0000
  C   C22       1.0  0.8536546058294333  0.6411873080063943  0.82056269591795  1.0000
  S   S1        1.0  0.25010069272641294  0.9473269732543133  0.7083276971711854  1.0000
  S   S2        1.0  0.7499032186503244  0.05267846668306932  0.2916744550284847  1.0000
  S   S3        1.0  0.24136523272208876  0.365855387791342  0.2647181141964197  1.0000
  S   S4        1.0  0.7586353550523272  0.6341403162329585  0.7352800958553163  1.0000
  N   N1        1.0  0.12107968692937021  0.17198801512839168  0.5014102545428188  1.0000
  N   N2        1.0  0.8789160189506833  0.8280126140382293  0.4985897378921464  1.0000
  N   N3        1.0  0.011063787750309513  0.2834269378113278  0.5626616500585087  1.0000
  N   N4        1.0  0.988932987883523  0.7165749028409039  0.4373388370617376  1.0000
  N   N5        1.0  0.28762250963173835  0.3390958054891727  0.5252573077025176  1.0000
  N   N6        1.0  0.7123742660020937  0.6609060351630661  0.47474317941773586  1.0000
  N   N7        1.0  0.3441882427199586  0.6493806239236761  0.6140449600016922  1.0000
  N   N8        1.0  0.6558188768587456  0.35061506162504236  0.38595038733006254  1.0000
  N   N9        1.0  0.19187828065466314  0.8697522722497696  0.12352641632499942  1.0000
  N   N10       1.0  0.8081244519123132  0.1302458375412314  0.8764741392798499  1.0000
  N   N11       1.0  0.2405981382350292  0.9261916857101938  0.03379197697322669  1.0000
  N   N12       1.0  0.7594032890280786  0.07380642433501812  0.9662094224121206  1.0000
  N   N13       1.0  0.1048058023200369  0.7102778448356589  0.039846186994189695  1.0000
  N   N14       1.0  0.8951969302469392  0.289720264955335  0.9601543686106524  1.0000
  N   N15       1.0  0.5421155402052521  0.8052422788669135  0.16300017926892707  1.0000
  N   N16       1.0  0.45788695152664627  0.1947570598684436  0.8370003586191644  1.0000
  N   N17       1.0  0.5439678350066187  0.6793186122309508  0.22780388991432687  1.0000
  N   N18       1.0  0.456034413247707  0.32068196405102617  0.7721959521657382  1.0000
  N   N19       1.0  0.7411480494433037  0.6028057423047954  0.09447172695170988  1.0000
  N   N20       1.0  0.25885313169973756  0.3971936138893  0.9055282985343425  1.0000
  N   N21       1.0  0.07691581412299801  0.3552541477695215  0.11606811188571703  1.0000
  N   N22       1.0  0.9230816813735598  0.6447440146519129  0.8839317502935202  1.0000
  O   O1        1.0  0.3586244588181985  0.678823260475113  0.4103615346896561  1.0000
  O   O2        1.0  0.6413710062267838  0.32117859763585715  0.5896384400285515  1.0000
