data_image0
_chemical_formula_structural       Cu3P2H10C12N2O12
_chemical_formula_sum              "Cu3 P2 H10 C12 N2 O12"
_cell_length_a       6.005252084614694
_cell_length_b       8.328576110056245
_cell_length_c       9.248062828862235
_cell_angle_alpha    83.51509388057654
_cell_angle_beta     72.95589402951272
_cell_angle_gamma    72.79387675071342

_space_group_name_H-M_alt    "P 1"
_space_group_IT_number       1

loop_
  _space_group_symop_operation_xyz
  'x, y, z'

loop_
  _atom_site_type_symbol
  _atom_site_label
  _atom_site_symmetry_multiplicity
  _atom_site_fract_x
  _atom_site_fract_y
  _atom_site_fract_z
  _atom_site_occupancy
  Cu  Cu1       1.0  0.5000048015883749  0.9999995114021375  0.9999984332490045  1.0000
  Cu  Cu2       1.0  0.6059259458076409  0.42876170651629053  0.13410405868283  1.0000
  Cu  Cu3       1.0  0.3940747139486121  0.571235354210657  0.8658952060261457  1.0000
  P   P1        1.0  0.14453700788982363  0.3359351731335423  0.1551515033332223  1.0000
  P   P2        1.0  0.8554641755010977  0.6640606252342495  0.8448499505742434  1.0000
  H   H1        1.0  0.9835418807033138  0.15214857761544212  0.4436110126909085  1.0000
  H   H2        1.0  0.016461539306788987  0.8478459750765452  0.5563879740763795  1.0000
  H   H3        1.0  0.14130721161264156  0.0896567225155991  0.673613954002434  1.0000
  H   H4        1.0  0.8586891754005919  0.9103466111671991  0.32638874388870687  1.0000
  H   H5        1.0  0.6682094757807064  0.3574498999934193  0.4491239209971454  1.0000
  H   H6        1.0  0.33179067332195433  0.6425484181689998  0.550875315143557  1.0000
  H   H7        1.0  0.23532126750678373  0.7789379727587048  0.1107312668812597  1.0000
  H   H8        1.0  0.7646805238607185  0.22106916795998896  0.8892667640467805  1.0000
  H   H9        1.0  0.05479496228238651  0.8416893499940841  0.0026865827361248857  1.0000
  H   H10       1.0  0.9452103906791862  0.15830899359998096  0.9973094875396455  1.0000
  C   C1        1.0  0.24599969378648717  0.2843656893960826  0.3264246430404896  1.0000
  C   C2        1.0  0.7540004618067045  0.7156326263044973  0.6735756734153143  1.0000
  C   C3        1.0  0.1347911845956773  0.19531032825829442  0.44931963074300535  1.0000
  C   C4        1.0  0.8652054931041914  0.8046879737703138  0.5506813558692728  1.0000
  C   C5        1.0  0.2215360153832506  0.16065900056126742  0.5762816065421319  1.0000
  C   C6        1.0  0.7784618971002215  0.8393405632769558  0.423720096738741  1.0000
  C   C7        1.0  0.4150616261408119  0.21989863555871383  0.5794549671323352  1.0000
  C   C8        1.0  0.584931793632684  0.7801034270166411  0.4205484294835671  1.0000
  C   C9        1.0  0.5180169090749729  0.3080562395530748  0.45279527146915644  1.0000
  C   C10       1.0  0.4819792514807658  0.6919433223728576  0.5472046062597401  1.0000
  C   C11       1.0  0.5157694263898877  0.18473579110975177  0.7145847694485354  1.0000
  C   C12       1.0  0.4842231660812359  0.815272570402641  0.2854159886175296  1.0000
  N   N1        1.0  0.4380821113698233  0.335715425648111  0.3285299096812365  1.0000
  N   N2        1.0  0.5619190525494845  0.6642803801052113  0.6714683032809105  1.0000
  O   O1        1.0  0.18206647884441907  0.1708273164751688  0.08195197029936452  1.0000
  O   O2        1.0  0.8179352216906253  0.8291672219953057  0.9180505924914826  1.0000
  O   O3        1.0  0.31251265049505866  0.4449153314680457  0.06469953832566229  1.0000
  O   O4        1.0  0.6874868069302665  0.5550804551400716  0.9353044112902539  1.0000
  O   O5        1.0  0.8786672256085382  0.43858610171208307  0.2026091789642948  1.0000
  O   O6        1.0  0.12133375728702595  0.5614059150514592  0.7973937760413462  1.0000
  O   O7        1.0  0.6517161136813955  0.26770900518742735  0.7295982810186462  1.0000
  O   O8        1.0  0.34827371853587863  0.7323018643599325  0.27040275498910665  1.0000
  O   O9        1.0  0.450212921169694  0.06615448700171812  0.8016452591153538  1.0000
  O   O10       1.0  0.5497911262885964  0.9338514006556409  0.1983535456178345  1.0000
  O   O11       1.0  0.22523298598432007  0.8114044089069097  0.00542651148936818  1.0000
  O   O12       1.0  0.7747713391795373  0.1885964520199437  0.9945684213347477  1.0000
