data_image0
_chemical_formula_structural       Zn2H25C43N3O10
_chemical_formula_sum              "Zn2 H25 C43 N3 O10"
_cell_length_a       9.739351135271727
_cell_length_b       10.922597413885635
_cell_length_c       14.9339299498607
_cell_angle_alpha    88.03579029171118
_cell_angle_beta     75.72717371300206
_cell_angle_gamma    88.9439262828744

_space_group_name_H-M_alt    "P 1"
_space_group_IT_number       1

loop_
  _space_group_symop_operation_xyz
  'x, y, z'

loop_
  _atom_site_type_symbol
  _atom_site_label
  _atom_site_symmetry_multiplicity
  _atom_site_fract_x
  _atom_site_fract_y
  _atom_site_fract_z
  _atom_site_occupancy
  Zn  Zn1       1.0  0.1396557250289874  0.4855811988688927  0.5021462117884566  1.0000
  Zn  Zn2       1.0  0.8525174721691114  0.4942109760995379  0.4950973283626823  1.0000
  H   H1        1.0  0.7414852899081125  0.7452722957553064  0.0722835478999855  1.0000
  H   H2        1.0  0.7102025829101565  0.3248957873727605  0.628195687632136  1.0000
  H   H3        1.0  0.5549186844900262  0.16151031202932134  0.7164353576132284  1.0000
  H   H4        1.0  0.30464102913005325  0.1462261709668198  0.7053467724301753  1.0000
  H   H5        1.0  0.20708792379060983  0.295512408665715  0.6085005501923035  1.0000
  H   H6        1.0  0.3875787125703524  0.6344159472640741  0.4235658021066229  1.0000
  H   H7        1.0  0.9127514632739846  0.48772876312914093  0.19082370643120333  1.0000
  H   H8        1.0  0.9523877753982292  0.7231014983439225  0.9424875609723741  1.0000
  H   H9        1.0  0.676136618247746  0.4888241059769315  0.7698689682601199  1.0000
  H   H10       1.0  0.49577705013439294  0.6919220842609448  0.1476341901005256  1.0000
  H   H11       1.0  0.4680933820225447  0.4787190080670813  0.8188125822145337  1.0000
  H   H12       1.0  0.010268336198869603  0.4689497790078434  0.0202344214963617  1.0000
  H   H13       1.0  0.4935522181698033  0.43307015602356114  0.1740892497854531  1.0000
  H   H14       1.0  0.3782672637414208  0.39373948594720076  0.28560092400357456  1.0000
  H   H15       1.0  0.5198669851483899  0.5008208255790406  0.2757286685048399  1.0000
  H   H16       1.0  0.2798179497848921  0.2538903672974158  0.8740933303803967  1.0000
  H   H17       1.0  0.1088557579185334  0.2796285357484222  0.8511534306151772  1.0000
  H   H18       1.0  0.12850594801896878  0.28320440134983466  0.9676169481510255  1.0000
  H   H19       1.0  0.8308793249459399  0.09472301948989782  0.6099710250742802  1.0000
  H   H20       1.0  0.1645132786745833  0.2312573239663891  0.33453615812589976  1.0000
  H   H21       1.0  0.3218281194812603  0.1289765931248397  0.2017930438856155  1.0000
  H   H22       1.0  0.33594089613816175  0.9003109535391548  0.19873217543722177  1.0000
  H   H23       1.0  0.1955701863163881  0.7749232966201236  0.3281299507120679  1.0000
  H   H24       1.0  0.8419892155212522  0.8660919183025443  0.6065398651390908  1.0000
  H   H25       1.0  0.6473983660688559  0.6422350188176793  0.4264698173196209  1.0000
  C   C1        1.0  0.9860511801182241  0.25498505244379993  0.4905088977772891  1.0000
  C   C2        1.0  0.2246688162388253  0.5102363552004973  0.024834759760146614  1.0000
  C   C3        1.0  0.3150045284291778  0.5521492133471853  0.0796292195921282  1.0000
  C   C4        1.0  0.9352763818880164  0.5136417681020546  0.6751043995363162  1.0000
  C   C5        1.0  0.0786227833319089  0.49200544665615814  0.0648334905358183  1.0000
  C   C6        1.0  0.0248362324723033  0.5018838015070273  0.158705577461582  1.0000
  C   C7        1.0  0.2588673132530062  0.5481575877666245  0.17757983293562765  1.0000
  C   C8        1.0  0.17132221233632808  0.13144221383650026  0.3333910362436966  1.0000
  C   C9        1.0  0.2590844774268533  0.0742991132862159  0.25948449220726383  1.0000
  C   C10       1.0  0.2671403485598772  0.9449319285212779  0.2578533957374489  1.0000
  C   C11       1.0  0.1880273200495992  0.8744016897940484  0.3300007393659783  1.0000
  C   C12       1.0  0.6643632495699877  0.5812756142799884  0.8984269204224018  1.0000
  C   C13       1.0  0.0957435810681488  0.9299651065649357  0.40733581346026426  1.0000
  C   C14       1.0  0.08733024527396789  0.0615378577767913  0.4084921364806532  1.0000
  C   C15       1.0  0.9917849477484849  0.11849639227882142  0.48387121797097893  1.0000
  C   C16       1.0  0.007740602479984199  0.7249082552567216  0.4881566260109621  1.0000
  C   C17       1.0  0.9045626550010581  0.04933794485069139  0.5534726098945553  1.0000
  C   C18       1.0  0.9110452169998312  0.9209095322866644  0.551886997793588  1.0000
  C   C19       1.0  0.005888060335770699  0.8615840990989909  0.48175244650047927  1.0000
  C   C20       1.0  0.6013240477486262  0.31697897676477993  0.6234583152062924  1.0000
  C   C21       1.0  0.5137434806873813  0.2274426926880082  0.6727955962740709  1.0000
  C   C22       1.0  0.3714075224125963  0.21919706367159364  0.6671282044387181  1.0000
  C   C23       1.0  0.7470715114512174  0.6472967037358048  0.9471924682759434  1.0000
  C   C24       1.0  0.31585179769631827  0.30234927832766095  0.6138824162966257  1.0000
  C   C25       1.0  0.40272703845828056  0.39578923892081974  0.5626820336624971  1.0000
  C   C26       1.0  0.5481922659819601  0.4025075664268412  0.566636038646365  1.0000
  C   C27       1.0  0.5773443740730643  0.5721315077943245  0.46600306772532457  1.0000
  C   C28       1.0  0.0589114125659123  0.5055440018683085  0.3193916618796137  1.0000
  C   C29       1.0  0.4338321349870213  0.5670871117487836  0.4635160048432637  1.0000
  C   C30       1.0  0.8752916672384218  0.5609107556098252  0.7697567335230032  1.0000
  C   C31       1.0  0.1161915045009394  0.5219622931307556  0.21690698775373815  1.0000
  C   C32       1.0  0.891054286085975  0.6709085777470492  0.9052498069123159  1.0000
  C   C33       1.0  0.9565518636057676  0.6292992220234979  0.8177607686787239  1.0000
  C   C34       1.0  0.5162858157167847  0.5572952837873828  0.9407483566821854  1.0000
  C   C35       1.0  0.7331445600752601  0.5400685609615223  0.8101724016502911  1.0000
  C   C36       1.0  0.43993469524494344  0.46704276001720774  0.24251143404274694  1.0000
  C   C37       1.0  0.1790047235979628  0.3052195193159264  0.8944890822959763  1.0000
  C   C38       1.0  0.10158633041331201  0.6614294523218902  0.7800677490950321  1.0000
  C   C39       1.0  0.4588387895034459  0.5883942820528817  0.034373228632489365  1.0000
  C   C40       1.0  0.5435321213396733  0.6595228088357104  0.07884766796572511  1.0000
  C   C41       1.0  0.6808867743454172  0.6893001950859556  0.03687684526239823  1.0000
  C   C42       1.0  0.427487439210516  0.5027033397039772  0.8907109915338864  1.0000
  C   C43       1.0  0.28673570115959285  0.4830076290246624  0.9301504101655025  1.0000
  N   N1        1.0  0.6334713350342936  0.49088579440576297  0.5150433065937391  1.0000
  N   N2        1.0  0.349903232868229  0.4793790745434592  0.5090472489084874  1.0000
  N   N3        1.0  0.21829295526990927  0.6958377565362923  0.7566809469456925  1.0000
  O   O1        1.0  0.0861846301431655  0.30329420679488095  0.5173798615358649  1.0000
  O   O2        1.0  0.20271079665787536  0.43442400920100976  0.8783058064525235  1.0000
  O   O3        1.0  0.881235305003102  0.31135217701660167  0.4713591815611125  1.0000
  O   O4        1.0  0.06730898038721732  0.5250340516540319  0.6398468789552749  1.0000
  O   O5        1.0  0.8484719601514  0.4658969704173189  0.635276752905618  1.0000
  O   O6        1.0  0.127176419437049  0.6695173313458866  0.470752712877065  1.0000
  O   O7        1.0  0.8870395569131091  0.6734395809294184  0.5135919618809622  1.0000
  O   O8        1.0  0.14331296181189399  0.46020887703628693  0.3649785220344057  1.0000
  O   O9        1.0  0.9291158644909812  0.5333457084696036  0.35329327096200563  1.0000
  O   O10       1.0  0.3476128807713009  0.5692756053533047  0.23447259610304633  1.0000
