data_image0
_chemical_formula_structural       Ag4H32C24N12O12
_chemical_formula_sum              "Ag4 H32 C24 N12 O12"
_cell_length_a       6.217162714571775
_cell_length_b       11.052281363770495
_cell_length_c       11.78218950680831
_cell_angle_alpha    90.00078522880824
_cell_angle_beta     90.00108786756027
_cell_angle_gamma    89.99889370025498

_space_group_name_H-M_alt    "P 1"
_space_group_IT_number       1

loop_
  _space_group_symop_operation_xyz
  'x, y, z'

loop_
  _atom_site_type_symbol
  _atom_site_label
  _atom_site_symmetry_multiplicity
  _atom_site_fract_x
  _atom_site_fract_y
  _atom_site_fract_z
  _atom_site_occupancy
  Ag  Ag1       1.0  0.24999028804901974  0.2749424029210914  0.44310911300182426  1.0000
  Ag  Ag2       1.0  0.7499970859090512  0.7749395054149842  0.05689204490082738  1.0000
  Ag  Ag3       1.0  0.2500001340860579  0.22505681485814924  0.9430888686261408  1.0000
  Ag  Ag4       1.0  0.7499924565481637  0.7250439649333559  0.5568989600266006  1.0000
  H   H1        1.0  0.10927726557741123  0.30424298383795895  0.6877948656413291  1.0000
  H   H2        1.0  0.8907399586278262  0.8042404810831626  0.8121999203743041  1.0000
  H   H3        1.0  0.39074418414371354  0.19577511636889267  0.18780616847723752  1.0000
  H   H4        1.0  0.6092491164629694  0.695760298405915  0.31220330974412736  1.0000
  H   H5        1.0  0.8907440816675706  0.6957524317057705  0.3122123588998987  1.0000
  H   H6        1.0  0.1092604783557931  0.1957748399422385  0.1878039092351073  1.0000
  H   H7        1.0  0.609261078177312  0.8042383950304384  0.8121951149286982  1.0000
  H   H8        1.0  0.3907641880496373  0.30425773690870267  0.6877988224698084  1.0000
  H   H9        1.0  0.11708225975167613  0.4332519160948393  0.8545253541533026  1.0000
  H   H10       1.0  0.8829305495385072  0.9332325810477683  0.6454668432946773  1.0000
  H   H11       1.0  0.3829532294573995  0.06676500543924391  0.3545221924949684  1.0000
  H   H12       1.0  0.6170975646667857  0.5667585191517047  0.14546441232988624  1.0000
  H   H13       1.0  0.8829423039307617  0.5667688335550166  0.14548017308920436  1.0000
  H   H14       1.0  0.11709079757105202  0.0667546912689687  0.35452510389801956  1.0000
  H   H15       1.0  0.6170697257954317  0.9332313147123515  0.6454612673770013  1.0000
  H   H16       1.0  0.38293343286812853  0.43324684893637777  0.8545292325046244  1.0000
  H   H17       1.0  0.2500002629670206  0.6008657506691221  0.7712259400026438  1.0000
  H   H18       1.0  0.749956366888455  0.10084649220578258  0.7287679336369732  1.0000
  H   H19       1.0  0.25003120227462017  0.8991724479898835  0.27122740854434807  1.0000
  H   H20       1.0  0.7500033906404939  0.39916133258515885  0.22877364600493164  1.0000
  H   H21       1.0  0.24998519146096512  0.779419779208489  0.6397082366151776  1.0000
  H   H22       1.0  0.7499444177566092  0.2794051603411916  0.8602896253429928  1.0000
  H   H23       1.0  0.2500109831111886  0.7206047323537917  0.13973711995035384  1.0000
  H   H24       1.0  0.749984684793404  0.22058377955681144  0.36027522303725573  1.0000
  H   H25       1.0  0.249991714164132  0.7418712455121582  0.4300661461955214  1.0000
  H   H26       1.0  0.7499678393772343  0.2418650431908418  0.06992525109978938  1.0000
  H   H27       1.0  0.2500084716005802  0.7581195151796293  0.9300913092716169  1.0000
  H   H28       1.0  0.7499636864498174  0.25811512236077055  0.5699241031835525  1.0000
  H   H29       1.0  0.2499876733216056  0.5284686380510591  0.3600794828450373  1.0000
  H   H30       1.0  0.7500097443158041  0.0284661744189236  0.13992190767089593  1.0000
  H   H31       1.0  0.2500099945730697  0.9715165740158228  0.8600785268715466  1.0000
  H   H32       1.0  0.7499693360965768  0.47150777719133435  0.6399209513424393  1.0000
  C   C1        1.0  0.2499968193821829  0.4710616891807503  0.6351239183235291  1.0000
  C   C2        1.0  0.7499986114174252  0.971047013859007  0.8648730078809519  1.0000
  C   C3        1.0  0.25001630171905737  0.028949306392306105  0.13511809059886554  1.0000
  C   C4        1.0  0.7499875334173751  0.5289418697044893  0.3648867010392961  1.0000
  C   C5        1.0  0.2500097117144834  0.3599168553983105  0.709613604584369  1.0000
  C   C6        1.0  0.749995956924245  0.8598938514703816  0.7903895342165083  1.0000
  C   C7        1.0  0.25000608854261236  0.1401133263876062  0.20960835417794488  1.0000
  C   C8        1.0  0.7499939421719335  0.6400930368288513  0.2903851325742365  1.0000
  C   C9        1.0  0.24999240452811486  0.587947385970324  0.6797250371897616  1.0000
  C   C10       1.0  0.7499711013547671  0.08793218125815369  0.8202788556247566  1.0000
  C   C11       1.0  0.2500180766592025  0.9120731871384679  0.17972582260307485  1.0000
  C   C12       1.0  0.7499983817680375  0.4120606967395588  0.3202728511540796  1.0000
  C   C13       1.0  0.2499926074739848  0.6872394732729318  0.6066170215312423  1.0000
  C   C14       1.0  0.7499707170537137  0.18723167228734638  0.8933872965635101  1.0000
  C   C15       1.0  0.2500168527400107  0.8127673626337071  0.10662417152509107  1.0000
  C   C16       1.0  0.7499853112480397  0.31276318073874887  0.3933774717585619  1.0000
  C   C17       1.0  0.24999407307736732  0.666738777776139  0.4897396322499218  1.0000
  C   C18       1.0  0.7499873532990836  0.1667353210652749  0.010260986045736296  1.0000
  C   C19       1.0  0.2500082589956564  0.8332510467563666  0.9897521794792675  1.0000
  C   C20       1.0  0.7499758034982238  0.33326206672925457  0.5102591046813884  1.0000
  C   C21       1.0  0.24999379459904253  0.548039017003923  0.45075290810814267  1.0000
  C   C22       1.0  0.7500077786340784  0.04802979731454121  0.04924279231326518  1.0000
  C   C23       1.0  0.2500119603169468  0.9519484271611204  0.9507567934614725  1.0000
  C   C24       1.0  0.7499760822382273  0.4519527796392141  0.5492517699358996  1.0000
  N   N1        1.0  0.24999027785662528  0.4518295332402217  0.5214063912556026  1.0000
  N   N2        1.0  0.750005811119465  0.9518183320871855  0.9785928344313246  1.0000
  N   N3        1.0  0.25000749376624753  0.04817165467613901  0.021403356431903792  1.0000
  N   N4        1.0  0.7499892498227186  0.5481613586094695  0.47860507674045727  1.0000
  N   N5        1.0  0.2500067016338718  0.3829636753435039  0.8324703742112758  1.0000
  N   N6        1.0  0.749999786575515  0.882947016053535  0.6675313628604724  1.0000
  N   N7        1.0  0.25001351823191004  0.11705111384981139  0.3324682230097195  1.0000
  N   N8        1.0  0.7500082117147999  0.6170389785722817  0.16753854782150765  1.0000
  N   N9        1.0  0.24996188687607204  0.05447339104537719  0.6217035357855419  1.0000
  N   N10       1.0  0.7500156316098415  0.5544797220318004  0.8782871966672583  1.0000
  N   N11       1.0  0.2500073235786644  0.4455301700467445  0.12170559941728944  1.0000
  N   N12       1.0  0.7500433757548208  0.9455211197456846  0.37829689875981376  1.0000
  O   O1        1.0  0.4271957300206993  0.10096396117422302  0.5911832303792719  1.0000
  O   O2        1.0  0.5727705461012107  0.6009853366232819  0.9087894263623891  1.0000
  O   O3        1.0  0.07277399175576703  0.39901381912289935  0.09120074463984905  1.0000
  O   O4        1.0  0.9272943837471034  0.8990313331495159  0.4088104930912804  1.0000
  O   O5        1.0  0.5728047073525959  0.8990178825253848  0.40881041415118335  1.0000
  O   O6        1.0  0.4272684928858226  0.3990526037822804  0.09119063890245367  1.0000
  O   O7        1.0  0.9272570063022842  0.6009743580374476  0.9088056311646182  1.0000
  O   O8        1.0  0.07271570433940162  0.10097765440733042  0.5912094625608331  1.0000
  O   O9        1.0  0.2499812825040238  0.9599022948433742  0.6835144953294684  1.0000
  O   O10       1.0  0.7500193551847121  0.4599042252676923  0.8164771953943412  1.0000
  O   O11       1.0  0.249981081785606  0.5401029525804191  0.18351814677600933  1.0000
  O   O12       1.0  0.7500288053726866  0.0400904062843495  0.3164783005803144  1.0000
