data_image0
_chemical_formula_structural       Zn2Co4H32C48O16
_chemical_formula_sum              "Zn2 Co4 H32 C48 O16"
_cell_length_a       10.289362298069396
_cell_length_b       10.28931175186211
_cell_length_c       15.0569
_cell_angle_alpha    109.93674313064335
_cell_angle_beta     109.93664103795635
_cell_angle_gamma    90.0155066644289

_space_group_name_H-M_alt    "P 1"
_space_group_IT_number       1

loop_
  _space_group_symop_operation_xyz
  'x, y, z'

loop_
  _atom_site_type_symbol
  _atom_site_label
  _atom_site_symmetry_multiplicity
  _atom_site_fract_x
  _atom_site_fract_y
  _atom_site_fract_z
  _atom_site_occupancy
  Zn  Zn1       1.0  0.8749654937577773  0.6250862795219801  0.7499786905178141  1.0000
  Zn  Zn2       1.0  0.1250353085098794  0.3749140984427441  0.25002158449336054  1.0000
  Co  Co1       1.0  0.9402549620861081  0.1902599747087166  0.8804922256819978  1.0000
  Co  Co2       1.0  0.6902906687497535  0.44024963970971237  0.3804888395833359  1.0000
  Co  Co3       1.0  0.05974377251156679  0.8097404032560077  0.11950690338490223  1.0000
  Co  Co4       1.0  0.30970806584792143  0.559750738255012  0.6195116177782295  1.0000
  H   H1        1.0  0.8863768266510164  0.4407648565248792  0.9989070404187144  1.0000
  H   H2        1.0  0.1125625877669023  0.05815275137622679  0.9989752538371234  1.0000
  H   H3        1.0  0.5581558977426367  0.386380279952661  0.4989514153670099  1.0000
  H   H4        1.0  0.940804603810072  0.6125062284602477  0.4989155949929651  1.0000
  H   H5        1.0  0.1136238380820132  0.5592344784908292  0.0010929595227366362  1.0000
  H   H6        1.0  0.8874371806657635  0.9418476265884905  0.001024116128242178  1.0000
  H   H7        1.0  0.44184490452501995  0.6136200980120633  0.5010495237915007  1.0000
  H   H8        1.0  0.059194405856850096  0.3874962354025086  0.501085412508047  1.0000
  H   H9        1.0  0.6961248162725013  0.0924407433100356  0.7100918882144639  1.0000
  H   H10       1.0  0.013942999003674603  0.1177426865000228  0.7099944832898897  1.0000
  H   H11       1.0  0.6177754145789435  0.1961119616517948  0.2100069411579497  1.0000
  H   H12       1.0  0.5924237713153531  0.5140142949446016  0.21009041001277495  1.0000
  H   H13       1.0  0.3038739183251735  0.9075596346546887  0.2899079049997723  1.0000
  H   H14       1.0  0.9860576657293549  0.8822566485156855  0.2900048525042249  1.0000
  H   H15       1.0  0.3822255252233333  0.8038894592619457  0.7899936089229556  1.0000
  H   H16       1.0  0.40757675588304926  0.4859839971220907  0.7899099790062819  1.0000
  H   H17       1.0  0.8533633255312196  0.21348227755571966  0.04144286853804153  1.0000
  H   H18       1.0  0.1880080604343988  0.32784268038859204  0.04132387330120926  1.0000
  H   H19       1.0  0.8278561219334151  0.353332354401914  0.5413538138335667  1.0000
  H   H20       1.0  0.7135361903795072  0.6880386822815722  0.5414202393161672  1.0000
  H   H21       1.0  0.1466373392018099  0.7865170574599816  0.9585564672560735  1.0000
  H   H22       1.0  0.8119915704636327  0.6721566546271162  0.958675885741769  1.0000
  H   H23       1.0  0.1721435089646235  0.6466669806137871  0.45864660935674795  1.0000
  H   H24       1.0  0.2864637155877858  0.3119627386321682  0.45858139816093046  1.0000
  H   H25       1.0  0.7337064010492753  0.993546609437942  0.8620442458918587  1.0000
  H   H26       1.0  0.12827896166298564  0.3685521094295936  0.8619124382941761  1.0000
  H   H27       1.0  0.86855394189368  0.2336654269626735  0.36195625262492837  1.0000
  H   H28       1.0  0.4935955457960262  0.6283507099500412  0.36205463207092237  1.0000
  H   H29       1.0  0.2662933673833905  0.0064537685267751  0.13795578822084306  1.0000
  H   H30       1.0  0.8717217030700367  0.6314472255861077  0.13808623335260953  1.0000
  H   H31       1.0  0.1314469979086041  0.7663359939510669  0.6380456257506422  1.0000
  H   H32       1.0  0.5064040851020124  0.37164862506566715  0.6379451269720561  1.0000
  C   C1        1.0  0.7883444171355123  0.3910526915557639  0.7763992103896269  1.0000
  C   C2        1.0  0.9881579348083137  0.8855064776574793  0.7764516434010957  1.0000
  C   C3        1.0  0.3854966983076267  0.2883169984836371  0.2764518931419957  1.0000
  C   C4        1.0  0.8910099751854261  0.48812099966109196  0.2763700726560359  1.0000
  C   C5        1.0  0.21165638513214446  0.6089476864089604  0.22360040047421134  1.0000
  C   C6        1.0  0.011840524720106802  0.114491814409206  0.22354759967368656  1.0000
  C   C7        1.0  0.6145041039600301  0.7116833794810873  0.7235490460165153  1.0000
  C   C8        1.0  0.1089908270822235  0.5118793783036324  0.723630866502475  1.0000
  C   C9        1.0  0.7841897770691731  0.2999417082443756  0.8349307103677005  1.0000
  C   C10       1.0  0.0508365468926542  0.0350576883094931  0.8349366587312658  1.0000
  C   C11       1.0  0.5350737412951787  0.2841285152251487  0.3349315355049924  1.0000
  C   C12       1.0  0.7999784217219386  0.5508522972287507  0.3349199241989068  1.0000
  C   C13       1.0  0.2158120590334747  0.7000586697203488  0.1650704696892831  1.0000
  C   C14       1.0  0.9491630840053843  0.9649416467062152  0.16506376445904172  1.0000
  C   C15       1.0  0.4649271985071053  0.7158729056885988  0.6650696787232417  1.0000
  C   C16       1.0  0.2000235519153293  0.44914912368498955  0.6650802026331347  1.0000
  C   C17       1.0  0.835588544247763  0.3388708233107209  0.9433709016859237  1.0000
  C   C18       1.0  0.10780343441767569  0.10451392114875088  0.9433608600755077  1.0000
  C   C19       1.0  0.6045194944675671  0.33551774221609065  0.443369295404345  1.0000
  C   C20       1.0  0.8389192318330814  0.6077639392729068  0.44335432517623724  1.0000
  C   C21       1.0  0.1644131543202576  0.6611285117049803  0.056629339153999945  1.0000
  C   C22       1.0  0.8921961964803559  0.8954854138669573  0.056638234820134394  1.0000
  C   C23       1.0  0.3954792401301077  0.6644826357486338  0.5566318261045566  1.0000
  C   C24       1.0  0.1610827418041936  0.3922374816408336  0.5566458016558044  1.0000
  C   C25       1.0  0.7354116176855356  0.1530579832170957  0.7908801534862349  1.0000
  C   C26       1.0  0.0554533373790065  0.13790497692659898  0.7907990895724452  1.0000
  C   C27       1.0  0.6379454291750335  0.2354196672118718  0.29081680867549403  1.0000
  C   C28       1.0  0.6530825095356079  0.5555612120475004  0.29087304033906486  1.0000
  C   C29       1.0  0.2645890470474868  0.8469413517986126  0.20911918230788729  1.0000
  C   C30       1.0  0.9445449846147795  0.8620922721910702  0.2091998784326066  1.0000
  C   C31       1.0  0.3620550980233689  0.7645786248548134  0.7091829161962336  1.0000
  C   C32       1.0  0.346916225062067  0.444439165917224  0.7091274170225006  1.0000
  C   C33       1.0  0.8175750205349673  0.21732345879103576  0.9656998082110704  1.0000
  C   C34       1.0  0.1480415107566415  0.2483355478575788  0.9655977658562875  1.0000
  C   C35       1.0  0.7483551298686137  0.317550859473549  0.4656306753685867  1.0000
  C   C36       1.0  0.7173649249383871  0.6480593175535531  0.4656713413237055  1.0000
  C   C37       1.0  0.1824257817326895  0.7826769191736886  0.03429980265276809  1.0000
  C   C38       1.0  0.851958120141397  0.7516637871581295  0.03440066489202559  1.0000
  C   C39       1.0  0.2516446385640521  0.6824495184911683  0.5343700228914513  1.0000
  C   C40       1.0  0.2826351185635332  0.3519431463092104  0.5343292429284502  1.0000
  C   C41       1.0  0.7560634910188995  0.10209949417080817  0.8714525154223975  1.0000
  C   C42       1.0  0.11529983813934312  0.2693687007146437  0.871296877302484  1.0000
  C   C43       1.0  0.7693948664900745  0.25603355456348703  0.3713573165496128  1.0000
  C   C44       1.0  0.6021376632759257  0.615405626731814  0.3714423416778984  1.0000
  C   C45       1.0  0.2439362774137663  0.8979008837939161  0.12854751869031128  1.0000
  C   C46       1.0  0.8846986213890773  0.7306295913520415  0.12870103747762573  1.0000
  C   C47       1.0  0.23060503947721864  0.7439678663502605  0.6286429926328196  1.0000
  C   C48       1.0  0.3978610713217492  0.3845947512329104  0.6285567873890016  1.0000
  O   O1        1.0  0.9777369775287355  0.8167761373351323  0.8319564054135993  1.0000
  O   O2        1.0  0.8541260647500621  0.5152011709277105  0.8319262512997054  1.0000
  O   O3        1.0  0.015143980605849101  0.4777728594990549  0.3318994222308048  1.0000
  O   O4        1.0  0.31680278037732984  0.3541416828403072  0.3319768262781507  1.0000
  O   O5        1.0  0.022262790903923198  0.18322424062959183  0.16804296455177334  1.0000
  O   O6        1.0  0.1458726698476127  0.484799207037014  0.1680742060618599  1.0000
  O   O7        1.0  0.9848579930314258  0.5222285614146855  0.6681026970432382  1.0000
  O   O8        1.0  0.6831972631245904  0.6458607810224491  0.6680244221213413  1.0000
  O   O9        1.0  0.7301961490328068  0.3424053775345826  0.6820903134724644  1.0000
  O   O10       1.0  0.9521000688401813  0.8399827959468594  0.6821303142767546  1.0000
  O   O11       1.0  0.3399293826007082  0.2301381733819454  0.18214624314940409  1.0000
  O   O12       1.0  0.8423077932309369  0.45197760142329446  0.18205393872639758  1.0000
  O   O13       1.0  0.2698049283041044  0.657597086328181  0.3179105116781642  1.0000
  O   O14       1.0  0.04789956205785731  0.1600165390688488  0.3178707730608892  1.0000
  O   O15       1.0  0.6600724535019395  0.769862204582779  0.8178536086129139  1.0000
  O   O16       1.0  0.157690941366738  0.5480227765414298  0.8179465186351677  1.0000
