data_image0
_chemical_formula_structural       Cd2H16C8S2Br2N8
_chemical_formula_sum              "Cd2 H16 C8 S2 Br2 N8"
_cell_length_a       6.7793113483763925
_cell_length_b       7.46461139675577
_cell_length_c       12.144798326370973
_cell_angle_alpha    69.8987570988944
_cell_angle_beta     84.21973606803954
_cell_angle_gamma    76.25411813824304

_space_group_name_H-M_alt    "P 1"
_space_group_IT_number       1

loop_
  _space_group_symop_operation_xyz
  'x, y, z'

loop_
  _atom_site_type_symbol
  _atom_site_label
  _atom_site_symmetry_multiplicity
  _atom_site_fract_x
  _atom_site_fract_y
  _atom_site_fract_z
  _atom_site_occupancy
  Cd  Cd1       1.0  0.32460970816643436  0.30035358836678216  0.589867909396169  1.0000
  Cd  Cd2       1.0  0.6753902200381245  0.6996684244841587  0.41012477011912557  1.0000
  H   H1        1.0  0.6944114327404092  0.34756513189544336  0.9695938430529054  1.0000
  H   H2        1.0  0.30556814939321  0.6524056007582996  0.030407718096583415  1.0000
  H   H3        1.0  0.5062161856150879  0.29049799251944813  0.9015630374019707  1.0000
  H   H4        1.0  0.4937871721009017  0.7094710046058664  0.09842638957300663  1.0000
  H   H5        1.0  0.5058033879273651  0.5416577367135248  0.8802649832195257  1.0000
  H   H6        1.0  0.494173775294584  0.45830497930528935  0.119741232696434  1.0000
  H   H7        1.0  0.0335711540732859  0.2643576304247048  0.859003776165437  1.0000
  H   H8        1.0  0.9664324155386977  0.7356367692086323  0.14099270013480233  1.0000
  H   H9        1.0  0.9769418937197897  0.03725394036724341  0.618136925622828  1.0000
  H   H10       1.0  0.02307411109268293  0.9627408281127358  0.3818785633825641  1.0000
  H   H11       1.0  0.9378105644350395  0.22107087524824456  0.4801049387726195  1.0000
  H   H12       1.0  0.06218448325572721  0.7789248543988663  0.5199126542085608  1.0000
  H   H13       1.0  0.29122063275362103  0.09916041742591367  0.4295222976173392  1.0000
  H   H14       1.0  0.7087758642326063  0.9008463415744927  0.5704828000758013  1.0000
  H   H15       1.0  0.3231731799294765  0.941965884601359  0.5629125494470273  1.0000
  H   H16       1.0  0.6768383147486502  0.05804657962091397  0.43709235903823185  1.0000
  C   C1        1.0  0.6698875355315079  0.48761298305780093  0.6747755159361688  1.0000
  C   C2        1.0  0.3301120759497707  0.5123983073787386  0.325221243083881  1.0000
  C   C3        1.0  0.6011091239500103  0.3956303302931232  0.8919399364746142  1.0000
  C   C4        1.0  0.3988804519363569  0.6043414281362304  0.1080566524261926  1.0000
  C   C5        1.0  0.9369339704639258  0.3383720346871825  0.7834741166234238  1.0000
  C   C6        1.0  0.06305075649311229  0.6616430436315921  0.21650401597042904  1.0000
  C   C7        1.0  0.024166693029457103  0.07294986213671711  0.5251724469312862  1.0000
  C   C8        1.0  0.9758403995014715  0.9270509442533663  0.4748411010823902  1.0000
  S   S1        1.0  0.42640041748951046  0.5960276212327927  0.6280624430876286  1.0000
  S   S2        1.0  0.5736007583020778  0.403990101480268  0.3719374157610105  1.0000
  Br  Br1       1.0  0.5458168420544993  0.0049765915455424175  0.758755969430588  1.0000
  Br  Br2       1.0  0.4541842826361061  0.995047887914346  0.2412453919609305  1.0000
  N   N1        1.0  0.7328037861981683  0.4064789468662795  0.7890581360368926  1.0000
  N   N2        1.0  0.2672080221135359  0.5935177333727282  0.2109341322591476  1.0000
  N   N3        1.0  0.8320012831349216  0.47093603710244036  0.6038816601426333  1.0000
  N   N4        1.0  0.16800349261615813  0.5290844190375809  0.39611174935763666  1.0000
  N   N5        1.0  0.9988825912770095  0.3764587800858195  0.6727796691617839  1.0000
  N   N6        1.0  0.001115265151241856  0.6235537651807873  0.3272178541027487  1.0000
  N   N7        1.0  0.24159530008124355  0.07714198986375466  0.5151382701962888  1.0000
  N   N8        1.0  0.7584084426742734  0.9228658124436818  0.4848686737457512  1.0000
