data_image0
_chemical_formula_structural       Zn4H52C88O20
_chemical_formula_sum              "Zn4 H52 C88 O20"
_cell_length_a       11.637329801163165
_cell_length_b       13.208688452679093
_cell_length_c       15.82005871164482
_cell_angle_alpha    90.11076068607498
_cell_angle_beta     90.060766330936
_cell_angle_gamma    78.17190888391117

_space_group_name_H-M_alt    "P 1"
_space_group_IT_number       1

loop_
  _space_group_symop_operation_xyz
  'x, y, z'

loop_
  _atom_site_type_symbol
  _atom_site_label
  _atom_site_symmetry_multiplicity
  _atom_site_fract_x
  _atom_site_fract_y
  _atom_site_fract_z
  _atom_site_occupancy
  Zn  Zn1       1.0  0.9226084888712976  0.17988547722643486  0.4977476777002182  1.0000
  Zn  Zn2       1.0  0.0783472892714485  0.31699742281652743  0.4985082174243092  1.0000
  Zn  Zn3       1.0  0.9192909157387561  0.6812309362998263  0.5028147750489326  1.0000
  Zn  Zn4       1.0  0.0788110928213115  0.8147061741991878  0.501506373831923  1.0000
  H   H1        1.0  0.7492043958306456  0.0898382526899439  0.4685702193610056  1.0000
  H   H2        1.0  0.738661976878497  0.2793707670348482  0.7343890921388624  1.0000
  H   H3        1.0  0.6517219243211871  0.3683108344461631  0.8653053369356913  1.0000
  H   H4        1.0  0.767835876788638  0.4390852048097644  0.9989791865175095  1.0000
  H   H5        1.0  0.8670522181956811  0.0033393246688006996  0.46827498780573523  1.0000
  H   H6        1.0  0.7210587244792422  0.28972257313554195  0.2710749423212349  1.0000
  H   H7        1.0  0.6371498738022154  0.3766470265796614  0.13851717942607422  1.0000
  H   H8        1.0  0.27855362581491516  0.21021100534343162  0.727435662014557  1.0000
  H   H9        1.0  0.3659705117422477  0.12101351670541761  0.8580808970219211  1.0000
  H   H10       1.0  0.2343371746930814  0.06044429577033131  0.9981456384509504  1.0000
  H   H11       1.0  0.27465200695868935  0.21072556805618353  0.2706942480318873  1.0000
  H   H12       1.0  0.35767873732403654  0.12538603060018264  0.13713758510986918  1.0000
  H   H13       1.0  0.25186778558853024  0.4058343346241031  0.46902268832356253  1.0000
  H   H14       1.0  0.13490153887785544  0.4935522446895534  0.4685835543343232  1.0000
  H   H15       1.0  0.8092320828207136  0.1290828899676413  0.8102949118926264  1.0000
  H   H16       1.0  0.8971012183412557  0.04123633524162071  0.6794342516899621  1.0000
  H   H17       1.0  0.576790138168832  0.1667090831673903  0.7850653150762741  1.0000
  H   H18       1.0  0.1995050831675798  0.3621069257384165  0.8057813243980763  1.0000
  H   H19       1.0  0.10753711563721416  0.4514658181158852  0.6770929706578388  1.0000
  H   H20       1.0  0.4313586775423062  0.3301074544919799  0.7848434365975835  1.0000
  H   H21       1.0  0.19937355075830257  0.36525506993119444  0.19494315800992015  1.0000
  H   H22       1.0  0.10823149305538494  0.45590114456685177  0.322599220878061  1.0000
  H   H23       1.0  0.4293587560015125  0.3299780882988659  0.21556146392597247  1.0000
  H   H24       1.0  0.811058529138812  0.12702650653478295  0.19222528038136497  1.0000
  H   H25       1.0  0.9020553981626238  0.036215339614024296  0.31991682484604683  1.0000
  H   H26       1.0  0.5744200574072736  0.1665973232950506  0.21582674959734058  1.0000
  H   H27       1.0  0.8074060468476033  0.5500514164095094  0.4405100065577373  1.0000
  H   H28       1.0  0.7230968242048876  0.7893775187791618  0.7258014766126311  1.0000
  H   H29       1.0  0.6401126031772935  0.8743069581759073  0.8598966477155658  1.0000
  H   H30       1.0  0.7686376457914862  0.9370314733329083  0.0001384201461931004  1.0000
  H   H31       1.0  0.8658619860294012  0.5041025149919776  0.5270420012912781  1.0000
  H   H32       1.0  0.729158920230809  0.7835172264486375  0.26826913702553423  1.0000
  H   H33       1.0  0.6420567650001704  0.8730490480847022  0.13765944830628746  1.0000
  H   H34       1.0  0.26701117400374136  0.7107575819180454  0.7311326164749944  1.0000
  H   H35       1.0  0.35218723251419704  0.624869561749435  0.8637245917629744  1.0000
  H   H36       1.0  0.2327333635702616  0.5570724658119631  0.9995875038429534  1.0000
  H   H37       1.0  0.2650793178391383  0.7162307771188028  0.26475442098165314  1.0000
  H   H38       1.0  0.351786448350289  0.626830328245525  0.13376833111746586  1.0000
  H   H39       1.0  0.24544651158363712  0.8968389606924206  0.5508357641189081  1.0000
  H   H40       1.0  0.13667276402193101  0.9889696208187644  0.535362180542407  1.0000
  H   H41       1.0  0.7996771950465063  0.6320788587914307  0.8030916024397572  1.0000
  H   H42       1.0  0.8918132580511797  0.5416660550570569  0.6756862664649079  1.0000
  H   H43       1.0  0.5697332517220848  0.665116231260612  0.7828879119347152  1.0000
  H   H44       1.0  0.18690963137105146  0.872075339449083  0.8093402667081409  1.0000
  H   H45       1.0  0.09610112340538278  0.9623660250061264  0.6813995261584297  1.0000
  H   H46       1.0  0.4254811474561962  0.8288299745378326  0.782860763963001  1.0000
  H   H47       1.0  0.1949218309842281  0.8677238717249124  0.18991668413018203  1.0000
  H   H48       1.0  0.10651045096221876  0.9557211115916932  0.3203404675569247  1.0000
  H   H49       1.0  0.4266423320596148  0.8313508573650523  0.21371246025945825  1.0000
  H   H50       1.0  0.8096522281545618  0.6292247721965156  0.1893343031514406  1.0000
  H   H51       1.0  0.9034551230321668  0.5372872495263793  0.3161186360202066  1.0000
  H   H52       1.0  0.5714629449702786  0.6675429777744385  0.21387887628859664  1.0000
  C   C1        1.0  0.8750142900017297  0.3501218861841195  0.6194321150484898  1.0000
  C   C2        1.0  0.8194771021569451  0.40487518348560775  0.6960379712145653  1.0000
  C   C3        1.0  0.7523575089370598  0.35632504901728623  0.7503550226101441  1.0000
  C   C4        1.0  0.7038915872420048  0.4062259055563758  0.823393230005856  1.0000
  C   C5        1.0  0.8766056761870757  0.3513732576336183  0.3772794294600034  1.0000
  C   C6        1.0  0.8168153125218185  0.4080146652508532  0.3022883834358226  1.0000
  C   C7        1.0  0.7408991964066943  0.3636146171808577  0.25223436632507673  1.0000
  C   C8        1.0  0.6939426733321528  0.412505135903814  0.17838296238009835  1.0000
  C   C9        1.0  0.12557192581049753  0.14756697669173494  0.620002926345329  1.0000
  C   C10       1.0  0.18247976854581086  0.09209985773686918  0.6958689798460258  1.0000
  C   C11       1.0  0.2583657969797671  0.13646346271569607  0.746247186502423  1.0000
  C   C12       1.0  0.30705023590529384  0.0864414509270972  0.8191021794292157  1.0000
  C   C13       1.0  0.1251046961539402  0.14485021494697753  0.3787150034410019  1.0000
  C   C14       1.0  0.1845615017446036  0.08920890170841032  0.3033193661088022  1.0000
  C   C15       1.0  0.256724745702364  0.13597379352064107  0.252067580961132  1.0000
  C   C16       1.0  0.3032413874121503  0.08801092518695701  0.17761237836044336  1.0000
  C   C17       1.0  0.7189374966285771  0.007196926572454701  0.8438351864921858  1.0000
  C   C18       1.0  0.7905273035832537  0.05444130358462471  0.7919624964101575  1.0000
  C   C19       1.0  0.8401497532820488  0.0053919398296571  0.7189581106756509  1.0000
  C   C20       1.0  0.6693393949182251  0.057629669104862606  0.9231181862464058  1.0000
  C   C21       1.0  0.7055466510745916  0.0106017380867769  0.00036587398997770014  1.0000
  C   C22       1.0  0.5877992553734047  0.1532954787437077  0.922013982842856  1.0000
  C   C23       1.0  0.5447817109912877  0.20058947263800775  0.0004423456919511002  1.0000
  C   C24       1.0  0.5441408924862401  0.202962684638301  0.8446951370213827  1.0000
  C   C25       1.0  0.28249552750311585  0.4875031144014913  0.843499407688242  1.0000
  C   C26       1.0  0.21432128469605521  0.4386872992954523  0.7896494727979901  1.0000
  C   C27       1.0  0.16253184161921305  0.4885421134438418  0.7175639936576775  1.0000
  C   C28       1.0  0.3334566815453854  0.43718380132024504  0.9225139928231914  1.0000
  C   C29       1.0  0.29695153115398654  0.4841745614134042  0.9998488048795483  1.0000
  C   C30       1.0  0.4163530750398509  0.342203685843714  0.9216733594599662  1.0000
  C   C31       1.0  0.45889078889216983  0.29509261875880816  0.0002726425558492002  1.0000
  C   C32       1.0  0.46224780622312545  0.2932864856127538  0.8445631466896518  1.0000
  C   C33       1.0  0.2829855058968961  0.4894628732798623  0.15597845621291387  1.0000
  C   C34       1.0  0.21515999481242434  0.4417106811223307  0.21059162508162646  1.0000
  C   C35       1.0  0.16425111803787476  0.4925350207547653  0.28265008276631687  1.0000
  C   C36       1.0  0.3335245705085016  0.43781126222494055  0.07735388031345283  1.0000
  C   C37       1.0  0.4157340895294084  0.34241105956861867  0.07870676076099413  1.0000
  C   C38       1.0  0.4608427390356055  0.29324199646171684  0.15587569595057005  1.0000
  C   C39       1.0  0.7196064542856817  0.006440649022849199  0.15655491871525845  1.0000
  C   C40       1.0  0.7919276904589553  0.052193730427191616  0.20927771766842085  1.0000
  C   C41       1.0  0.8427768237731713  0.0013119321616699  0.281283067606097  1.0000
  C   C42       1.0  0.6693766878430837  0.05772493123107131  0.07775043539616892  1.0000
  C   C43       1.0  0.5875697294853809  0.15329187724738352  0.07891579235253943  1.0000
  C   C44       1.0  0.5428383055721611  0.2029135948432739  0.1560450388568881  1.0000
  C   C45       1.0  0.876150738570594  0.8537347170723781  0.6201033614913245  1.0000
  C   C46       1.0  0.816403431333093  0.9094092021694495  0.69528458382581  1.0000
  C   C47       1.0  0.7423672792998705  0.8633120362136636  0.7454256987169858  1.0000
  C   C48       1.0  0.6961251140062078  0.9109199126654062  0.8200928539416029  1.0000
  C   C49       1.0  0.8763119523192558  0.8481761077630381  0.3787363477920565  1.0000
  C   C50       1.0  0.8201453222342041  0.9040389052977819  0.30277474290252837  1.0000
  C   C51       1.0  0.7470425823863212  0.858549863820052  0.25076491474425927  1.0000
  C   C52       1.0  0.6985843191097132  0.9087406186656111  0.17794386083908625  1.0000
  C   C53       1.0  0.12202554309077845  0.6425759661036139  0.6210052199051292  1.0000
  C   C54       1.0  0.18156867804591317  0.5868363885001884  0.6962568284054458  1.0000
  C   C55       1.0  0.2516766925870969  0.6348164444658836  0.7485332481478582  1.0000
  C   C56       1.0  0.29926643689775295  0.5865822060131833  0.8225025017670264  1.0000
  C   C57       1.0  0.12626435168041902  0.6474087709138914  0.37885220863544344  1.0000
  C   C58       1.0  0.18228287539021445  0.5918557546243833  0.3025158245783929  1.0000
  C   C59       1.0  0.25058931233508736  0.6395987625676939  0.24850851036365645  1.0000
  C   C60       1.0  0.2989903595476662  0.5893830027077486  0.1755708547885746  1.0000
  C   C61       1.0  0.7184387171882493  0.5066776457248211  0.8426240401252659  1.0000
  C   C62       1.0  0.7853063503485629  0.5550622240690899  0.7877875789268176  1.0000
  C   C63       1.0  0.8365817690717635  0.5044716729546437  0.7157771695051738  1.0000
  C   C64       1.0  0.6674317325924548  0.5583569041995632  0.9211478566724838  1.0000
  C   C65       1.0  0.7039198246469103  0.5121689057037813  0.998760120341665  1.0000
  C   C66       1.0  0.5849720870315737  0.6536432569232815  0.9198546686661049  1.0000
  C   C67       1.0  0.5422504556143936  0.701369576918289  0.9983346515088345  1.0000
  C   C68       1.0  0.5392067501152483  0.7022751458708997  0.8426388705379895  1.0000
  C   C69       1.0  0.28319095268928873  0.9903077763306458  0.8421253660162268  1.0000
  C   C70       1.0  0.20825128400040435  0.9456106045493728  0.7909538969938199  1.0000
  C   C71       1.0  0.15743927681486272  0.9962263195174759  0.7188861648580699  1.0000
  C   C72       1.0  0.3331481047694568  0.9391571698590087  0.9210449481720819  1.0000
  C   C73       1.0  0.2971113828512557  0.9866742130525809  0.9982918437460884  1.0000
  C   C74       1.0  0.4139508769089203  0.8431023947416139  0.9198262682847516  1.0000
  C   C75       1.0  0.4565895420264925  0.7960251907466827  0.9983461431421505  1.0000
  C   C76       1.0  0.4575982561121138  0.7928489221862449  0.8426446630363601  1.0000
  C   C77       1.0  0.28272364599649796  0.9905952934902943  0.15487840538997236  1.0000
  C   C78       1.0  0.21241278543735842  0.9429931712130966  0.20760591381966986  1.0000
  C   C79       1.0  0.16242031285847963  0.9923061853553818  0.2804556494955648  1.0000
  C   C80       1.0  0.3327192558031842  0.9397441997027797  0.07573273934516322  1.0000
  C   C81       1.0  0.41400196113616533  0.8438152527891561  0.07680977376789143  1.0000
  C   C82       1.0  0.45838797952897903  0.794528233709798  0.1540956114900283  1.0000
  C   C83       1.0  0.7169317686713512  0.5088692666980139  0.15526086049403892  1.0000
  C   C84       1.0  0.7901177223205098  0.5547676219433982  0.2070596926230409  1.0000
  C   C85       1.0  0.841628130854858  0.5037840775976363  0.27882572405857087  1.0000
  C   C86       1.0  0.6671462791703392  0.5593129729249642  0.07598113051766123  1.0000
  C   C87       1.0  0.5849328840080191  0.6545517639040455  0.0769579223500543  1.0000
  C   C88       1.0  0.5400061034376336  0.704001640779893  0.15413668273803446  1.0000
  O   O1        1.0  0.8622382904782813  0.2582335197112258  0.605289276251604  1.0000
  O   O2        1.0  0.8241933732777228  0.06877289680087273  0.4972224298642376  1.0000
  O   O3        1.0  0.9352910164662308  0.3985250432725636  0.5714460244775099  1.0000
  O   O4        1.0  0.8272368260226629  0.28642120965842827  0.41488308112921884  1.0000
  O   O5        1.0  0.9749697439702916  0.37338040484066687  0.3974086077303341  1.0000
  O   O6        1.0  0.13810867642963134  0.2395416292246111  0.6066218408675541  1.0000
  O   O7        1.0  0.06494209494562853  0.09911625963469113  0.5722589707356748  1.0000
  O   O8        1.0  0.17370222688141723  0.21046014197469282  0.4166502712380194  1.0000
  O   O9        1.0  0.026452107793645006  0.12317938362646431  0.3982339880174025  1.0000
  O   O10       1.0  0.1770090864035723  0.4278466355349266  0.49760713183650324  1.0000
  O   O11       1.0  0.8256804774583418  0.7903133801512043  0.5811093542443972  1.0000
  O   O12       1.0  0.8230310695186986  0.5693250136040504  0.49822951164363644  1.0000
  O   O13       1.0  0.9764174971680009  0.8729220534969712  0.6018466115604755  1.0000
  O   O14       1.0  0.8636835422284151  0.7561705161299273  0.39189418628028977  1.0000
  O   O15       1.0  0.9366086109515666  0.8963611936170822  0.4270870865219579  1.0000
  O   O16       1.0  0.1724817025773007  0.7061919944100555  0.5823734175641423  1.0000
  O   O17       1.0  0.022081848726827506  0.6230100212568034  0.6020909911193117  1.0000
  O   O18       1.0  0.13897799785514306  0.7394419575308364  0.3921210506463809  1.0000
  O   O19       1.0  0.06619352429965629  0.599383157886237  0.4271418641068082  1.0000
  O   O20       1.0  0.18258223938344303  0.9219855251921844  0.5107446067586994  1.0000
