data_image0
_chemical_formula_structural       Zn6H48C78N36O12
_chemical_formula_sum              "Zn6 H48 C78 N36 O12"
_cell_length_a       11.200844813976813
_cell_length_b       16.074935529893576
_cell_length_c       15.698638108198482
_cell_angle_alpha    115.02467443686899
_cell_angle_beta     102.71754012067943
_cell_angle_gamma    102.63368237710083

_space_group_name_H-M_alt    "P 1"
_space_group_IT_number       1

loop_
  _space_group_symop_operation_xyz
  'x, y, z'

loop_
  _atom_site_type_symbol
  _atom_site_label
  _atom_site_symmetry_multiplicity
  _atom_site_fract_x
  _atom_site_fract_y
  _atom_site_fract_z
  _atom_site_occupancy
  Zn  Zn1       1.0  0.7574594293613546  0.6095548650193976  0.42727543292767234  1.0000
  Zn  Zn2       1.0  0.2425400216930456  0.39043902208809556  0.5727241656063738  1.0000
  Zn  Zn3       1.0  0.5935212551078023  0.20711561399647843  0.11243391555633046  1.0000
  Zn  Zn4       1.0  0.40648131084859057  0.7928832709252516  0.8875606163697823  1.0000
  Zn  Zn5       1.0  0.1941839566708836  0.07895243752838607  0.7026336055504387  1.0000
  Zn  Zn6       1.0  0.8058052286456814  0.9210487925364956  0.29736948747731157  1.0000
  H   H1        1.0  0.23504445628293522  0.34038268791018567  0.21331360081144618  1.0000
  H   H2        1.0  0.7649439274124177  0.6595951450132203  0.7866826529401364  1.0000
  H   H3        1.0  0.06989698709772083  0.399845767363331  0.27665212061504  1.0000
  H   H4        1.0  0.9300893379748063  0.600131409508826  0.7233480092994852  1.0000
  H   H5        1.0  0.3803687594926616  0.6462929177496406  0.5406036475482525  1.0000
  H   H6        1.0  0.6196260605281197  0.3536992971572914  0.45938372362871865  1.0000
  H   H7        1.0  0.5423212961171303  0.5861016936311786  0.47911971190363545  1.0000
  H   H8        1.0  0.4576721824481282  0.4138897277039391  0.5208639383028173  1.0000
  H   H9        1.0  0.9172959554415671  0.47470875660341944  0.32976820155569436  1.0000
  H   H10       1.0  0.08269708324205276  0.5252851173984823  0.6702304384168015  1.0000
  H   H11       1.0  0.03433275672211521  0.7345814010410548  0.6051069392162631  1.0000
  H   H12       1.0  0.9656787222042456  0.26541895635316587  0.39488890364751944  1.0000
  H   H13       1.0  0.3002308173820936  0.07535250855976729  0.04182069180172479  1.0000
  H   H14       1.0  0.6997766103389151  0.9246566934958619  0.9581814791990411  1.0000
  H   H15       1.0  0.1225100373720949  0.08314124768715907  0.10895902356175918  1.0000
  H   H16       1.0  0.8774946335068847  0.9168620737983274  0.8910396109039382  1.0000
  H   H17       1.0  0.021655759018308577  0.2606191044897058  0.9808651548970744  1.0000
  H   H18       1.0  0.9783427801972238  0.7393827733720995  0.019133868454851113  1.0000
  H   H19       1.0  0.19430456121239106  0.24705677388504194  0.9082553660247612  1.0000
  H   H20       1.0  0.8057047117667011  0.7529561891954156  0.0917537685414443  1.0000
  H   H21       1.0  0.8342706112997007  0.24989883012771935  0.025676008936208892  1.0000
  H   H22       1.0  0.16572726731326518  0.7500957287742407  0.9743204546972419  1.0000
  H   H23       1.0  0.7709771633001524  0.12881620358126608  0.2101957389359299  1.0000
  H   H24       1.0  0.22903393310174644  0.8711908882901795  0.789810543782032  1.0000
  H   H25       1.0  0.752691457928755  0.9288250473972255  0.5106856211645052  1.0000
  H   H26       1.0  0.24731669352329536  0.0711851554471892  0.489331734975643  1.0000
  H   H27       1.0  0.5856480793014711  0.981267539629506  0.5753802632803228  1.0000
  H   H28       1.0  0.414357616803791  0.018743356369292  0.4246351100336695  1.0000
  H   H29       1.0  0.2932458061508428  0.6971158427971531  0.3539205248558588  1.0000
  H   H30       1.0  0.7067547890582945  0.30290217507106826  0.6460862744579927  1.0000
  H   H31       1.0  0.4600838012083343  0.6464898855637456  0.28807217326136947  1.0000
  H   H32       1.0  0.5399200009647842  0.3535188425532424  0.711943912122031  1.0000
  H   H33       1.0  0.43640468078560707  0.013446523846809597  0.6595685423136288  1.0000
  H   H34       1.0  0.5635932570243296  0.9865656831476668  0.34043858750055733  1.0000
  H   H35       1.0  0.03122433006773658  0.872918984747372  0.49571289036835253  1.0000
  H   H36       1.0  0.9687765782039011  0.1270858875440339  0.5042909384650257  1.0000
  H   H37       1.0  0.8621525494911777  0.1009766938363725  0.8323733574551396  1.0000
  H   H38       1.0  0.1378497426012117  0.8990161302748375  0.16760773665357223  1.0000
  H   H39       1.0  0.6516620895122786  0.04518165706882369  0.85446690970997  1.0000
  H   H40       1.0  0.34833979454380426  0.9548221252497127  0.1455168518115428  1.0000
  H   H41       1.0  0.5819503328651836  0.749026104749639  0.6325125094213037  1.0000
  H   H42       1.0  0.41804370474043406  0.250967829204825  0.3674894900180662  1.0000
  H   H43       1.0  0.23958862958671998  0.6966578746716933  0.593330438728678  1.0000
  H   H44       1.0  0.7604116249256734  0.3033321873312502  0.4066587400166099  1.0000
  H   H45       1.0  0.960734244852283  0.09603660203327988  0.1731609416989315  1.0000
  H   H46       1.0  0.03927548141550831  0.9039675553611345  0.826843895004444  1.0000
  H   H47       1.0  0.1449308546906066  0.7777586842348609  0.38909088559761773  1.0000
  H   H48       1.0  0.8550779763121242  0.22225347552993918  0.6109140204295329  1.0000
  C   C1        1.0  0.26573314331007236  0.4072333220152302  0.2850790258672902  1.0000
  C   C2        1.0  0.7342623046755109  0.5927459680201536  0.7149176204413336  1.0000
  C   C3        1.0  0.1735511295570191  0.4410339358804762  0.3210814526174559  1.0000
  C   C4        1.0  0.826438008922274  0.5589416650814059  0.6789120569802164  1.0000
  C   C5        1.0  0.21264493337833557  0.5281720397825181  0.4134469336568429  1.0000
  C   C6        1.0  0.7873414280085455  0.47181152495710404  0.5865444378721704  1.0000
  C   C7        1.0  0.34696548321079496  0.5784727981793836  0.4691450241272861  1.0000
  C   C8        1.0  0.6530229202251049  0.42151141099541417  0.530841826732896  1.0000
  C   C9        1.0  0.4394230761180539  0.5445833666246145  0.4334301086800637  1.0000
  C   C10       1.0  0.5605684266934005  0.45540745673958566  0.5665606402188316  1.0000
  C   C11       1.0  0.4002575187029081  0.45922429587407265  0.3404978701753194  1.0000
  C   C12       1.0  0.5997339754254228  0.5407606525366617  0.6594897530005994  1.0000
  C   C13       1.0  0.49527786550646624  0.42316512201544043  0.30023133355122417  1.0000
  C   C14       1.0  0.5047172562644705  0.576823556316377  0.6997615935471587  1.0000
  C   C15       1.0  0.11671255352799648  0.5671425728965714  0.44807037683288103  1.0000
  C   C16       1.0  0.8832820157663265  0.43284473112526456  0.551926983305421  1.0000
  C   C17       1.0  0.982841650643266  0.5369298413432375  0.4016984249522935  1.0000
  C   C18       1.0  0.017158617021273376  0.46306397794007376  0.598297443483709  1.0000
  C   C19       1.0  0.03813034276680575  0.6706541153723008  0.5445212339459786  1.0000
  C   C20       1.0  0.9618740718693317  0.3293447849099564  0.4554742163607699  1.0000
  C   C21       1.0  0.2378038868253043  0.11468660070555362  0.027053172498845913  1.0000
  C   C22       1.0  0.7622012381348215  0.885319653384748  0.9729467710440644  1.0000
  C   C23       1.0  0.1373303198612845  0.11989254161706238  0.06553556684079348  1.0000
  C   C24       1.0  0.8626745985774135  0.8801093261181946  0.9344631260608763  1.0000
  C   C25       1.0  0.056464587975369816  0.1713553022323921  0.048842922315543526  1.0000
  C   C26       1.0  0.9435328286657665  0.8286421874021528  0.9511547134577684  1.0000
  C   C27       1.0  0.0804647277333714  0.21801333482674318  0.9927095371561164  1.0000
  C   C28       1.0  0.9195364115241774  0.7819900720983666  0.007293705607331273  1.0000
  C   C29       1.0  0.1787517002223922  0.21124174450065417  0.9524295267714464  1.0000
  C   C30       1.0  0.8212514445149068  0.7887660292918142  0.04757395149617597  1.0000
  C   C31       1.0  0.25854355216576147  0.1593165496827353  0.9692121373453801  1.0000
  C   C32       1.0  0.7414620931707248  0.8406926834766395  0.030791693298361678  1.0000
  C   C33       1.0  0.3615122355527448  0.1535278707165872  0.9259734775796105  1.0000
  C   C34       1.0  0.6384902693698892  0.8464805883586521  0.07402764723068606  1.0000
  C   C35       1.0  0.9492508498905678  0.17675635552569696  0.0868389889085464  1.0000
  C   C36       1.0  0.0507476972156482  0.8232396589987232  0.9131575532262985  1.0000
  C   C37       1.0  0.8524134314437505  0.21542890930567177  0.0710052579922831  1.0000
  C   C38       1.0  0.14758854888842185  0.7845685780739374  0.9289924179619434  1.0000
  C   C39       1.0  0.8150830744943961  0.15354657027232574  0.16623289169161382  1.0000
  C   C40       1.0  0.18492401516210308  0.8464597804909528  0.833772481773245  1.0000
  C   C41       1.0  0.6513004038643615  0.8789238326599076  0.47477911462265615  1.0000
  C   C42       1.0  0.3487058447175145  0.12108843764887212  0.5252318256514174  1.0000
  C   C43       1.0  0.5569975178537944  0.9078714851627648  0.5119394729100151  1.0000
  C   C44       1.0  0.4430118545681195  0.09214154761409078  0.48807352869160064  1.0000
  C   C45       1.0  0.4256886325280502  0.8443627163252996  0.4687358374253278  1.0000
  C   C46       1.0  0.5743197165073823  0.15565610822032747  0.5312756414205921  1.0000
  C   C47       1.0  0.39301483920692704  0.7496682004956908  0.3878362340502902  1.0000
  C   C48       1.0  0.6069906998434078  0.2503484542959029  0.6121758199276712  1.0000
  C   C49       1.0  0.48758983860942356  0.7201866147278082  0.35084259357176245  1.0000
  C   C50       1.0  0.5124109468022482  0.2798256675797504  0.6491688140899257  1.0000
  C   C51       1.0  0.6176826912547002  0.784785276709151  0.39313551119035867  1.0000
  C   C52       1.0  0.3823197905057256  0.2152205517790051  0.6068810616961642  1.0000
  C   C53       1.0  0.32943491683985826  0.879033262665814  0.5085854008658117  1.0000
  C   C54       1.0  0.6705671879371522  0.12098029127935209  0.491415910140212  1.0000
  C   C55       1.0  0.3470028485265786  0.959795642988638  0.5977110854880577  1.0000
  C   C56       1.0  0.6529964673081566  0.04021363514548428  0.40229500912364097  1.0000
  C   C57       1.0  0.1360118346656733  0.8908230167628444  0.5155274611229146  1.0000
  C   C58       1.0  0.863988661355549  0.1091848211093449  0.4844794733680189  1.0000
  C   C59       1.0  0.7172526813914291  0.755449081828843  0.3524884614459651  1.0000
  C   C60       1.0  0.2827470808886829  0.24455888194784584  0.6475254256725193  1.0000
  C   C61       1.0  0.8002720641063448  0.023708485232468504  0.7890634356817187  1.0000
  C   C62       1.0  0.1997270720457536  0.976285181169757  0.21092391724019424  1.0000
  C   C63       1.0  0.6822089376478999  0.9923627807708754  0.8013425845347514  1.0000
  C   C64       1.0  0.3177873927332016  0.0076367085038668995  0.198644905274449  1.0000
  C   C65       1.0  0.6027542768101526  0.8929746619496226  0.7448643334809617  1.0000
  C   C66       1.0  0.39724127010841664  0.10702491838141978  0.2551281754380809  1.0000
  C   C67       1.0  0.643128695818497  0.8261735325964492  0.6772056017511972  1.0000
  C   C68       1.0  0.3568686424226328  0.17382178128467266  0.3227923754603452  1.0000
  C   C69       1.0  0.7634133289278823  0.8563854288243177  0.6673101992307481  1.0000
  C   C70       1.0  0.23658774771102745  0.14360407567258449  0.3326884225367762  1.0000
  C   C71       1.0  0.8433568216637044  0.9561438471923153  0.724133833201236  1.0000
  C   C72       1.0  0.1566419974667141  0.043844861860542  0.2758609306584106  1.0000
  C   C73       1.0  0.9796023081075305  0.9907570715522807  0.7249930207882116  1.0000
  C   C74       1.0  0.020399201569695404  0.0092374716064541  0.27500270158289913  1.0000
  C   C75       1.0  0.8019791835986823  0.7844920222543124  0.5909414990613868  1.0000
  C   C76       1.0  0.1980214765757182  0.21549245519683063  0.4090606666084611  1.0000
  C   C77       1.0  0.48003602875193263  0.8541575935063719  0.7602225094725412  1.0000
  C   C78       1.0  0.5199683493149366  0.14584502920806128  0.23977769700721296  1.0000
  N   N1        1.0  0.6264262611123002  0.4725187337447493  0.33419496484120265  1.0000
  N   N2        1.0  0.3735646271414197  0.527478661471747  0.6657972008292462  1.0000
  N   N3        1.0  0.6763530750631047  0.41292026907116497  0.2753486262765534  1.0000
  N   N4        1.0  0.3236419480574355  0.5870800778551127  0.7246460407264763  1.0000
  N   N5        1.0  0.5780611902043589  0.3311756456578151  0.2089230281487743  1.0000
  N   N6        1.0  0.421938875152854  0.6688217798970084  0.791071151401219  1.0000
  N   N7        1.0  0.4642369290607178  0.33384567445589386  0.22137541798652902  1.0000
  N   N8        1.0  0.5357601484685545  0.6661473358950827  0.7786158110983195  1.0000
  N   N9        1.0  0.9357321272667464  0.6019659629417332  0.46223031174874757  1.0000
  N   N10       1.0  0.06426974151781194  0.39802932545232733  0.5377664166319106  1.0000
  N   N11       1.0  0.14813134524192148  0.6518247839210999  0.5386007481192719  1.0000
  N   N12       1.0  0.8518743524452078  0.34816900013130686  0.46139336391730973  1.0000
  N   N13       1.0  0.4875298236378285  0.17102703001022224  0.9737841145366347  1.0000
  N   N14       1.0  0.5124743189741068  0.8289791757435763  0.026213114045305075  1.0000
  N   N15       1.0  0.5503221664566453  0.16344044910595557  0.9075639909840305  1.0000
  N   N16       1.0  0.44967812620989644  0.8365693670465219  0.09243164546835206  1.0000
  N   N17       1.0  0.46669450323157957  0.14156143309724456  0.8225871751235729  1.0000
  N   N18       1.0  0.5333035285048099  0.8584513332754965  0.17741064860574335  1.0000
  N   N19       1.0  0.34746969376396925  0.13437675764400578  0.8314045690911982  1.0000
  N   N20       1.0  0.6525277357743916  0.8656345995705478  0.16859575416032876  1.0000
  N   N21       1.0  0.7699874476674113  0.20032973502960516  0.12075775478491121  1.0000
  N   N22       1.0  0.23001537900084654  0.7996714534222773  0.8792435252678885  1.0000
  N   N23       1.0  0.922168803632488  0.1387403488855981  0.14772495579153858  1.0000
  N   N24       1.0  0.07783564072960306  0.8612623202930936  0.8522778287118202  1.0000
  N   N25       1.0  0.7506165639311104  0.6771163453898055  0.34259643520320543  1.0000
  N   N26       1.0  0.2493817950672792  0.3228886606777123  0.6574147168888942  1.0000
  N   N27       1.0  0.8451557466592092  0.6771435048960796  0.30119928228151577  1.0000
  N   N28       1.0  0.15483399560299205  0.3228569818056997  0.6988029416740461  1.0000
  N   N29       1.0  0.8687624330317122  0.7518072716859834  0.28624176544381913  1.0000
  N   N30       1.0  0.13122276553492174  0.24818948322248952  0.7137550176519126  1.0000
  N   N31       1.0  0.7906349511924732  0.8029870217165395  0.31838707900344326  1.0000
  N   N32       1.0  0.2093542506978991  0.19701421996440865  0.6816166585302028  1.0000
  N   N33       1.0  0.22688271767341914  0.9662811367767359  0.6006994860017798  1.0000
  N   N34       1.0  0.7731149186412838  0.0337244964932211  0.39930609010348667  1.0000
  N   N35       1.0  0.19445706235064353  0.8369333133934019  0.45876426370005413  1.0000
  N   N36       1.0  0.805545311028908  0.1630766807445241  0.5412413142155827  1.0000
  O   O1        1.0  0.8968663154188478  0.8145911876936507  0.5687576535712111  1.0000
  O   O2        1.0  0.10314699270163172  0.18539269851006426  0.4312525127771067  1.0000
  O   O3        1.0  0.7287673031025008  0.6926078850967271  0.5489729377062176  1.0000
  O   O4        1.0  0.2712359736877161  0.3073781330337794  0.4510340918810556  1.0000
  O   O5        1.0  0.003998920723354604  0.0418032296127535  0.6821735495351433  1.0000
  O   O6        1.0  0.9959915710613173  0.9581854045097342  0.3178167593587132  1.0000
  O   O7        1.0  0.06705680914931378  0.9748122964813176  0.7752759395519463  1.0000
  O   O8        1.0  0.9329510936956567  0.025197732122102  0.2247317489996732  1.0000
  O   O9        1.0  0.4872471661569193  0.891561991949608  0.8532374169535614  1.0000
  O   O10       1.0  0.5127605501621063  0.10843991625053206  0.1467636202779019  1.0000
  O   O11       1.0  0.38227021649034026  0.7866037122456289  0.6865977756352422  1.0000
  O   O12       1.0  0.6177316654463637  0.21339533342880657  0.3134056424361304  1.0000
