data_image0
_chemical_formula_structural       Cu2H18C18N10Cl2
_chemical_formula_sum              "Cu2 H18 C18 N10 Cl2"
_cell_length_a       7.229329830525929
_cell_length_b       7.536359798191791
_cell_length_c       9.93528391249222
_cell_angle_alpha    81.19425045572348
_cell_angle_beta     76.93490084274306
_cell_angle_gamma    84.62909563905289

_space_group_name_H-M_alt    "P 1"
_space_group_IT_number       1

loop_
  _space_group_symop_operation_xyz
  'x, y, z'

loop_
  _atom_site_type_symbol
  _atom_site_label
  _atom_site_symmetry_multiplicity
  _atom_site_fract_x
  _atom_site_fract_y
  _atom_site_fract_z
  _atom_site_occupancy
  Cu  Cu1       1.0  0.16311781086145774  0.8319767209374833  0.3855819427716085  1.0000
  Cu  Cu2       1.0  0.8368797257393653  0.16802215598135464  0.6144182467806447  1.0000
  H   H1        1.0  0.5416864055125288  0.9802488096556061  0.3070500795357277  1.0000
  H   H2        1.0  0.4583140563282769  0.019748717780657902  0.6929497923780661  1.0000
  H   H3        1.0  0.7122232298866537  0.19947193633255017  0.11474865522806255  1.0000
  H   H4        1.0  0.28777572740310114  0.800526929252783  0.8852502954327267  1.0000
  H   H5        1.0  0.5430965914072061  0.3550579917008534  0.9332280021719729  1.0000
  H   H6        1.0  0.4569021938389782  0.6449436011449308  0.06677467228202262  1.0000
  H   H7        1.0  0.05727694916678419  0.048464426993717814  0.14142890814481046  1.0000
  H   H8        1.0  0.9427233422501974  0.9515358000920033  0.8585716710313849  1.0000
  H   H9        1.0  0.11988000497455431  0.7650576976268085  0.694806232494706  1.0000
  H   H10       1.0  0.880118781891376  0.23494386760798142  0.30519342542848454  1.0000
  H   H11       1.0  0.9239975563587849  0.6684299180800508  0.6591819457497794  1.0000
  H   H12       1.0  0.07600273559810938  0.33157029980200303  0.3408176279161453  1.0000
  H   H13       1.0  0.16026728685518776  0.49361179629838864  0.4834573557693177  1.0000
  H   H14       1.0  0.839734340308766  0.5063897646767188  0.5165418353914719  1.0000
  H   H15       1.0  0.4283509881310793  0.7732567467014138  0.5199929451219916  1.0000
  H   H16       1.0  0.5716477143328051  0.2267461545526075  0.48000555816698665  1.0000
  H   H17       1.0  0.469087747939895  0.6270148651570581  0.38083333222819965  1.0000
  H   H18       1.0  0.5309109539840762  0.3729880453006302  0.6191661765710494  1.0000
  C   C1        1.0  0.47130474094040414  0.049510670147199703  0.22595945838153855  1.0000
  C   C2        1.0  0.5286970561074611  0.9504882003821181  0.7740400310271273  1.0000
  C   C3        1.0  0.5655829236160128  0.17244310204004884  0.11966254856416479  1.0000
  C   C4        1.0  0.43441887343184504  0.827555768489269  0.8803369408445008  1.0000
  C   C5        1.0  0.4719150205218412  0.2582948969194875  0.017616406308093198  1.0000
  C   C6        1.0  0.5280838502062155  0.7417053414997383  0.9823854117595661  1.0000
  C   C7        1.0  0.20092495460914964  0.08845042571972782  0.13301763076571405  1.0000
  C   C8        1.0  0.7990753373477448  0.9115497921623259  0.8669819429002174  1.0000
  C   C9        1.0  0.2842909121518389  0.21753362432408352  0.024911672221954007  1.0000
  C   C10       1.0  0.7157078747140843  0.7824679409107064  0.9750879857012366  1.0000
  C   C11       1.0  0.07515764772402633  0.645906368178224  0.6623355613204823  1.0000
  C   C12       1.0  0.9248427286349142  0.3540925136845985  0.3376651669796475  1.0000
  C   C13       1.0  0.1733288846293775  0.3108684238415266  0.9267962624700987  1.0000
  C   C14       1.0  0.8266699011567199  0.6891331598005908  0.07320540647362613  1.0000
  C   C15       1.0  0.19500957623271378  0.6107908722500214  0.5231960321541465  1.0000
  C   C16       1.0  0.8049921358731922  0.3892093435021878  0.47680330813057753  1.0000
  C   C17       1.0  0.36937108939793734  0.6845509887173337  0.46522853341586073  1.0000
  C   C18       1.0  0.6306276980079063  0.3154505673137963  0.5347701189970595  1.0000
  N   N1        1.0  0.29165445114769994  0.007325732886663202  0.2321859577315025  1.0000
  N   N2        1.0  0.7083459262910666  0.9926731305688323  0.7678127595480931  1.0000
  N   N3        1.0  0.0837454725571689  0.49444473460905414  0.7728067241020327  1.0000
  N   N4        1.0  0.9162533987108008  0.5055554946065044  0.22719408845536287  1.0000
  N   N5        1.0  0.2373237407036513  0.4430226812519678  0.8242345758782436  1.0000
  N   N6        1.0  0.7626751305643181  0.5569775479635907  0.17576623667915212  1.0000
  N   N7        1.0  0.986851318792148  0.28495562462190793  0.9348876981985371  1.0000
  N   N8        1.0  0.013147553015734578  0.7150445953899836  0.06511210884858798  1.0000
  N   N9        1.0  0.9317275318554509  0.4020652689550418  0.83659275115145  1.0000
  N   N10       1.0  0.06827125447055948  0.5979363054834156  0.16340791228201113  1.0000
  Cl  Cl1       1.0  0.8494662145982872  0.8859259828776589  0.4029986162939423  1.0000
  Cl  Cl2       1.0  0.15053282763342682  0.11407153748478291  0.5970004834907813  1.0000
