data_image0
_chemical_formula_structural       Cd4P2H40C42N2O24
_chemical_formula_sum              "Cd4 P2 H40 C42 N2 O24"
_cell_length_a       7.026521646984993
_cell_length_b       13.635041300382607
_cell_length_c       14.445262526226756
_cell_angle_alpha    117.3637579557523
_cell_angle_beta     97.24082605030772
_cell_angle_gamma    97.85286926856261

_space_group_name_H-M_alt    "P 1"
_space_group_IT_number       1

loop_
  _space_group_symop_operation_xyz
  'x, y, z'

loop_
  _atom_site_type_symbol
  _atom_site_label
  _atom_site_symmetry_multiplicity
  _atom_site_fract_x
  _atom_site_fract_y
  _atom_site_fract_z
  _atom_site_occupancy
  Cd  Cd1       1.0  0.6481144421454273  0.4105757258142262  0.01850826743002189  1.0000
  Cd  Cd2       1.0  0.35188543234284003  0.5894222916167708  0.9814932298049047  1.0000
  Cd  Cd3       1.0  0.09904020847364596  0.6022864379099391  0.21317859265542452  1.0000
  Cd  Cd4       1.0  0.9009560384967299  0.3977132985601913  0.7868220524258195  1.0000
  P   P1        1.0  0.1222058045625189  0.3575692441660578  0.9825640333074761  1.0000
  P   P2        1.0  0.8777923128994799  0.6424279439783406  0.017435605867802954  1.0000
  H   H1        1.0  0.014725401994084605  0.2991092596058138  0.13866961550385076  1.0000
  H   H2        1.0  0.9852730473110114  0.7008887752142741  0.861330416768496  1.0000
  H   H3        1.0  0.32062835445019283  0.29864189726583135  0.0877522236292734  1.0000
  H   H4        1.0  0.6793718636221157  0.701356986700489  0.9122475992977715  1.0000
  H   H5        1.0  0.21141499264107472  0.18083054146342192  0.9594901578884535  1.0000
  H   H6        1.0  0.7885848857608408  0.8191674825874531  0.04051065021149481  1.0000
  H   H7        1.0  0.8780553556280423  0.08359121842706682  0.9279602845900999  1.0000
  H   H8        1.0  0.1219484782212206  0.9164059266404792  0.07204245789558429  1.0000
  H   H9        1.0  0.7871573636781548  0.20834862543215857  0.9620131972774576  1.0000
  H   H10       1.0  0.21284119126499962  0.7916460185358435  0.03798534929923408  1.0000
  H   H11       1.0  0.226680395287076  0.21291111497519927  0.19048959634312726  1.0000
  H   H12       1.0  0.7733204708168485  0.7870894358629812  0.8095137693179809  1.0000
  H   H13       1.0  0.14625698051868602  0.084392163586827  0.06463719652000323  1.0000
  H   H14       1.0  0.8537481885302682  0.9156083814232335  0.935365740083974  1.0000
  H   H15       1.0  0.9006223360149193  0.19316022630011537  0.23342180101340668  1.0000
  H   H16       1.0  0.09937787423009328  0.806838644426449  0.7665794001836093  1.0000
  H   H17       1.0  0.9829265126407377  0.06507057730226513  0.20255478555375828  1.0000
  H   H18       1.0  0.017077988808374224  0.9349282677365309  0.7974480539910689  1.0000
  H   H19       1.0  0.5723654286710769  0.3080509183690837  0.2900697344690786  1.0000
  H   H20       1.0  0.42763290716867186  0.6919504940633276  0.7099331617688878  1.0000
  H   H21       1.0  0.6206074378789596  0.3324623321243507  0.475805084372084  1.0000
  H   H22       1.0  0.3793958567647309  0.6675407545915562  0.5241995472728436  1.0000
  H   H23       1.0  0.8556776762046854  0.6571324069947837  0.41782985185482624  1.0000
  H   H24       1.0  0.14431416609625108  0.34287073277543123  0.5821720188442188  1.0000
  H   H25       1.0  0.9050972567816516  0.6802886245931037  0.6025365782793276  1.0000
  H   H26       1.0  0.09489492127603683  0.31971536847267873  0.3974649963817997  1.0000
  H   H27       1.0  0.43819204215461827  0.2551136208822768  0.6282202054037855  1.0000
  H   H28       1.0  0.5618079646415808  0.744892044788216  0.37178258891455607  1.0000
  H   H29       1.0  0.373950892492438  0.017265259398129708  0.7458799287393207  1.0000
  H   H30       1.0  0.6260551984825894  0.9827302766976729  0.2541125530476905  1.0000
  H   H31       1.0  0.2699631415741521  0.10040571475139612  0.44421590210775025  1.0000
  H   H32       1.0  0.7300378803195785  0.8996025240455483  0.5557846258268743  1.0000
  H   H33       1.0  0.558229813055199  0.06638831279514791  0.9816635544798304  1.0000
  H   H34       1.0  0.44177049891422365  0.9336071604594451  0.018336850156515587  1.0000
  H   H35       1.0  0.6532251003105642  0.19342755549072166  0.10602547559782492  1.0000
  H   H36       1.0  0.3467744501618952  0.8065696285043418  0.8939742502700699  1.0000
  H   H37       1.0  0.21408123709367294  0.8606335125786091  0.5598808653630984  1.0000
  H   H38       1.0  0.7859276338324505  0.1393654391700068  0.440109829829872  1.0000
  H   H39       1.0  0.05233128104116255  0.8264239515649906  0.23469585255355005  1.0000
  H   H40       1.0  0.9476720605662905  0.1735792145894592  0.7653005094715726  1.0000
  C   C1        1.0  0.18442814996083712  0.25623496721669176  0.02579998483608391  1.0000
  C   C2        1.0  0.8155714005116224  0.7437622167783718  0.974199741031811  1.0000
  C   C3        1.0  0.8424064516617024  0.15617328583179813  0.9937173602742252  1.0000
  C   C4        1.0  0.15759771794430588  0.8438247125313156  0.006285086173541497  1.0000
  C   C5        1.0  0.10004906990830881  0.1561178809782859  0.12567942289339845  1.0000
  C   C6        1.0  0.8999529051902683  0.8438818322746259  0.8743222580932939  1.0000
  C   C7        1.0  0.9357653327197539  0.11815541910466011  0.16939529802379386  1.0000
  C   C8        1.0  0.06423773963253865  0.8818434367033561  0.830606765693432  1.0000
  C   C9        1.0  0.7108498137960239  0.4811080843523642  0.3433303548844935  1.0000
  C   C10       1.0  0.2891456560228037  0.5188933363787174  0.6566723679682342  1.0000
  C   C11       1.0  0.6966524633074872  0.46426873729538465  0.23316475112559956  1.0000
  C   C12       1.0  0.30334267466823656  0.5357318367600072  0.7668375786300603  1.0000
  C   C13       1.0  0.6427117955230913  0.3897392994831606  0.3594560242489707  1.0000
  C   C14       1.0  0.3572879694134771  0.6102621021800376  0.6405476478165898  1.0000
  C   C15       1.0  0.6695814300036175  0.4028699906150734  0.46178158705023997  1.0000
  C   C16       1.0  0.3304147035014111  0.597133123467387  0.5382219219966232  1.0000
  C   C17       1.0  0.801841561497305  0.5869422842572406  0.43129221273319746  1.0000
  C   C18       1.0  0.19815027688999007  0.413060848893096  0.5687103471008329  1.0000
  C   C19       1.0  0.829027194718499  0.599638830761208  0.5335438528603762  1.0000
  C   C20       1.0  0.170967501862421  0.4003642808507025  0.46646025862885676  1.0000
  C   C21       1.0  0.7656226143543776  0.5078207820135533  0.5496624365268661  1.0000
  C   C22       1.0  0.2343781539387848  0.49218317291646946  0.4503410365599267  1.0000
  C   C23       1.0  0.8123174387524089  0.519819199607582  0.6592696341130948  1.0000
  C   C24       1.0  0.18768199434105534  0.48018135537993356  0.3407336448553978  1.0000
  C   C25       1.0  0.5153849577120438  0.23601628396089322  0.8076222862200028  1.0000
  C   C26       1.0  0.4846160296845242  0.7639809025047132  0.19237683720552223  1.0000
  C   C27       1.0  0.4165373575796493  0.14461731943073633  0.697285746084525  1.0000
  C   C28       1.0  0.5834617788935289  0.8553824484599915  0.30271093757205153  1.0000
  C   C29       1.0  0.38708312290567193  0.1687144024126113  0.6127168745814233  1.0000
  C   C30       1.0  0.6129179928851798  0.8312904256726129  0.3872842350625022  1.0000
  C   C31       1.0  0.35134798244255444  0.03380615972054811  0.6787630194030856  1.0000
  C   C32       1.0  0.6486555704410081  0.9661902247297296  0.32123037123073334  1.0000
  C   C33       1.0  0.2936503569432247  0.08250773975397861  0.5103872048396596  1.0000
  C   C34       1.0  0.7063468112275758  0.9174979805543306  0.489610592148566  1.0000
  C   C35       1.0  0.6913143486397287  0.11870873664399541  0.043416562234106934  1.0000
  C   C36       1.0  0.30868629517279816  0.8812875832862948  0.9565842354993068  1.0000
  C   C37       1.0  0.23248052771799624  0.9714591787794691  0.49160446587252  1.0000
  C   C38       1.0  0.7675217205493893  0.02854485143976151  0.5083908242870834  1.0000
  C   C39       1.0  0.14365888001373878  0.8747436699538443  0.38334824631190423  1.0000
  C   C40       1.0  0.8563486667279747  0.12526289446432776  0.6166477940817645  1.0000
  C   C41       1.0  0.26185589838899404  0.9477039115750615  0.5765854212460869  1.0000
  C   C42       1.0  0.7381518674561248  0.0522958843786938  0.4234062694863142  1.0000
  N   N1        1.0  0.03052591985531452  0.22220545496652022  0.07388850011795972  1.0000
  N   N2        1.0  0.9694757234001584  0.7777934116107091  0.9261127877716651  1.0000
  O   O1        1.0  0.993301734287293  0.4255493509196669  0.057100303355874  1.0000
  O   O2        1.0  0.0066981558555597644  0.5744486929908421  0.9428984373391248  1.0000
  O   O3        1.0  0.007580242262136539  0.2922276347857392  0.8658807376845207  1.0000
  O   O4        1.0  0.9924214127342808  0.7077712516511243  0.13411848280015465  1.0000
  O   O5        1.0  0.3215555344897041  0.4313117929413295  0.9989400390318225  1.0000
  O   O6        1.0  0.6784440120691072  0.568685384433856  0.0010603759710578226  1.0000
  O   O7        1.0  0.6072489493066157  0.3315080571258804  0.8221961387849251  1.0000
  O   O8        1.0  0.39274982010064  0.6684908045102633  0.17780635398943911  1.0000
  O   O9        1.0  0.608973858066115  0.3672745550893881  0.15431205530100575  1.0000
  O   O10       1.0  0.39102776953478013  0.6327242850083294  0.8456919891285538  1.0000
  O   O11       1.0  0.771628086823604  0.5455542731007981  0.21845440914161438  1.0000
  O   O12       1.0  0.2283663952932145  0.4544446208429776  0.781545756149953  1.0000
  O   O13       1.0  0.7628218915588079  0.051417685429669305  0.08728079224288621  1.0000
  O   O14       1.0  0.23718117687983672  0.9485811637584692  0.9127219606093324  1.0000
  O   O15       1.0  0.9222918144042325  0.6115413680992321  0.7331531369865021  1.0000
  O   O16       1.0  0.07771268704487258  0.3884574769395713  0.26684970255832513  1.0000
  O   O17       1.0  0.5020461631224078  0.21738812401007837  0.8856020558538804  1.0000
  O   O18       1.0  0.49794876430285484  0.7826082389970569  0.11439563856912849  1.0000
  O   O19       1.0  0.7415226381094797  0.4337649820692633  0.6683853755675602  1.0000
  O   O20       1.0  0.2584721680231468  0.5662347453104458  0.33161656109103904  1.0000
  O   O21       1.0  0.10852722543581456  0.7761878628691933  0.36880646938620754  1.0000
  O   O22       1.0  0.8914689589466179  0.22381533727168798  0.6311880809058651  1.0000
  O   O23       1.0  0.10915316034346036  0.9004008770730041  0.30541013128498684  1.0000
  O   O24       1.0  0.8908501890912814  0.09960230232120891  0.6945848524701649  1.0000
