data_image0
_chemical_formula_structural       CoH30C28N8O10F8
_chemical_formula_sum              "Co1 H30 C28 N8 O10 F8"
_cell_length_a       8.754134044157002
_cell_length_b       9.608249244587489
_cell_length_c       11.325088995278003
_cell_angle_alpha    81.1274122384269
_cell_angle_beta     64.18270920683022
_cell_angle_gamma    72.70283483398507

_space_group_name_H-M_alt    "P 1"
_space_group_IT_number       1

loop_
  _space_group_symop_operation_xyz
  'x, y, z'

loop_
  _atom_site_type_symbol
  _atom_site_label
  _atom_site_symmetry_multiplicity
  _atom_site_fract_x
  _atom_site_fract_y
  _atom_site_fract_z
  _atom_site_occupancy
  Co  Co1       1.0  0.9999804741093143  1.4930706654995222e-05  0.5000102484821483  1.0000
  H   H1        1.0  0.7766914812234944  0.25210978716707905  0.4601788256276222  1.0000
  H   H2        1.0  0.2233010440212339  0.7478878511940935  0.5398235116684944  1.0000
  H   H3        1.0  0.6434635650245683  0.29058253143647766  0.6057411679833891  1.0000
  H   H4        1.0  0.3565472667627032  0.7093798324090773  0.39427087933433574  1.0000
  H   H5        1.0  0.330701968743554  0.9932829162814161  0.5142347358842657  1.0000
  H   H6        1.0  0.6692862144082027  0.006717088648898093  0.4857625584311195  1.0000
  H   H7        1.0  0.38402921347755364  0.9469556776676814  0.3509469602546176  1.0000
  H   H8        1.0  0.6159337157328224  0.05304399981567092  0.6490559965787669  1.0000
  H   H9        1.0  0.10277312118473247  0.2148283005008267  0.6085276231321118  1.0000
  H   H10       1.0  0.8972266261956106  0.7851799115403896  0.39147373083710607  1.0000
  H   H11       1.0  0.9947638534337527  0.3275646830510226  0.511856514260714  1.0000
  H   H12       1.0  0.005229857205904315  0.6724469222654933  0.4881481768846783  1.0000
  H   H13       1.0  0.23983369420358253  0.10577964242740732  0.22330396596749585  1.0000
  H   H14       1.0  0.7601337562337914  0.8942263144190368  0.7767029392732354  1.0000
  H   H15       1.0  0.07293822032378468  0.26970278618716054  0.292706004374871  1.0000
  H   H16       1.0  0.9270340619012314  0.7303083712336332  0.707303993677492  1.0000
  H   H17       1.0  0.5363045329111671  0.08706468239074643  0.16786008091062143  1.0000
  H   H18       1.0  0.4636633606992787  0.9129360608544488  0.8321314077317724  1.0000
  H   H19       1.0  0.6017681511170068  0.23599467573450283  0.19374763057908953  1.0000
  H   H20       1.0  0.39821177676666486  0.7639992477565019  0.8062398498796739  1.0000
  H   H21       1.0  0.5279703518615194  0.29819535521866675  0.41138470009136807  1.0000
  H   H22       1.0  0.47203276324557203  0.7017924548927256  0.588599449669296  1.0000
  H   H23       1.0  0.4100987652922753  0.1947507387803712  0.5492761367386194  1.0000
  H   H24       1.0  0.5898998900974345  0.8052393382894183  0.45071096854741927  1.0000
  H   H25       1.0  0.1548190487296565  0.46958317874920424  0.3260839863816117  1.0000
  H   H26       1.0  0.8451747795344174  0.5304285261780493  0.6739127062576741  1.0000
  H   H27       1.0  0.3819200606525185  0.4573479080756473  0.2849814976786647  1.0000
  H   H28       1.0  0.6180830525359367  0.5426441475268435  0.7150083258556139  1.0000
  H   H29       1.0  0.7780978144249602  0.5785000754988446  0.4695511528128478  1.0000
  H   H30       1.0  0.2219324906476813  0.4214943922074853  0.5304338898389177  1.0000
  C   C1        1.0  0.06849591492572658  0.9244679104141298  0.7355562118133889  1.0000
  C   C2        1.0  0.9314883604457336  0.07554063953998741  0.26445811799765545  1.0000
  C   C3        1.0  0.02613795263096094  0.9709578958311842  0.8713950211685813  1.0000
  C   C4        1.0  0.9738530290426938  0.029053638523770093  0.12862205293047418  1.0000
  C   C5        1.0  0.10827286891788646  0.06372554898786832  0.8909119101108516  1.0000
  C   C6        1.0  0.8917215132019218  0.9362881885137003  0.10909318872510453  1.0000
  C   C7        1.0  0.0847266704337457  0.09047929717132065  0.01601052894879731  1.0000
  C   C8        1.0  0.915259505591031  0.9095270587450062  0.9840016748928236  1.0000
  C   C9        1.0  0.3466459477630508  0.03647859525613482  0.41534078950157044  1.0000
  C   C10       1.0  0.6533342737745966  0.9635227293604558  0.5846580716315942  1.0000
  C   C11       1.0  0.11921100938017293  0.25527544877930114  0.5091922531600944  1.0000
  C   C12       1.0  0.8807829483918679  0.7447307769180825  0.49081035223046154  1.0000
  C   C13       1.0  0.19827786260437097  0.19642751822615176  0.287400705748894  1.0000
  C   C14       1.0  0.801695635724428  0.8035793019039447  0.712607647366383  1.0000
  C   C15       1.0  0.4993277495166454  0.17719652842069422  0.23206587128032646  1.0000
  C   C16       1.0  0.5006582131890696  0.8227982472861015  0.7679239457758769  1.0000
  C   C17       1.0  0.4299078086225234  0.23502187898801455  0.44910216196418423  1.0000
  C   C18       1.0  0.5700950593521906  0.7649713107425102  0.550884073551309  1.0000
  C   C19       1.0  0.2808249285548498  0.3970273876395823  0.32023315000999725  1.0000
  C   C20       1.0  0.719176384698052  0.6029754415257715  0.6797630372577145  1.0000
  C   C21       1.0  0.7591777244847433  0.5435729910321856  0.27919089511892997  1.0000
  C   C22       1.0  0.2408726413691155  0.45639796726493415  0.7208080551038734  1.0000
  C   C23       1.0  0.8813329921680192  0.522325884728133  0.1353967389447773  1.0000
  C   C24       1.0  0.11869902866798294  0.4776704794814748  0.8646042936317856  1.0000
  C   C25       1.0  0.8386655141033258  0.4703242169879972  0.048302930714285715  1.0000
  C   C26       1.0  0.1613818368970285  0.5296674420711511  0.9516892281987597  1.0000
  C   C27       1.0  0.9543681964061079  0.4474642488429552  0.9173304687953846  1.0000
  C   C28       1.0  0.045673965816284544  0.5525556624994297  0.08266088797794417  1.0000
  N   N1        1.0  0.17109784140968287  0.13150035227091914  0.4238091293928576  1.0000
  N   N2        1.0  0.828881757088055  0.8685073754142609  0.5761971167053659  1.0000
  N   N3        1.0  0.33273456869006424  0.2762419151128128  0.2368016550073477  1.0000
  N   N4        1.0  0.6672393839625457  0.7237639479749947  0.7631960665602974  1.0000
  N   N5        1.0  0.48076822260441077  0.11668952707933043  0.3639789511278905  1.0000
  N   N6        1.0  0.5192167319217659  0.8833041730954467  0.636013091279274  1.0000
  N   N7        1.0  0.2578268468022316  0.3372971829961032  0.4566474910988703  1.0000
  N   N8        1.0  0.7421722440859851  0.6627046624368305  0.5433468926832674  1.0000
  O   O1        1.0  0.9934404931489811  0.0180982775383001  0.670097009492693  1.0000
  O   O2        1.0  0.006529483724982268  0.9819301561246763  0.3299187387520632  1.0000
  O   O3        1.0  0.1676724700477619  0.8002197499967071  0.7026335098602844  1.0000
  O   O4        1.0  0.8323006516406933  0.1997979289823988  0.29737101625855195  1.0000
  O   O5        1.0  0.7664598974431484  0.24185283757194045  0.5514627851356266  1.0000
  O   O6        1.0  0.233554098075821  0.7581312009978876  0.4485350315178779  1.0000
  O   O7        1.0  0.8391621855502361  0.4993932666260365  0.35555911566466153  1.0000
  O   O8        1.0  0.16092752801464622  0.5006100474628568  0.6444266009440938  1.0000
  O   O9        1.0  0.5986237029769439  0.6004903551120436  0.31158179675815495  1.0000
  O   O10       1.0  0.40142744906491135  0.39941107504231615  0.6884481872912008  1.0000
  F   F1        1.0  0.21738043646644906  0.12845981383122052  0.7861670951313685  1.0000
  F   F2        1.0  0.7825993288287514  0.8715467133187649  0.2138480713230351  1.0000
  F   F3        1.0  0.1745123232259828  0.17748106543455586  0.027150894483497695  1.0000
  F   F4        1.0  0.825480637517259  0.8225283412897613  0.9728587213087324  1.0000
  F   F5        1.0  0.6830373340072812  0.43664749101240835  0.09015181049949202  1.0000
  F   F6        1.0  0.3170156412695348  0.5633276841266408  0.9098484290493688  1.0000
  F   F7        1.0  0.9042383758659225  0.3882115118254248  0.842734331649332  1.0000
  F   F8        1.0  0.09578398312555676  0.6118406212655574  0.15723669064217213  1.0000
