data_image0
_chemical_formula_structural       Cd2H48C52N4O10
_chemical_formula_sum              "Cd2 H48 C52 N4 O10"
_cell_length_a       6.999241404
_cell_length_b       11.151334533381617
_cell_length_c       16.835
_cell_angle_alpha    104.44622376260892
_cell_angle_beta     90.0
_cell_angle_gamma    108.29043505553653

_space_group_name_H-M_alt    "P 1"
_space_group_IT_number       1

loop_
  _space_group_symop_operation_xyz
  'x, y, z'

loop_
  _atom_site_type_symbol
  _atom_site_label
  _atom_site_symmetry_multiplicity
  _atom_site_fract_x
  _atom_site_fract_y
  _atom_site_fract_z
  _atom_site_occupancy
  Cd  Cd1       1.0  0.7460250955821621  0.9997749273046778  0.2502061694054731  1.0000
  Cd  Cd2       1.0  0.2539557150103562  0.0002192652019417  0.7497873467168432  1.0000
  H   H1        1.0  0.3064851131551549  0.0352214307869474  0.21572163953069182  1.0000
  H   H2        1.0  0.2715422369398864  0.964234387339907  0.28457732811483544  1.0000
  H   H3        1.0  0.6934844655627899  0.9647874446573041  0.7842844009163983  1.0000
  H   H4        1.0  0.7284247758278113  0.0357607840292218  0.7154211017665519  1.0000
  H   H5        1.0  0.2011289059745422  0.1723620259765539  0.0559174515865237  1.0000
  H   H6        1.0  0.026104109439259515  0.8273668947902166  0.4451186562038601  1.0000
  H   H7        1.0  0.7989446242784978  0.8276918771430956  0.9441108795737352  1.0000
  H   H8        1.0  0.9738927086444135  0.1726135936412803  0.5548565573420632  1.0000
  H   H9        1.0  0.963448036347529  0.1783213409293367  0.022203667135187295  1.0000
  H   H10       1.0  0.781452699308204  0.8203768376158108  0.47808474478802765  1.0000
  H   H11       1.0  0.03662701619853685  0.8217041751775653  0.9778003711304424  1.0000
  H   H12       1.0  0.2185624007145748  0.1796173548908158  0.5219081773336997  1.0000
  H   H13       1.0  0.3401047714502923  0.3383565513342148  0.20857954317487787  1.0000
  H   H14       1.0  0.0019867582803243227  0.6622817327031142  0.29224687001074307  1.0000
  H   H15       1.0  0.6598696476658574  0.6616934363354048  0.7914600209800184  1.0000
  H   H16       1.0  0.9980010375950952  0.3377007134534082  0.7077417350568709  1.0000
  H   H17       1.0  0.4457972477740242  0.5750582311431032  0.2794425762026479  1.0000
  H   H18       1.0  0.8728805904456605  0.42561529194453834  0.22093940768792922  1.0000
  H   H19       1.0  0.5541409637478196  0.4249907776640072  0.72059742019853  1.0000
  H   H20       1.0  0.12707385528796775  0.5743661753494749  0.7790609156372528  1.0000
  H   H21       1.0  0.30966830034250137  0.7235125192079152  0.22591958700016332  1.0000
  H   H22       1.0  0.5881822627156268  0.2760832762576797  0.2736534767628456  1.0000
  H   H23       1.0  0.6903131436436496  0.2765286586991209  0.7740923853397987  1.0000
  H   H24       1.0  0.4117721434309018  0.7238952544488058  0.7263398272928756  1.0000
  H   H25       1.0  0.06752820201739236  0.6322218439243841  0.10115778674317973  1.0000
  H   H26       1.0  0.4352262946700662  0.3660730432671926  0.3981640715038638  1.0000
  H   H27       1.0  0.9325234222965122  0.3677968201449531  0.8988385852357369  1.0000
  H   H28       1.0  0.5647214176958428  0.6339035297142743  0.6018336610479835  1.0000
  H   H29       1.0  0.9569560901189574  0.39408221509025754  0.031583124158096595  1.0000
  H   H30       1.0  0.5607880240164319  0.6040433288873146  0.4681610030433491  1.0000
  H   H31       1.0  0.0431233673672011  0.6059521107792207  0.9684104898844554  1.0000
  H   H32       1.0  0.4392083838036526  0.3959420538567286  0.5318292752883879  1.0000
  H   H33       1.0  0.5175544826851067  0.8772830095573098  0.06651892270619443  1.0000
  H   H34       1.0  0.6403221941693998  0.1227601260747448  0.4338913535403607  1.0000
  H   H35       1.0  0.48248024882884283  0.1227190138493839  0.9334735114482415  1.0000
  H   H36       1.0  0.35966275864605984  0.8771880598939674  0.566096342131111  1.0000
  H   H37       1.0  0.3952602558195082  0.6640779454065182  0.9617257503540486  1.0000
  H   H38       1.0  0.7312004723911514  0.336094400076675  0.5384563972121228  1.0000
  H   H39       1.0  0.6047953775634696  0.3359201625501385  0.03826663078373831  1.0000
  H   H40       1.0  0.2688287709383985  0.6638537858920373  0.46152060644865867  1.0000
  H   H41       1.0  0.7123529848563235  0.5135660883484903  0.11387873496417462  1.0000
  H   H42       1.0  0.19941636258898396  0.48600425669187786  0.3863773818739915  1.0000
  H   H43       1.0  0.2876522328439393  0.4864369139207128  0.8861334629641747  1.0000
  H   H44       1.0  0.8005835900569237  0.5139967878522995  0.6136113265225733  1.0000
  H   H45       1.0  0.8308232427365709  0.7352334188867218  0.20831203157929679  1.0000
  H   H46       1.0  0.09622694744891899  0.2641352804768573  0.2921548981148803  1.0000
  H   H47       1.0  0.16917054515359806  0.2647695833824812  0.7917031363520196  1.0000
  H   H48       1.0  0.9037452116118273  0.7358530388547138  0.7078334894774159  1.0000
  C   C1        1.0  0.9704795825655095  0.1287439125902452  0.1382754650406639  1.0000
  C   C2        1.0  0.8397764941211889  0.870602272935642  0.36226912238572606  1.0000
  C   C3        1.0  0.0295348156914059  0.8712688783040434  0.8617223124147629  1.0000
  C   C4        1.0  0.1601974643423034  0.129378215495862  0.6377185651726693  1.0000
  C   C5        1.0  0.07063750169746189  0.2031589982243105  0.0760318107539746  1.0000
  C   C6        1.0  0.8650019820308542  0.7961235612385095  0.42454265468257557  1.0000
  C   C7        1.0  0.9294277477002878  0.7968812008202164  0.9239758418275132  1.0000
  C   C8        1.0  0.134989981262045  0.2038500751554366  0.5754474645992077  1.0000
  C   C9        1.0  0.13833270813957904  0.3488342956270145  0.11597950899160742  1.0000
  C   C10       1.0  0.7883612397691735  0.6505334248740624  0.3843417288027241  1.0000
  C   C11       1.0  0.8616987808527979  0.6512098188675495  0.8840460166243531  1.0000
  C   C12       1.0  0.2116002308344562  0.34943923265736737  0.615654762731282  1.0000
  C   C13       1.0  0.2771988912415324  0.4022987869880268  0.18570239860867596  1.0000
  C   C14       1.0  0.8750391320862505  0.5977482640940579  0.3147881207347183  1.0000
  C   C15       1.0  0.7227858204607216  0.597737496606463  0.8143343069852664  1.0000
  C   C16       1.0  0.12492218016897279  0.4022126470872678  0.6852046477457706  1.0000
  C   C17       1.0  0.3365070525010552  0.5354720524300021  0.22569346689164865  1.0000
  C   C18       1.0  0.8022844974347692  0.46466211741535796  0.27452276429676914  1.0000
  C   C19       1.0  0.6634576570335468  0.4645642311644949  0.7743343286933781  1.0000
  C   C20       1.0  0.1976868950784834  0.5353046669410162  0.7254656287042425  1.0000
  C   C21       1.0  0.2604397978753639  0.6189191024315619  0.19575075444378603  1.0000
  C   C22       1.0  0.6427147548730971  0.3806120881084567  0.30403735376039265  1.0000
  C   C23       1.0  0.7395488293291945  0.3811250120630021  0.8042646731620736  1.0000
  C   C24       1.0  0.3572567564014619  0.6193635060105009  0.6959507130276423  1.0000
  C   C25       1.0  0.12536565235615169  0.5674123360878838  0.12549660659455242  1.0000
  C   C26       1.0  0.558001612928976  0.43143756614610135  0.3741450625750957  1.0000
  C   C27       1.0  0.8746566956666725  0.4326249263691153  0.8745052147186528  1.0000
  C   C28       1.0  0.44197637979812027  0.568559562948046  0.6258572548184704  1.0000
  C   C29       1.0  0.06336635376536041  0.4334344456637851  0.08633782723294563  1.0000
  C   C30       1.0  0.6287986407482649  0.5653175703193298  0.413569816787728  1.0000
  C   C31       1.0  0.9366846083697877  0.5666057533807418  0.9136751713538942  1.0000
  C   C32       1.0  0.3711912316396067  0.434677601049799  0.5864357411007789  1.0000
  C   C33       1.0  0.5573039835633864  0.7933054160760449  0.0738464917898654  1.0000
  C   C34       1.0  0.7641705592617356  0.2066065519798457  0.42649755933442896  1.0000
  C   C35       1.0  0.44272597233399574  0.2066956284681325  0.9261535026179857  1.0000
  C   C36       1.0  0.23586123562548514  0.7933895982517924  0.5734891522893832  1.0000
  C   C37       1.0  0.4887454181578761  0.6728945600221081  0.01590854016181711  1.0000
  C   C38       1.0  0.8159227225678621  0.3271368292598424  0.48431209084530025  1.0000
  C   C39       1.0  0.5113078867974608  0.3271074633845856  0.9840910219997455  1.0000
  C   C40       1.0  0.18409049887797824  0.6728593209717956  0.5156894707933688  1.0000
  C   C41       1.0  0.5388911500566707  0.565979281375192  0.028611743634755285  1.0000
  C   C42       1.0  0.9730340860471429  0.4339013630804232  0.4715091331335799  1.0000
  C   C43       1.0  0.4611229315034322  0.43401001681888823  0.9713952197302692  1.0000
  C   C44       1.0  0.026925466392441366  0.5660703155884974  0.5284925426514633  1.0000
  C   C45       1.0  0.665737554019799  0.590164037376887  0.09902697782288071  1.0000
  C   C46       1.0  0.07600126200163969  0.409462102826474  0.40120747098014686  1.0000
  C   C47       1.0  0.3342828902315418  0.40983798602979954  0.9009785243446232  1.0000
  C   C48       1.0  0.9239638074074746  0.5904948929048217  0.5987745524730032  1.0000
  C   C49       1.0  0.7317840770389877  0.7140116796987712  0.15316159846665306  1.0000
  C   C50       1.0  0.0182718079881994  0.2855067856286411  0.3472160315230966  1.0000
  C   C51       1.0  0.2682257975165355  0.2859834916703647  0.8468487114266097  1.0000
  C   C52       1.0  0.9817349715921891  0.7144707662153351  0.6527557267569224  1.0000
  N   N1        1.0  0.6754545402000431  0.8135228423301085  0.1420759902241358  1.0000
  N   N2        1.0  0.8622164294798864  0.1861522409986875  0.35831267044058274  1.0000
  N   N3        1.0  0.3245630070116761  0.1864762444890573  0.8579254626768744  1.0000
  N   N4        1.0  0.13780133005990786  0.8138272685703  0.6416653513540069  1.0000
  O   O1        1.0  0.37663085746329006  0.9997808004797334  0.2500883398125424  1.0000
  O   O2        1.0  0.6233410892693811  0.0002270961020088  0.7499157568784511  1.0000
  O   O3        1.0  0.7853857302017744  0.1177581386554465  0.1488681748129892  1.0000
  O   O4        1.0  0.6659567404155594  0.8820158097867292  0.35169126319160443  1.0000
  O   O5        1.0  0.2146324252090394  0.882250736788805  0.8511247976210329  1.0000
  O   O6        1.0  0.33401293186915376  0.1179646786447748  0.648301770372143  1.0000
  O   O7        1.0  0.0760940753431285  0.0865970295544614  0.17908865343675026  1.0000
  O   O8        1.0  0.9876477435950121  0.9122881117298363  0.32138390571317643  1.0000
  O   O9        1.0  0.9239198334759989  0.913414782477318  0.8209178722732774  1.0000
  O   O10       1.0  0.012323397003065398  0.08769531328918839  0.6786001091039965  1.0000
