data_image0
_chemical_formula_structural       CdH28C20N10O8
_chemical_formula_sum              "Cd1 H28 C20 N10 O8"
_cell_length_a       8.654404188992107
_cell_length_b       8.810650399963261
_cell_length_c       10.479860139930743
_cell_angle_alpha    84.61811708012131
_cell_angle_beta     68.26259657604162
_cell_angle_gamma    62.48685038166069

_space_group_name_H-M_alt    "P 1"
_space_group_IT_number       1

loop_
  _space_group_symop_operation_xyz
  'x, y, z'

loop_
  _atom_site_type_symbol
  _atom_site_label
  _atom_site_symmetry_multiplicity
  _atom_site_fract_x
  _atom_site_fract_y
  _atom_site_fract_z
  _atom_site_occupancy
  Cd  Cd1       1.0  0.0  0.0  0.0  1.0000
  H   H1        1.0  0.4969193564826923  0.18146474633574877  0.4857918670346279  1.0000
  H   H2        1.0  0.5030807265798031  0.8185341757309886  0.5142081645373366  1.0000
  H   H3        1.0  0.4772437082990209  0.39029628154291623  0.4501841667469788  1.0000
  H   H4        1.0  0.5227557300274767  0.6097039288382716  0.5498169124518951  1.0000
  H   H5        1.0  0.1256792958508797  0.5146471281243591  0.6008484007953995  1.0000
  H   H6        1.0  0.8743207872116154  0.48535179394237116  0.399151630776565  1.0000
  H   H7        1.0  0.19771215936115982  0.39198144609947866  0.44410489126246927  1.0000
  H   H8        1.0  0.8022885153819669  0.6080187588828495  0.5558938978875075  1.0000
  H   H9        1.0  0.10929217096406052  0.32391031102994117  0.8292664898196306  1.0000
  H   H10       1.0  0.8907072600841698  0.6760898934949041  0.17073268366571168  1.0000
  H   H11       1.0  0.13289432505673907  0.1480665747460179  0.45640818020250146  1.0000
  H   H12       1.0  0.8671057543666262  0.8519323443925444  0.5435908985126972  1.0000
  H   H13       1.0  0.03135701300829633  0.9537586230545475  0.6685042864771659  1.0000
  H   H14       1.0  0.968643070054206  0.046240299012190206  0.3314957450947986  1.0000
  H   H15       1.0  0.1913140938855591  0.5558756400407887  0.9292946863759253  1.0000
  H   H16       1.0  0.8086878281916016  0.44412456832719727  0.07070467129543788  1.0000
  H   H17       1.0  0.7378710290622763  0.5128077918953836  0.7807439271803102  1.0000
  H   H18       1.0  0.2621277645282162  0.48719370680026947  0.21925819964545923  1.0000
  H   H19       1.0  0.4750581422241281  0.8574715137233824  0.8439716788870796  1.0000
  H   H20       1.0  0.5249412961023693  0.14252869665781281  0.15602940031178747  1.0000
  H   H21       1.0  0.4634281411980794  0.2563768062843863  0.8900937484354045  1.0000
  H   H22       1.0  0.5365725408233146  0.7436234045542848  0.10990694642809724  1.0000
  H   H23       1.0  0.6956667724266765  0.22879394705397266  0.8343142581717728  1.0000
  H   H24       1.0  0.304335146011347  0.7712062583858383  0.1656841466428318  1.0000
  H   H25       1.0  0.6943452262231772  0.29360837567486453  0.5951423833258074  1.0000
  H   H26       1.0  0.30565230911587793  0.7063931108506126  0.40485631640827785  1.0000
  H   H27       1.0  0.6519227431864394  0.11354532070841121  0.6516870405367428  1.0000
  H   H28       1.0  0.3480792319460946  0.8864523164295193  0.3483125119297198  1.0000
  C   C1        1.0  0.4148390705532705  0.3186452551929052  0.5258170605530735  1.0000
  C   C2        1.0  0.5851610125092249  0.6813536668738323  0.4741829710188981  1.0000
  C   C3        1.0  0.21064377799525147  0.3857077379471363  0.5447442619312639  1.0000
  C   C4        1.0  0.7893544129972125  0.6142924690484008  0.45525624874620957  1.0000
  C   C5        1.0  0.10174103240548503  0.2477255504819098  0.7583123549111475  1.0000
  C   C6        1.0  0.8982578069621141  0.7522733711273447  0.2416880609961892  1.0000
  C   C7        1.0  0.11401511591535039  0.15190728756194719  0.5645462074253942  1.0000
  C   C8        1.0  0.8859849635080154  0.848091631576615  0.4354528712898115  1.0000
  C   C9        1.0  0.06518711622088347  0.057740903456746706  0.669668017174274  1.0000
  C   C10       1.0  0.9348129668416117  0.9422580186099837  0.33033201439769755  1.0000
  C   C11       1.0  0.3014162869065231  0.5944244680184952  0.8971397983915848  1.0000
  C   C12       1.0  0.6985824994057024  0.40557702482080776  0.10286042272066  1.0000
  C   C13       1.0  0.5862454038852576  0.5742052849795413  0.8168160767877168  1.0000
  C   C14       1.0  0.41375462612186453  0.42579620831724435  0.18318375998915565  1.0000
  C   C15       1.0  0.45463825712423034  0.744210591296479  0.8498939692570743  1.0000
  C   C16       1.0  0.5453624248971707  0.255789619542199  0.1501067256064275  1.0000
  C   C17       1.0  0.563473233730349  0.2968377161574978  0.8173635521360509  1.0000
  C   C18       1.0  0.43652620095701866  0.7031624912955226  0.18263657420605034  1.0000
  C   C19       1.0  0.5936233998210128  0.2538383868278657  0.670378050008999  1.0000
  C   C20       1.0  0.4063766868806195  0.7461605381670396  0.3296229344197315  1.0000
  N   N1        1.0  0.1365771505760023  0.271775319012697  0.6222224295637061  1.0000
  N   N2        1.0  0.8634222841113653  0.7282248884403231  0.37777769677839507  1.0000
  N   N3        1.0  0.05767901168283628  0.1190634059093085  0.7896555780740397  1.0000
  N   N4        1.0  0.942319179309635  0.8809368010862287  0.2103449326034336  1.0000
  N   N5        1.0  0.853967362854881  0.7765830457371407  0.8638689750981283  1.0000
  N   N6        1.0  0.1460326671522481  0.2234184475596521  0.1361308616787511  1.0000
  N   N7        1.0  0.4866942950783723  0.4813098348350096  0.8474263365349302  1.0000
  N   N8        1.0  0.513305143248125  0.5186903755461857  0.15257474266393695  1.0000
  N   N9        1.0  0.27762098022159876  0.7548567203184718  0.9001742989025558  1.0000
  N   N10       1.0  0.7223803501749301  0.24514220513391652  0.0998263011908095  1.0000
  O   O1        1.0  0.41533976585252924  0.3420983732255607  0.6580474984022615  1.0000
  O   O2        1.0  0.5846603739044766  0.6578979805392962  0.341953680821561  1.0000
  O   O3        1.0  0.8080006895438885  0.9248778838354141  0.9147694211215978  1.0000
  O   O4        1.0  0.19199874514347928  0.075122323617606  0.08523070522051057  1.0000
  O   O5        1.0  0.8565738952754032  0.7615210217298201  0.7438092013768266  1.0000
  O   O6        1.0  0.14342364734192606  0.23848047065200007  0.2561914040707833  1.0000
  O   O7        1.0  0.8944710976759893  0.6486171774174848  0.9328981536706705  1.0000
  O   O8        1.0  0.10552957706713781  0.3513830275648501  0.06710063547929929  1.0000
