data_image0
_chemical_formula_structural       Sr2H12C8O14
_chemical_formula_sum              "Sr2 H12 C8 O14"
_cell_length_a       6.617581116671114
_cell_length_b       7.102491322010364
_cell_length_c       7.874087531339579
_cell_angle_alpha    90.00015695776685
_cell_angle_beta     98.27767900013696
_cell_angle_gamma    89.99986323577335

_space_group_name_H-M_alt    "P 1"
_space_group_IT_number       1

loop_
  _space_group_symop_operation_xyz
  'x, y, z'

loop_
  _atom_site_type_symbol
  _atom_site_label
  _atom_site_symmetry_multiplicity
  _atom_site_fract_x
  _atom_site_fract_y
  _atom_site_fract_z
  _atom_site_occupancy
  Sr  Sr1       1.0  0.10068601368448779  0.24891552629459573  0.10868819293825276  1.0000
  Sr  Sr2       1.0  0.8993122310218241  0.7489150177658531  0.8913119921188793  1.0000
  H   H1        1.0  0.4376783771288402  0.7699201055140678  0.4050469999885279  1.0000
  H   H2        1.0  0.5623228759111925  0.26992245749195837  0.5949536032618565  1.0000
  H   H3        1.0  0.2212700078459378  0.9907698062701087  0.5334544035931683  1.0000
  H   H4        1.0  0.778727712461567  0.49076988212130596  0.4665437811568721  1.0000
  H   H5        1.0  0.37380189696011706  0.45345517091035964  0.409094578966041  1.0000
  H   H6        1.0  0.6262004846027196  0.9534571823688797  0.5909053494357293  1.0000
  H   H7        1.0  0.9119707173334888  0.8983465492007525  0.5408841011184009  1.0000
  H   H8        1.0  0.08802873014747088  0.3983467324187587  0.45911533302941604  1.0000
  H   H9        1.0  0.5020389809794635  0.28041939502697494  0.9628317216092835  1.0000
  H   H10       1.0  0.4979607232576626  0.7804200257344432  0.0371674495274377  1.0000
  H   H11       1.0  0.3603880312064972  0.41217031372153906  0.8352630563788279  1.0000
  H   H12       1.0  0.6396113850868518  0.9121710129446329  0.164737678456838  1.0000
  C   C1        1.0  0.1500135459775649  0.7432351892714382  0.24967364050687724  1.0000
  C   C2        1.0  0.8499877651684642  0.2432317365371404  0.7503269032219746  1.0000
  C   C3        1.0  0.2845546031221957  0.7204503395704123  0.4243327259303412  1.0000
  C   C4        1.0  0.7154498138783796  0.22044806874546907  0.575665598614222  1.0000
  C   C5        1.0  0.21036648378371578  0.8402959050962266  0.5649462372070032  1.0000
  C   C6        1.0  0.7896346171241717  0.3402944539532625  0.43505325314119137  1.0000
  C   C7        1.0  0.35656529590754366  0.8011815491249481  0.731706129481992  1.0000
  C   C8        1.0  0.6434358901637154  0.3011785137071357  0.26829327362813155  1.0000
  O   O1        1.0  0.11865467426493843  0.9087418485577601  0.19009953068768223  1.0000
  O   O2        1.0  0.881347803564907  0.4087399132301853  0.8099015678423738  1.0000
  O   O3        1.0  0.08175481264126461  0.5965316909908012  0.16890452069625883  1.0000
  O   O4        1.0  0.9182437616654511  0.09652973729836842  0.8310978642119263  1.0000
  O   O5        1.0  0.29605200042286844  0.5315406499784531  0.48608921215334516  1.0000
  O   O6        1.0  0.7039467197400385  0.031541034837125906  0.5139079483834691  1.0000
  O   O7        1.0  0.005963735060213099  0.7918920174310317  0.5829041982390419  1.0000
  O   O8        1.0  0.994035943110177  0.2918914651568727  0.41709626833991814  1.0000
  O   O9        1.0  0.5464639284532709  0.8230680138414074  0.7248800478046462  1.0000
  O   O10       1.0  0.45353720778668116  0.32306542173173375  0.2751219438316993  1.0000
  O   O11       1.0  0.28639745464221283  0.7462391342077125  0.8645990404599642  1.0000
  O   O12       1.0  0.7136053759088483  0.24623554269398798  0.13540296549658137  1.0000
  O   O13       1.0  0.3678140706728215  0.28751834916550933  0.8878721536613268  1.0000
  O   O14       1.0  0.6321871451427016  0.7875189066116093  0.11212721897992138  1.0000
