data_image0
_chemical_formula_structural       Mn2H54C60N12O8
_chemical_formula_sum              "Mn2 H54 C60 N12 O8"
_cell_length_a       10.21201015749979
_cell_length_b       11.074147211478573
_cell_length_c       13.91
_cell_angle_alpha    107.69950647172084
_cell_angle_beta     95.82596521965384
_cell_angle_gamma    97.25636986710188

_space_group_name_H-M_alt    "P 1"
_space_group_IT_number       1

loop_
  _space_group_symop_operation_xyz
  'x, y, z'

loop_
  _atom_site_type_symbol
  _atom_site_label
  _atom_site_symmetry_multiplicity
  _atom_site_fract_x
  _atom_site_fract_y
  _atom_site_fract_z
  _atom_site_occupancy
  Mn  Mn1       1.0  0.19253661959488969  0.3611937869417901  0.8186243666826271  1.0000
  Mn  Mn2       1.0  0.807462217615857  0.6388012986327496  0.18137565119629068  1.0000
  H   H1        1.0  0.8375459836923156  0.0293102720440999  0.6512534693896511  1.0000
  H   H2        1.0  0.1624543432725218  0.9706934641649453  0.34874084535208266  1.0000
  H   H3        1.0  0.417275929278361  0.0522565606421423  0.6463337968768811  1.0000
  H   H4        1.0  0.5827262008049416  0.9477462143852904  0.35366688975388877  1.0000
  H   H5        1.0  0.7117637791764865  0.3762977947761499  0.8220844051474571  1.0000
  H   H6        1.0  0.2882411383486456  0.6237040190696703  0.17792057000367828  1.0000
  H   H7        1.0  0.6428137549857099  0.8703297638951  0.5057933695374855  1.0000
  H   H8        1.0  0.35718165036235655  0.1296739723139382  0.49420201625324  1.0000
  H   H9        1.0  0.48191567525775286  0.8591464158517823  0.5421759764830509  1.0000
  H   H10       1.0  0.5180830141168401  0.1408592427204809  0.45782227605381814  1.0000
  H   H11       1.0  0.61609801336418  0.818526880973323  0.6118858138864312  1.0000
  H   H12       1.0  0.38389919510236586  0.1814758940541026  0.3881087547207186  1.0000
  H   H13       1.0  0.437015499420724  0.6207877940620676  0.8946272500523661  1.0000
  H   H14       1.0  0.5629762819983171  0.3792063303308666  0.10536769592871308  1.0000
  H   H15       1.0  0.046387885776241006  0.5893177469381783  0.9663824393075443  1.0000
  H   H16       1.0  0.9536157163690718  0.41068214454441687  0.033621253618178984  1.0000
  H   H17       1.0  0.1579432560705953  0.8487031776488863  0.030736172067278668  1.0000
  H   H18       1.0  0.8420616526085  0.1512928691072659  0.9692623741910109  1.0000
  H   H19       1.0  0.434671942782856  0.9315637607834546  0.14451913970805919  1.0000
  H   H20       1.0  0.5653280442794754  0.0684322859727047  0.8554747263411357  1.0000
  H   H21       1.0  0.103693272026625  0.6107405626828779  0.738062452518072  1.0000
  H   H22       1.0  0.8963109833855756  0.3892574064364922  0.26193938598120065  1.0000
  H   H23       1.0  0.1274918745275215  0.6188433236631283  0.5412881855357625  1.0000
  H   H24       1.0  0.8725089401759618  0.3811575290010794  0.458715532313171  1.0000
  H   H25       1.0  0.2443805215927597  0.2783591557107172  0.5747194071051211  1.0000
  H   H26       1.0  0.7556212774340808  0.7216416969534905  0.42527863283882533  1.0000
  H   H27       1.0  0.3658016583557995  0.4718988401637674  0.24056532265155536  1.0000
  H   H28       1.0  0.6341978409678718  0.5281000901372153  0.7594356751574407  1.0000
  H   H29       1.0  0.060242757599510824  0.2277269919910694  0.3961647764811643  1.0000
  H   H30       1.0  0.9397556007186196  0.7722767442179688  0.6038372995342272  1.0000
  H   H31       1.0  0.9933289103063744  0.11892123363232089  0.11812312824768866  1.0000
  H   H32       1.0  0.006665179661880003  0.8810805802134993  0.8818810400192801  1.0000
  H   H33       1.0  0.9502566167114425  0.0939305117478  0.23244465540408749  1.0000
  H   H34       1.0  0.04973960743174642  0.9060722632796329  0.7675606234588768  1.0000
  H   H35       1.0  0.0828276547468221  0.027034193989386803  0.17772808347663016  1.0000
  H   H36       1.0  0.9171639699900355  0.972964736311603  0.8222752031365628  1.0000
  H   H37       1.0  0.3313812143256031  0.6729914897156064  0.4490845169776064  1.0000
  H   H38       1.0  0.6686243564664168  0.3270084017669888  0.5509164470252869  1.0000
  H   H39       1.0  0.47209589925252265  0.6068420100688954  0.4079688153393305  1.0000
  H   H40       1.0  0.5279057342460902  0.3931578814136998  0.5920332930656613  1.0000
  H   H41       1.0  0.4155434583049529  0.591688981972375  0.5219120744830761  1.0000
  H   H42       1.0  0.5844594905734724  0.40831283187343803  0.4780877216110254  1.0000
  H   H43       1.0  0.18484182356166207  0.4507057468240845  0.08275333395174297  1.0000
  H   H44       1.0  0.8151593221982907  0.5492970282033482  0.9172508738622296  1.0000
  H   H45       1.0  0.24327185144638017  0.1018900566680188  0.874831684260627  1.0000
  H   H46       1.0  0.7567209142960181  0.8981040677249154  0.12516908633165252  1.0000
  H   H47       1.0  0.2489603424409381  0.0758497244643479  0.06899154314979938  1.0000
  H   H48       1.0  0.7510334164708469  0.9241501670182473  0.931011416244864  1.0000
  H   H49       1.0  0.7060000303774389  0.2070692768086815  0.2190616921464326  1.0000
  H   H50       1.0  0.2939983190946478  0.7929286923106886  0.780933236068847  1.0000
  H   H51       1.0  0.5939133681953663  0.1044218090312441  0.2621196882501593  1.0000
  H   H52       1.0  0.4060885963597087  0.8955800048145761  0.7378757210472668  1.0000
  H   H53       1.0  0.5446286154565954  0.24131521642497228  0.23708782152814215  1.0000
  H   H54       1.0  0.4553754744273776  0.7586817915127924  0.7629058640087364  1.0000
  C   C1        1.0  0.9322403707807041  0.2714655611970329  0.7746475560974487  1.0000
  C   C2        1.0  0.0677625780977209  0.7285362526487802  0.22535152108939366  1.0000
  C   C3        1.0  0.7890187871567421  0.2086350416529115  0.7399084370247377  1.0000
  C   C4        1.0  0.2109830118700984  0.7913658110112961  0.2600896029192156  1.0000
  C   C5        1.0  0.7561938626854998  0.081336149099613  0.6750264814288869  1.0000
  C   C6        1.0  0.24380596769463383  0.9186647035645948  0.32497069290158714  1.0000
  C   C7        1.0  0.6226651885558283  0.0225368252317821  0.6406460889227219  1.0000
  C   C8        1.0  0.37733283870583983  0.977464988614038  0.3593526214985871  1.0000
  C   C9        1.0  0.5223595092299789  0.094508181895975  0.6721254742868439  1.0000
  C   C10       1.0  0.47764147984777594  0.9054993990395062  0.32787629055032136  1.0000
  C   C11       1.0  0.553660844027803  0.2223280348824019  0.7368733275861317  1.0000
  C   C12       1.0  0.44634194816843126  0.7776785848714667  0.26312977678924904  1.0000
  C   C13       1.0  0.6871951430374494  0.2780563835032694  0.7708940092445998  1.0000
  C   C14       1.0  0.31280846795390727  0.7219492750689938  0.22910820459409814  1.0000
  C   C15       1.0  0.44621748088386687  0.3006989387122587  0.7698291494596531  1.0000
  C   C16       1.0  0.5537833338196236  0.699301913951949  0.23017528729653228  1.0000
  C   C17       1.0  0.5887361496705168  0.8853914797385798  0.5717238952628918  1.0000
  C   C18       1.0  0.41126204311937903  0.1146112952888458  0.42827218451189  1.0000
  C   C19       1.0  0.34528706157234273  0.6468838747991725  0.9216808616495482  1.0000
  C   C20       1.0  0.65470832608365  0.3531083272305366  0.07831388777891846  1.0000
  C   C21       1.0  0.1438127104286551  0.6350574962581277  0.9606381627929891  1.0000
  C   C22       1.0  0.8561894108086109  0.364939511679637  0.039361127295762736  1.0000
  C   C23       1.0  0.1970722939873397  0.7631743543623415  0.9924113005338382  1.0000
  C   C24       1.0  0.8029303238346233  0.2368255371202608  0.007583692151648304  1.0000
  C   C25       1.0  0.4152778242294062  0.885683678948304  0.9818423904813541  1.0000
  C   C26       1.0  0.5847265878649921  0.1143094842630106  0.01814966957128659  1.0000
  C   C27       1.0  0.46316340911141657  0.9639046384468486  0.08178799739573601  1.0000
  C   C28       1.0  0.5368413340394512  0.036090447127691  0.91820527152921  1.0000
  C   C29       1.0  0.5492731474858844  0.0803518991300081  0.10267736952695829  1.0000
  C   C30       1.0  0.45072406098066153  0.9196508758974247  0.8973193558019756  1.0000
  C   C31       1.0  0.1386196897702305  0.5440018787086629  0.6751780223382225  1.0000
  C   C32       1.0  0.8613855499653269  0.45599609041071426  0.324825327328675  1.0000
  C   C33       1.0  0.1497693312113029  0.5500217591379979  0.5790641085257349  1.0000
  C   C34       1.0  0.850228364993896  0.4499781323445973  0.42093842537409637  1.0000
  C   C35       1.0  0.20923181040087263  0.3699107429714346  0.5939187224166175  1.0000
  C   C36       1.0  0.7907696575695056  0.6300881873295552  0.4060802653768078  1.0000
  C   C37       1.0  0.20761701786591402  0.394931261485894  0.42176959236912376  1.0000
  C   C38       1.0  0.7923829780424613  0.6050705523599262  0.5782328592946938  1.0000
  C   C39       1.0  0.2953270356887998  0.467177516090814  0.38066458508939854  1.0000
  C   C40       1.0  0.7046729602195683  0.5328242977550062  0.619337866574426  1.0000
  C   C41       1.0  0.2970829640487196  0.4196220947077975  0.27550281856829156  1.0000
  C   C42       1.0  0.7029183383934239  0.5803758744115797  0.7245002376861861  1.0000
  C   C43       1.0  0.2133843258209964  0.3069043271925054  0.21422091188586723  1.0000
  C   C44       1.0  0.7866150079744402  0.6930936419268718  0.7857819976623971  1.0000
  C   C45       1.0  0.1270926569669157  0.2328001085336311  0.25540247028637  1.0000
  C   C46       1.0  0.8729022517964609  0.7672007441305766  0.744599369629398  1.0000
  C   C47       1.0  0.12759565205504944  0.2798634049318451  0.3607313602943236  1.0000
  C   C48       1.0  0.8724043438533188  0.7201384089139751  0.6392725291840193  1.0000
  C   C49       1.0  0.0336739670410964  0.1123669362272963  0.19220955885004534  1.0000
  C   C50       1.0  0.9663199573989234  0.8876339164369113  0.8077943644344001  1.0000
  C   C51       1.0  0.38366398058902723  0.5907047320027701  0.44389339726451027  1.0000
  C   C52       1.0  0.6163366685862287  0.40929515947982503  0.5561071999728497  1.0000
  C   C53       1.0  0.20351291653265952  0.3531352403156447  0.05034947796067257  1.0000
  C   C54       1.0  0.7964828110258395  0.6468646511669505  0.9496543470474632  1.0000
  C   C55       1.0  0.2307435133604656  0.1694620850989281  0.9468126915532549  1.0000
  C   C56       1.0  0.7692543483729681  0.8305387675652796  0.05319008732909224  1.0000
  C   C57       1.0  0.23190966473207913  0.1545253228648704  0.04124328056150968  1.0000
  C   C58       1.0  0.7680847474466006  0.8454726462545068  0.9587607000357393  1.0000
  C   C59       1.0  0.6015033796312039  0.1623214669112301  0.21085406924794364  1.0000
  C   C60       1.0  0.3984984193956365  0.8376793857529776  0.7891432517887437  1.0000
  N   N1        1.0  0.2368015745048808  0.563827210615969  0.9168561532463284  1.0000
  N   N2        1.0  0.7631984125574505  0.4361688361401832  0.08314058843190957  1.0000
  N   N3        1.0  0.3251231336491287  0.7697315353121894  0.9666530904492632  1.0000
  N   N4        1.0  0.6748784910034403  0.2302625890807377  0.03333971343383979  1.0000
  N   N5        1.0  0.1769335857385244  0.43208285311206396  0.6835263409555167  1.0000
  N   N6        1.0  0.823070338617221  0.5679131936440882  0.31647356976419155  1.0000
  N   N7        1.0  0.1948483451389365  0.4382276871508211  0.5276297789019893  1.0000
  N   N8        1.0  0.8051528006210164  0.5617750878766046  0.47237299109746533  1.0000
  N   N9        1.0  0.214655602917837  0.2720528431613189  0.10689878834944715  1.0000
  N   N10       1.0  0.7853461961090106  0.7279480095028887  0.893105721759852  1.0000
  N   N11       1.0  0.2124006217037078  0.2931901879675678  0.9535852049709062  1.0000
  N   N12       1.0  0.7875972400297186  0.7068106646966399  0.04641901172596614  1.0000
  O   O1        1.0  0.022769436904589206  0.2035773040161288  0.7470467246972063  1.0000
  O   O2        1.0  0.9772338430303051  0.7964264321929164  0.2529578748054958  1.0000
  O   O3        1.0  0.9595759130401974  0.38936890350336734  0.8291554399042269  1.0000
  O   O4        1.0  0.040429492223587694  0.6106300267976223  0.17084240348710716  1.0000
  O   O5        1.0  0.32603788482550305  0.2384854977623547  0.750988860729066  1.0000
  O   O6        1.0  0.6739637575191465  0.7615201608099085  0.2490146442179507  1.0000
  O   O7        1.0  0.4780766501219987  0.4204237201713212  0.8127404556977424  1.0000
  O   O8        1.0  0.5219235113145971  0.5795790548561044  0.18726080313408025  1.0000
