data_image0
_chemical_formula_structural       Al4H34C57S2O27
_chemical_formula_sum              "Al4 H34 C57 S2 O27"
_cell_length_a       6.676622168828624
_cell_length_b       21.18516709389635
_cell_length_c       22.17167042198948
_cell_angle_alpha    107.47139058254358
_cell_angle_beta     89.9525456355572
_cell_angle_gamma    90.88892123962802

_space_group_name_H-M_alt    "P 1"
_space_group_IT_number       1

loop_
  _space_group_symop_operation_xyz
  'x, y, z'

loop_
  _atom_site_type_symbol
  _atom_site_label
  _atom_site_symmetry_multiplicity
  _atom_site_fract_x
  _atom_site_fract_y
  _atom_site_fract_z
  _atom_site_occupancy
  Al  Al1       1.0  0.1023758303621634  0.49878696973532044  0.5007917857341369  1.0000
  Al  Al2       1.0  0.6005570977168091  0.4975184195272533  0.49653705727617853  1.0000
  Al  Al3       1.0  0.6940237101251724  0.9981615539135479  0.9979767694936116  1.0000
  Al  Al4       1.0  0.19440309546750004  0.9999731427487576  0.0009526071603502873  1.0000
  H   H1        1.0  0.23946695405908971  0.8065921844077693  0.18579366665920818  1.0000
  H   H2        1.0  0.25203584531852385  0.8793389427684916  0.11519525358367844  1.0000
  H   H3        1.0  0.6119407270309554  0.8948814418379815  0.12341669414204395  1.0000
  H   H4        1.0  0.5967070374998826  0.8236011943006576  0.19535843325672186  1.0000
  H   H5        1.0  0.20996470754885627  0.6777685715975894  0.3087757774700037  1.0000
  H   H6        1.0  0.1891867057216814  0.6066053193286223  0.3810124483235954  1.0000
  H   H7        1.0  0.5490232780825224  0.6203797269588238  0.3843834611275625  1.0000
  H   H8        1.0  0.5665421525806096  0.6930809213052527  0.3134828847131956  1.0000
  H   H9        1.0  0.5717533885853214  0.6133353342815441  0.6799241833496126  1.0000
  H   H10       1.0  0.27743912584610086  0.7979975155323659  0.7175122682828388  1.0000
  H   H11       1.0  0.5359434584284415  0.7085818089691716  0.7779512236183165  1.0000
  H   H12       1.0  0.2546060425111065  0.8826596538596476  0.8213169568700777  1.0000
  H   H13       1.0  0.6667037273644281  0.8121655316856079  0.8502447068293506  1.0000
  H   H14       1.0  0.631469076268445  0.32573027743926275  0.3470712035297154  1.0000
  H   H15       1.0  0.7885584032823588  0.2250076602713024  0.2744323022828397  1.0000
  H   H16       1.0  0.0032499595357648996  0.27579450845040304  0.21993190872388627  1.0000
  H   H17       1.0  0.7695894268217457  0.12946184372164996  0.17582231409738822  1.0000
  H   H18       1.0  0.1591220202365307  0.17549680250520086  0.146415034721997  1.0000
  H   H19       1.0  0.7425687839431419  0.19440878798600644  0.8119582534078518  1.0000
  H   H20       1.0  0.7579529894073928  0.12182651905990843  0.883198588704687  1.0000
  H   H21       1.0  0.11794814291939561  0.09876625640119134  0.874329880435198  1.0000
  H   H22       1.0  0.09992533580177108  0.17003413447492483  0.8023356812361015  1.0000
  H   H23       1.0  0.6728615421640142  0.351543248770696  0.7186558083701371  1.0000
  H   H24       1.0  0.6568341433763509  0.4216789275239636  0.645709341546116  1.0000
  H   H25       1.0  0.059607069603139  0.34820894259534196  0.5896439805092442  1.0000
  H   H26       1.0  0.9866478802363189  0.4285071924436182  0.2553690610054176  1.0000
  H   H27       1.0  0.08636755548253211  0.46966059242427605  0.3330110894190028  1.0000
  H   H28       1.0  0.821550191888534  0.45634640750655125  0.32189568696468035  1.0000
  H   H29       1.0  0.2004748513233494  0.18390298390897902  0.6739262205358189  1.0000
  H   H30       1.0  0.06609564055473532  0.8038794272799737  0.5925784967495603  1.0000
  H   H31       1.0  0.3612838925334215  0.5844832305264377  0.5335093275281366  1.0000
  H   H32       1.0  0.8537208131583611  0.41516635982024047  0.4583476011642205  1.0000
  H   H33       1.0  0.4368959154103321  0.9116151727748235  0.9786182824249394  1.0000
  H   H34       1.0  0.9436636186935061  0.08590585021115522  0.025568304521598903  1.0000
  C   C1        1.0  0.3437558197860254  0.40813138417720307  0.40019704112068416  1.0000
  C   C2        1.0  0.35000507742314113  0.4309106966418739  0.5699548153655414  1.0000
  C   C3        1.0  0.8516162286269165  0.5912328418489068  0.5935804135534326  1.0000
  C   C4        1.0  0.8584647847418694  0.5673883686258493  0.4294716547088981  1.0000
  C   C5        1.0  0.1026323137654188  0.8262869342540998  0.17216565168077122  1.0000
  C   C6        1.0  0.10977563850754278  0.8664530796462843  0.13292871280241053  1.0000
  C   C7        1.0  0.9326754778152804  0.8907260343692802  0.11478846072989063  1.0000
  C   C8        1.0  0.7478946085547377  0.8751403872741081  0.13753394588244564  1.0000
  C   C9        1.0  0.739569629437355  0.8355703104763991  0.17727542297744486  1.0000
  C   C10       1.0  0.9170344582473148  0.8098943908895466  0.19477479196541483  1.0000
  C   C11       1.0  0.9085280474077492  0.7681643186864096  0.2339161742368461  1.0000
  C   C12       1.0  0.9000357928784836  0.7317468992066481  0.2673769364852703  1.0000
  C   C13       1.0  0.0657697141825366  0.6651586529587095  0.3255780008394922  1.0000
  C   C14       1.0  0.05453821011708731  0.625507591035479  0.3652048944908374  1.0000
  C   C15       1.0  0.8680945457448673  0.6093149479529387  0.3863027281062728  1.0000
  C   C16       1.0  0.692161489853149  0.6333905726111839  0.3672557048126137  1.0000
  C   C17       1.0  0.7021897330481722  0.6735715974901667  0.32805956842298667  1.0000
  C   C18       1.0  0.8894325631495832  0.6901880743143565  0.30666294793467597  1.0000
  C   C19       1.0  0.8428338006992034  0.6514155219049726  0.6504158580760446  1.0000
  C   C20       1.0  0.9543809528838453  0.8542859097038192  0.8406338364275855  1.0000
  C   C21       1.0  0.14243769432363962  0.8006607404858814  0.7455138209775641  1.0000
  C   C22       1.0  0.13009950734343076  0.8482280343781383  0.8033643746346826  1.0000
  C   C23       1.0  0.7998592295264474  0.8087005512629377  0.8209684739972403  1.0000
  C   C24       1.0  0.8140267081316354  0.7561316873099458  0.7639221368402289  1.0000
  C   C25       1.0  0.9834940836982754  0.7539321751401291  0.7230097295806459  1.0000
  C   C26       1.0  0.9827805190876262  0.7032852837469225  0.6634181198778393  1.0000
  C   C27       1.0  0.6827674565725561  0.6533467449313053  0.6928379846410097  1.0000
  C   C28       1.0  0.6646055324528178  0.7056391548461677  0.7468977263166608  1.0000
  C   C29       1.0  0.3283934388772209  0.3534952172363149  0.3392756350789838  1.0000
  C   C30       1.0  0.46240904601192767  0.14772770922598263  0.1552451280870031  1.0000
  C   C31       1.0  0.6527022881821408  0.21485250598464492  0.2456492040862202  1.0000
  C   C32       1.0  0.6423261444299087  0.1618683244277932  0.19145343861367792  1.0000
  C   C33       1.0  0.29704564979939363  0.18727128257888387  0.1741362736283705  1.0000
  C   C34       1.0  0.3059172069231336  0.24306929160590585  0.22856407093735245  1.0000
  C   C35       1.0  0.4870428557974548  0.2574459017864754  0.2651949692150453  1.0000
  C   C36       1.0  0.4933893482597115  0.3134809227475302  0.319485320795998  1.0000
  C   C37       1.0  0.147361092977043  0.33832119224770457  0.3022234447449392  1.0000
  C   C38       1.0  0.140743551629285  0.28525804004768673  0.2479174212263047  1.0000
  C   C39       1.0  0.6070793828600288  0.17287757805087983  0.8256496898705591  1.0000
  C   C40       1.0  0.6153101372106135  0.13279045424615532  0.8649844615155686  1.0000
  C   C41       1.0  0.438953848099402  0.1063752095207278  0.8828183369737205  1.0000
  C   C42       1.0  0.25326729475865045  0.119731438839942  0.8599345695119496  1.0000
  C   C43       1.0  0.24343749929093408  0.1591879086881534  0.8201647316359699  1.0000
  C   C44       1.0  0.42043591345979797  0.18681605577369712  0.8029414266153624  1.0000
  C   C45       1.0  0.4091673363097285  0.22861008378536246  0.7639135489196037  1.0000
  C   C46       1.0  0.3955112317406488  0.2662142934562085  0.731795191232429  1.0000
  C   C47       1.0  0.5394002668472666  0.35164692529048847  0.690540554065649  1.0000
  C   C48       1.0  0.5294340594119902  0.39074113453945375  0.6504015988656207  1.0000
  C   C49       1.0  0.3567400092069235  0.39013868116303746  0.6143960182592424  1.0000
  C   C50       1.0  0.1932101373414952  0.34921000002507446  0.6180777776605526  1.0000
  C   C51       1.0  0.20588911291502396  0.30836921296384656  0.6565517437801702  1.0000
  C   C52       1.0  0.37890315924133233  0.30884859078272353  0.6938496794192304  1.0000
  C   C53       1.0  0.44542760203010806  0.0656999638505127  0.9272960008657167  1.0000
  C   C54       1.0  0.4522810940777617  0.09114149817628463  0.096040714178919  1.0000
  C   C55       1.0  0.9395714888986857  0.9316094511062971  0.07068408612234825  1.0000
  C   C56       1.0  0.9435901296490031  0.908194385993021  0.901907200489568  1.0000
  C   C57       1.0  0.9689832768436092  0.43572312865930496  0.3063984804566218  1.0000
  S   S1        1.0  0.00046424316995800446  0.2542564678535869  0.6581076416358016  1.0000
  S   S2        1.0  0.1417446936492226  0.7091342532264093  0.5994773094976722  1.0000
  O   O1        1.0  0.5186335331927978  0.4456580433152126  0.5505790322674784  1.0000
  O   O2        1.0  0.18095563567978698  0.42923761352491147  0.42818006759018357  1.0000
  O   O3        1.0  0.025222885781886396  0.5507516051295838  0.4474018046058319  1.0000
  O   O4        1.0  0.17782075443364678  0.44626599645781073  0.5546801766637657  1.0000
  O   O5        1.0  0.023088135864640005  0.5679977151103871  0.5753410773213119  1.0000
  O   O6        1.0  0.5182107113831478  0.4290959390850873  0.421176114645732  1.0000
  O   O7        1.0  0.35374515583295363  0.5385954379301838  0.5069654597814903  1.0000
  O   O8        1.0  0.6842615875370227  0.5669897324530455  0.5705121306676162  1.0000
  O   O9        1.0  0.6848535006885045  0.5514894227231224  0.4447540447912459  1.0000
  O   O10       1.0  0.849622040514255  0.4578707769353799  0.49059000425574345  1.0000
  O   O11       1.0  0.27938720089682073  0.07059253580889899  0.073353638530449  1.0000
  O   O12       1.0  0.6165195648233209  0.050175295415115805  0.9435404222316921  1.0000
  O   O13       1.0  0.7713229230852647  0.9273843530310801  0.9240636360160579  1.0000
  O   O14       1.0  0.6188241069747775  0.06809796205575222  0.0716805916838439  1.0000
  O   O15       1.0  0.7717585395400589  0.9459619287805621  0.05118778261947188  1.0000
  O   O16       1.0  0.2766213325275402  0.05062999951141481  0.9464133698189843  1.0000
  O   O17       1.0  0.4417489717473231  0.9594761421089755  0.9928865963985986  1.0000
  O   O18       1.0  0.11183372928480399  0.9481425321739754  0.05486967479101424  1.0000
  O   O19       1.0  0.11116252220762139  0.9303982689721552  0.9273747465289262  1.0000
  O   O20       1.0  0.945157578685496  0.03854714548124601  0.005471313044694199  1.0000
  O   O21       1.0  0.9731254208861767  0.3730421495072776  0.31897828455424093  1.0000
  O   O22       1.0  0.9280525583154715  0.26973303543821464  0.7222545275966894  1.0000
  O   O23       1.0  0.8661390634223524  0.25166654643306424  0.6069854040807598  1.0000
  O   O24       1.0  0.10411662274702141  0.18302381882960364  0.6397212721936896  1.0000
  O   O25       1.0  0.33873771605387754  0.6847464400240854  0.604731219406105  1.0000
  O   O26       1.0  0.027024163327666894  0.6875822386989157  0.5417815944893505  1.0000
  O   O27       1.0  0.1738064499601961  0.7883454447107854  0.6142594805148676  1.0000
